data_job_05034
_audit_creation_date              2018-12-19
_audit_creation_method            'Materials Studio'
_symmetry_space_group_name_H-M    'P1'
_symmetry_Int_Tables_number       1
_symmetry_cell_setting            triclinic
loop_
_symmetry_equiv_pos_as_xyz
  x,y,z
_cell_length_a                    14.9858
_cell_length_b                    14.9858
_cell_length_c                    20.1353
_cell_angle_alpha                 90.0000
_cell_angle_beta                  90.0000
_cell_angle_gamma                 90.0000
loop_
_atom_site_label
_atom_site_type_symbol
_atom_site_fract_x
_atom_site_fract_y
_atom_site_fract_z
_atom_site_U_iso_or_equiv
_atom_site_adp_type
_atom_site_occupancy
C1     C     0.76465   0.95193   0.66283   0.00000  Uiso   1.00
C2     C     0.66744   0.92821   0.67662   0.00000  Uiso   1.00
C3     C     0.62144   0.85645   0.64969   0.00000  Uiso   1.00
C4     C     0.53290   0.84620   0.66851   0.00000  Uiso   1.00
C5     C     0.38819   0.80035   0.68318   0.00000  Uiso   1.00
C6     C     0.76414   0.04771   0.63726   0.00000  Uiso   1.00
C7     C     0.79946   0.07642   0.57723   0.00000  Uiso   1.00
C8     C     0.79234   0.16678   0.56292   0.00000  Uiso   1.00
C9     C     0.79782   0.30647   0.51649   0.00000  Uiso   1.00
C10    C     0.81066   0.95486   0.73034   0.00000  Uiso   1.00
C11    C     0.88510   0.90552   0.74858   0.00000  Uiso   1.00
C12    C     0.91715   0.91772   0.81264   0.00000  Uiso   1.00
C13    C     0.99485   0.91324   0.91075   0.00000  Uiso   1.00
C14    C     0.68922   0.06135   0.74416   0.00000  Uiso   1.00
C15    C     0.62647   0.98764   0.72079   0.00000  Uiso   1.00
C16    C     0.53798   0.97750   0.73967   0.00000  Uiso   1.00
C17    C     0.49186   0.90573   0.71277   0.00000  Uiso   1.00
C18    C     0.72318   0.10714   0.68143   0.00000  Uiso   1.00
C19    C     0.71600   0.19747   0.66721   0.00000  Uiso   1.00
C20    C     0.75129   0.22631   0.60717   0.00000  Uiso   1.00
C21    C     0.76969   0.01429   0.77452   0.00000  Uiso   1.00
C22    C     0.80164   0.02657   0.83856   0.00000  Uiso   1.00
C23    C     0.87611   0.97725   0.85689   0.00000  Uiso   1.00
H24    H     0.79655   0.90567   0.62844   0.00000  Uiso   1.00
H25    H     0.65317   0.81048   0.61550   0.00000  Uiso   1.00
H26    H     0.83117   0.03042   0.54306   0.00000  Uiso   1.00
H27    H     0.91679   0.85954   0.71439   0.00000  Uiso   1.00
H28    H     0.47613   0.73116   0.62062   0.00000  Uiso   1.00
H29    H     0.85148   0.19493   0.46788   0.00000  Uiso   1.00
H30    H     0.03203   0.83460   0.82915   0.00000  Uiso   1.00
H31    H     0.65732   0.10762   0.77855   0.00000  Uiso   1.00
H32    H     0.50629   0.02350   0.77385   0.00000  Uiso   1.00
H33    H     0.68430   0.24344   0.70140   0.00000  Uiso   1.00
H34    H     0.76992   0.07256   0.87273   0.00000  Uiso   1.00
H35    H     0.35692   0.90406   0.74914   0.00000  Uiso   1.00
H36    H     0.73228   0.36783   0.59639   0.00000  Uiso   1.00
H37    H     0.91282   0.00750   0.95767   0.00000  Uiso   1.00
O38    O     0.31968   0.75865   0.67906   0.00000  Uiso   1.00
O39    O     0.81215   0.36709   0.47867   0.00000  Uiso   1.00
O40    O     0.04902   0.89435   0.95266   0.00000  Uiso   1.00
N41    N     0.46880   0.78339   0.65152   0.00000  Uiso   1.00
N42    N     0.81972   0.21698   0.50871   0.00000  Uiso   1.00
N43    N     0.98854   0.88012   0.84647   0.00000  Uiso   1.00
N44    N     0.40466   0.87642   0.72068   0.00000  Uiso   1.00
N45    N     0.75558   0.31001   0.57787   0.00000  Uiso   1.00
N46    N     0.92439   0.97315   0.91562   0.00000  Uiso   1.00
C47    C     0.23535   0.04807   0.16283   0.00000  Uiso   1.00
C48    C     0.33256   0.07179   0.17662   0.00000  Uiso   1.00
C49    C     0.37856   0.14355   0.14969   0.00000  Uiso   1.00
C50    C     0.46710   0.15380   0.16851   0.00000  Uiso   1.00
C51    C     0.61181   0.19965   0.18318   0.00000  Uiso   1.00
C52    C     0.23586   0.95229   0.13726   0.00000  Uiso   1.00
C53    C     0.20054   0.92358   0.07723   0.00000  Uiso   1.00
C54    C     0.20766   0.83322   0.06292   0.00000  Uiso   1.00
C55    C     0.20218   0.69353   0.01649   0.00000  Uiso   1.00
C56    C     0.18934   0.04514   0.23034   0.00000  Uiso   1.00
C57    C     0.11490   0.09448   0.24858   0.00000  Uiso   1.00
C58    C     0.08285   0.08228   0.31264   0.00000  Uiso   1.00
C59    C     0.00515   0.08676   0.41075   0.00000  Uiso   1.00
C60    C     0.31078   0.93865   0.24416   0.00000  Uiso   1.00
C61    C     0.37353   0.01236   0.22079   0.00000  Uiso   1.00
C62    C     0.46202   0.02250   0.23967   0.00000  Uiso   1.00
C63    C     0.50814   0.09427   0.21277   0.00000  Uiso   1.00
C64    C     0.27682   0.89286   0.18143   0.00000  Uiso   1.00
C65    C     0.28400   0.80253   0.16721   0.00000  Uiso   1.00
C66    C     0.24871   0.77369   0.10717   0.00000  Uiso   1.00
C67    C     0.23031   0.98571   0.27452   0.00000  Uiso   1.00
C68    C     0.19836   0.97343   0.33856   0.00000  Uiso   1.00
C69    C     0.12389   0.02275   0.35689   0.00000  Uiso   1.00
H70    H     0.20345   0.09433   0.12844   0.00000  Uiso   1.00
H71    H     0.34683   0.18952   0.11550   0.00000  Uiso   1.00
H72    H     0.16883   0.96958   0.04306   0.00000  Uiso   1.00
H73    H     0.08321   0.14046   0.21439   0.00000  Uiso   1.00
H74    H     0.52387   0.26884   0.12062   0.00000  Uiso   1.00
H75    H     0.14852   0.80507   0.96788   0.00000  Uiso   1.00
H76    H     0.96797   0.16540   0.32915   0.00000  Uiso   1.00
H77    H     0.34268   0.89238   0.27855   0.00000  Uiso   1.00
H78    H     0.49371   0.97650   0.27385   0.00000  Uiso   1.00
H79    H     0.31570   0.75656   0.20140   0.00000  Uiso   1.00
H80    H     0.23008   0.92744   0.37273   0.00000  Uiso   1.00
H81    H     0.64308   0.09594   0.24914   0.00000  Uiso   1.00
H82    H     0.26772   0.63217   0.09639   0.00000  Uiso   1.00
H83    H     0.08718   0.99250   0.45767   0.00000  Uiso   1.00
O84    O     0.68032   0.24135   0.17906   0.00000  Uiso   1.00
O85    O     0.18785   0.63291   0.97867   0.00000  Uiso   1.00
O86    O     0.95098   0.10565   0.45266   0.00000  Uiso   1.00
N87    N     0.53120   0.21661   0.15152   0.00000  Uiso   1.00
N88    N     0.18028   0.78302   0.00871   0.00000  Uiso   1.00
N89    N     0.01146   0.11988   0.34647   0.00000  Uiso   1.00
N90    N     0.59534   0.12358   0.22068   0.00000  Uiso   1.00
N91    N     0.24442   0.68999   0.07787   0.00000  Uiso   1.00
N92    N     0.07561   0.02685   0.41562   0.00000  Uiso   1.00
C93    C     0.54807   0.26465   0.41283   0.00000  Uiso   1.00
C94    C     0.57179   0.16744   0.42662   0.00000  Uiso   1.00
C95    C     0.64355   0.12144   0.39969   0.00000  Uiso   1.00
C96    C     0.65380   0.03290   0.41851   0.00000  Uiso   1.00
C97    C     0.69965   0.88819   0.43318   0.00000  Uiso   1.00
C98    C     0.45229   0.26414   0.38726   0.00000  Uiso   1.00
C99    C     0.42358   0.29946   0.32723   0.00000  Uiso   1.00
C100   C     0.33322   0.29234   0.31292   0.00000  Uiso   1.00
C101   C     0.19353   0.29782   0.26649   0.00000  Uiso   1.00
C102   C     0.54514   0.31066   0.48034   0.00000  Uiso   1.00
C103   C     0.59448   0.38510   0.49858   0.00000  Uiso   1.00
C104   C     0.58228   0.41715   0.56264   0.00000  Uiso   1.00
C105   C     0.58676   0.49485   0.66075   0.00000  Uiso   1.00
C106   C     0.43865   0.18922   0.49416   0.00000  Uiso   1.00
C107   C     0.51236   0.12647   0.47079   0.00000  Uiso   1.00
C108   C     0.52250   0.03798   0.48967   0.00000  Uiso   1.00
C109   C     0.59427   0.99186   0.46277   0.00000  Uiso   1.00
C110   C     0.39286   0.22318   0.43143   0.00000  Uiso   1.00
C111   C     0.30253   0.21600   0.41721   0.00000  Uiso   1.00
C112   C     0.27369   0.25129   0.35717   0.00000  Uiso   1.00
C113   C     0.48571   0.26969   0.52452   0.00000  Uiso   1.00
C114   C     0.47343   0.30164   0.58856   0.00000  Uiso   1.00
C115   C     0.52275   0.37611   0.60689   0.00000  Uiso   1.00
H116   H     0.59433   0.29655   0.37844   0.00000  Uiso   1.00
H117   H     0.68952   0.15317   0.36550   0.00000  Uiso   1.00
H118   H     0.46958   0.33117   0.29306   0.00000  Uiso   1.00
H119   H     0.64046   0.41679   0.46439   0.00000  Uiso   1.00
H120   H     0.76884   0.97613   0.37062   0.00000  Uiso   1.00
H121   H     0.30507   0.35148   0.21788   0.00000  Uiso   1.00
H122   H     0.66540   0.53203   0.57915   0.00000  Uiso   1.00
H123   H     0.39238   0.15732   0.52855   0.00000  Uiso   1.00
H124   H     0.47650   0.00629   0.52385   0.00000  Uiso   1.00
H125   H     0.25656   0.18430   0.45140   0.00000  Uiso   1.00
H126   H     0.42744   0.26992   0.62273   0.00000  Uiso   1.00
H127   H     0.59594   0.85692   0.49914   0.00000  Uiso   1.00
H128   H     0.13217   0.23228   0.34639   0.00000  Uiso   1.00
H129   H     0.49250   0.41282   0.70767   0.00000  Uiso   1.00
O130   O     0.74135   0.81968   0.42906   0.00000  Uiso   1.00
O131   O     0.13291   0.31215   0.22867   0.00000  Uiso   1.00
O132   O     0.60565   0.54902   0.70266   0.00000  Uiso   1.00
N133   N     0.71661   0.96880   0.40152   0.00000  Uiso   1.00
N134   N     0.28302   0.31972   0.25871   0.00000  Uiso   1.00
N135   N     0.61988   0.48854   0.59647   0.00000  Uiso   1.00
N136   N     0.62358   0.90466   0.47068   0.00000  Uiso   1.00
N137   N     0.18999   0.25558   0.32787   0.00000  Uiso   1.00
N138   N     0.52685   0.42439   0.66562   0.00000  Uiso   1.00
C139   C     0.45193   0.73535   0.91283   0.00000  Uiso   1.00
C140   C     0.42821   0.83256   0.92662   0.00000  Uiso   1.00
C141   C     0.35645   0.87856   0.89969   0.00000  Uiso   1.00
C142   C     0.34620   0.96710   0.91851   0.00000  Uiso   1.00
C143   C     0.30035   0.11181   0.93318   0.00000  Uiso   1.00
C144   C     0.54771   0.73586   0.88726   0.00000  Uiso   1.00
C145   C     0.57642   0.70054   0.82723   0.00000  Uiso   1.00
C146   C     0.66678   0.70766   0.81292   0.00000  Uiso   1.00
C147   C     0.80647   0.70218   0.76649   0.00000  Uiso   1.00
C148   C     0.45486   0.68934   0.98034   0.00000  Uiso   1.00
C149   C     0.40552   0.61490   0.99858   0.00000  Uiso   1.00
C150   C     0.41772   0.58285   0.06264   0.00000  Uiso   1.00
C151   C     0.41324   0.50515   0.16075   0.00000  Uiso   1.00
C152   C     0.56135   0.81078   0.99416   0.00000  Uiso   1.00
C153   C     0.48764   0.87353   0.97079   0.00000  Uiso   1.00
C154   C     0.47750   0.96202   0.98967   0.00000  Uiso   1.00
C155   C     0.40573   0.00814   0.96277   0.00000  Uiso   1.00
C156   C     0.60714   0.77682   0.93143   0.00000  Uiso   1.00
C157   C     0.69747   0.78400   0.91721   0.00000  Uiso   1.00
C158   C     0.72631   0.74871   0.85717   0.00000  Uiso   1.00
C159   C     0.51429   0.73031   0.02452   0.00000  Uiso   1.00
C160   C     0.52657   0.69836   0.08856   0.00000  Uiso   1.00
C161   C     0.47725   0.62389   0.10689   0.00000  Uiso   1.00
H162   H     0.40567   0.70345   0.87844   0.00000  Uiso   1.00
H163   H     0.31048   0.84683   0.86550   0.00000  Uiso   1.00
H164   H     0.53042   0.66883   0.79306   0.00000  Uiso   1.00
H165   H     0.35954   0.58321   0.96439   0.00000  Uiso   1.00
H166   H     0.23116   0.02387   0.87062   0.00000  Uiso   1.00
H167   H     0.69493   0.64852   0.71788   0.00000  Uiso   1.00
H168   H     0.33460   0.46797   0.07915   0.00000  Uiso   1.00
H169   H     0.60762   0.84268   0.02855   0.00000  Uiso   1.00
H170   H     0.52350   0.99371   0.02385   0.00000  Uiso   1.00
H171   H     0.74344   0.81570   0.95140   0.00000  Uiso   1.00
H172   H     0.57256   0.73008   0.12273   0.00000  Uiso   1.00
H173   H     0.40406   0.14308   0.99914   0.00000  Uiso   1.00
H174   H     0.86783   0.76772   0.84639   0.00000  Uiso   1.00
H175   H     0.50750   0.58718   0.20767   0.00000  Uiso   1.00
O176   O     0.25865   0.18032   0.92906   0.00000  Uiso   1.00
O177   O     0.86709   0.68785   0.72867   0.00000  Uiso   1.00
O178   O     0.39435   0.45098   0.20266   0.00000  Uiso   1.00
N179   N     0.28339   0.03120   0.90152   0.00000  Uiso   1.00
N180   N     0.71698   0.68028   0.75871   0.00000  Uiso   1.00
N181   N     0.38012   0.51146   0.09647   0.00000  Uiso   1.00
N182   N     0.37642   0.09534   0.97068   0.00000  Uiso   1.00
N183   N     0.81001   0.74442   0.82787   0.00000  Uiso   1.00
N184   N     0.47315   0.57561   0.16562   0.00000  Uiso   1.00
C185   C     0.73535   0.45193   0.08717   0.00000  Uiso   1.00
C186   C     0.83256   0.42821   0.07338   0.00000  Uiso   1.00
C187   C     0.87856   0.35645   0.10031   0.00000  Uiso   1.00
C188   C     0.96710   0.34620   0.08149   0.00000  Uiso   1.00
C189   C     0.11181   0.30035   0.06682   0.00000  Uiso   1.00
C190   C     0.73586   0.54771   0.11274   0.00000  Uiso   1.00
C191   C     0.70054   0.57642   0.17277   0.00000  Uiso   1.00
C192   C     0.70766   0.66678   0.18708   0.00000  Uiso   1.00
C193   C     0.70218   0.80647   0.23351   0.00000  Uiso   1.00
C194   C     0.68934   0.45486   0.01966   0.00000  Uiso   1.00
C195   C     0.61490   0.40552   0.00142   0.00000  Uiso   1.00
C196   C     0.58285   0.41772   0.93736   0.00000  Uiso   1.00
C197   C     0.50515   0.41324   0.83925   0.00000  Uiso   1.00
C198   C     0.81078   0.56135   0.00584   0.00000  Uiso   1.00
C199   C     0.87353   0.48764   0.02921   0.00000  Uiso   1.00
C200   C     0.96202   0.47750   0.01033   0.00000  Uiso   1.00
C201   C     0.00814   0.40573   0.03723   0.00000  Uiso   1.00
C202   C     0.77682   0.60714   0.06857   0.00000  Uiso   1.00
C203   C     0.78400   0.69747   0.08279   0.00000  Uiso   1.00
C204   C     0.74871   0.72631   0.14283   0.00000  Uiso   1.00
C205   C     0.73031   0.51429   0.97548   0.00000  Uiso   1.00
C206   C     0.69836   0.52657   0.91144   0.00000  Uiso   1.00
C207   C     0.62389   0.47725   0.89311   0.00000  Uiso   1.00
H208   H     0.70345   0.40567   0.12156   0.00000  Uiso   1.00
H209   H     0.84683   0.31048   0.13450   0.00000  Uiso   1.00
H210   H     0.66883   0.53042   0.20694   0.00000  Uiso   1.00
H211   H     0.58321   0.35954   0.03561   0.00000  Uiso   1.00
H212   H     0.02387   0.23116   0.12938   0.00000  Uiso   1.00
H213   H     0.64852   0.69493   0.28212   0.00000  Uiso   1.00
H214   H     0.46797   0.33460   0.92085   0.00000  Uiso   1.00
H215   H     0.84268   0.60762   0.97145   0.00000  Uiso   1.00
H216   H     0.99371   0.52350   0.97615   0.00000  Uiso   1.00
H217   H     0.81570   0.74344   0.04860   0.00000  Uiso   1.00
H218   H     0.73008   0.57256   0.87727   0.00000  Uiso   1.00
H219   H     0.14308   0.40406   0.00086   0.00000  Uiso   1.00
H220   H     0.76772   0.86783   0.15361   0.00000  Uiso   1.00
H221   H     0.58718   0.50750   0.79233   0.00000  Uiso   1.00
O222   O     0.18032   0.25865   0.07094   0.00000  Uiso   1.00
O223   O     0.68785   0.86709   0.27133   0.00000  Uiso   1.00
O224   O     0.45098   0.39435   0.79734   0.00000  Uiso   1.00
N225   N     0.03120   0.28339   0.09848   0.00000  Uiso   1.00
N226   N     0.68028   0.71698   0.24129   0.00000  Uiso   1.00
N227   N     0.51146   0.38012   0.90353   0.00000  Uiso   1.00
N228   N     0.09534   0.37642   0.02932   0.00000  Uiso   1.00
N229   N     0.74442   0.81001   0.17213   0.00000  Uiso   1.00
N230   N     0.57561   0.47315   0.83438   0.00000  Uiso   1.00
C231   C     0.26465   0.54807   0.58717   0.00000  Uiso   1.00
C232   C     0.16744   0.57179   0.57338   0.00000  Uiso   1.00
C233   C     0.12144   0.64355   0.60031   0.00000  Uiso   1.00
C234   C     0.03290   0.65380   0.58149   0.00000  Uiso   1.00
C235   C     0.88819   0.69965   0.56682   0.00000  Uiso   1.00
C236   C     0.26414   0.45229   0.61274   0.00000  Uiso   1.00
C237   C     0.29946   0.42358   0.67277   0.00000  Uiso   1.00
C238   C     0.29234   0.33322   0.68708   0.00000  Uiso   1.00
C239   C     0.29782   0.19353   0.73351   0.00000  Uiso   1.00
C240   C     0.31066   0.54514   0.51966   0.00000  Uiso   1.00
C241   C     0.38510   0.59448   0.50142   0.00000  Uiso   1.00
C242   C     0.41715   0.58228   0.43736   0.00000  Uiso   1.00
C243   C     0.49485   0.58676   0.33925   0.00000  Uiso   1.00
C244   C     0.18922   0.43865   0.50584   0.00000  Uiso   1.00
C245   C     0.12647   0.51236   0.52921   0.00000  Uiso   1.00
C246   C     0.03798   0.52250   0.51033   0.00000  Uiso   1.00
C247   C     0.99186   0.59427   0.53723   0.00000  Uiso   1.00
C248   C     0.22318   0.39286   0.56857   0.00000  Uiso   1.00
C249   C     0.21600   0.30253   0.58279   0.00000  Uiso   1.00
C250   C     0.25129   0.27369   0.64283   0.00000  Uiso   1.00
C251   C     0.26969   0.48571   0.47548   0.00000  Uiso   1.00
C252   C     0.30164   0.47343   0.41144   0.00000  Uiso   1.00
C253   C     0.37611   0.52275   0.39311   0.00000  Uiso   1.00
H254   H     0.29655   0.59433   0.62156   0.00000  Uiso   1.00
H255   H     0.15317   0.68952   0.63450   0.00000  Uiso   1.00
H256   H     0.33117   0.46958   0.70694   0.00000  Uiso   1.00
H257   H     0.41679   0.64046   0.53561   0.00000  Uiso   1.00
H258   H     0.97613   0.76884   0.62938   0.00000  Uiso   1.00
H259   H     0.35148   0.30507   0.78212   0.00000  Uiso   1.00
H260   H     0.53203   0.66540   0.42085   0.00000  Uiso   1.00
H261   H     0.15732   0.39238   0.47145   0.00000  Uiso   1.00
H262   H     0.00629   0.47650   0.47615   0.00000  Uiso   1.00
H263   H     0.18430   0.25656   0.54860   0.00000  Uiso   1.00
H264   H     0.26992   0.42744   0.37727   0.00000  Uiso   1.00
H265   H     0.85692   0.59594   0.50086   0.00000  Uiso   1.00
H266   H     0.23228   0.13217   0.65361   0.00000  Uiso   1.00
H267   H     0.41282   0.49250   0.29233   0.00000  Uiso   1.00
O268   O     0.81968   0.74135   0.57094   0.00000  Uiso   1.00
O269   O     0.31215   0.13291   0.77133   0.00000  Uiso   1.00
O270   O     0.54902   0.60565   0.29734   0.00000  Uiso   1.00
N271   N     0.96880   0.71661   0.59848   0.00000  Uiso   1.00
N272   N     0.31972   0.28302   0.74129   0.00000  Uiso   1.00
N273   N     0.48854   0.61988   0.40353   0.00000  Uiso   1.00
N274   N     0.90466   0.62358   0.52932   0.00000  Uiso   1.00
N275   N     0.25558   0.18999   0.67213   0.00000  Uiso   1.00
N276   N     0.42439   0.52685   0.33438   0.00000  Uiso   1.00
C277   C     0.95193   0.76465   0.33717   0.00000  Uiso   1.00
C278   C     0.92821   0.66744   0.32338   0.00000  Uiso   1.00
C279   C     0.85645   0.62144   0.35031   0.00000  Uiso   1.00
C280   C     0.84620   0.53290   0.33149   0.00000  Uiso   1.00
C281   C     0.80035   0.38819   0.31682   0.00000  Uiso   1.00
C282   C     0.04771   0.76414   0.36274   0.00000  Uiso   1.00
C283   C     0.07642   0.79946   0.42277   0.00000  Uiso   1.00
C284   C     0.16678   0.79234   0.43708   0.00000  Uiso   1.00
C285   C     0.30647   0.79782   0.48351   0.00000  Uiso   1.00
C286   C     0.95486   0.81066   0.26966   0.00000  Uiso   1.00
C287   C     0.90552   0.88510   0.25142   0.00000  Uiso   1.00
C288   C     0.91772   0.91715   0.18736   0.00000  Uiso   1.00
C289   C     0.91324   0.99485   0.08925   0.00000  Uiso   1.00
C290   C     0.06135   0.68922   0.25584   0.00000  Uiso   1.00
C291   C     0.98764   0.62647   0.27921   0.00000  Uiso   1.00
C292   C     0.97750   0.53798   0.26033   0.00000  Uiso   1.00
C293   C     0.90573   0.49186   0.28723   0.00000  Uiso   1.00
C294   C     0.10714   0.72318   0.31857   0.00000  Uiso   1.00
C295   C     0.19747   0.71600   0.33279   0.00000  Uiso   1.00
C296   C     0.22631   0.75129   0.39283   0.00000  Uiso   1.00
C297   C     0.01429   0.76969   0.22548   0.00000  Uiso   1.00
C298   C     0.02657   0.80164   0.16144   0.00000  Uiso   1.00
C299   C     0.97725   0.87611   0.14311   0.00000  Uiso   1.00
H300   H     0.90567   0.79655   0.37156   0.00000  Uiso   1.00
H301   H     0.81048   0.65317   0.38450   0.00000  Uiso   1.00
H302   H     0.03042   0.83117   0.45694   0.00000  Uiso   1.00
H303   H     0.85954   0.91679   0.28561   0.00000  Uiso   1.00
H304   H     0.73116   0.47613   0.37938   0.00000  Uiso   1.00
H305   H     0.19493   0.85148   0.53212   0.00000  Uiso   1.00
H306   H     0.83460   0.03203   0.17085   0.00000  Uiso   1.00
H307   H     0.10762   0.65732   0.22145   0.00000  Uiso   1.00
H308   H     0.02350   0.50629   0.22615   0.00000  Uiso   1.00
H309   H     0.24344   0.68430   0.29860   0.00000  Uiso   1.00
H310   H     0.07256   0.76992   0.12727   0.00000  Uiso   1.00
H311   H     0.90406   0.35692   0.25086   0.00000  Uiso   1.00
H312   H     0.36783   0.73228   0.40361   0.00000  Uiso   1.00
H313   H     0.00750   0.91282   0.04233   0.00000  Uiso   1.00
O314   O     0.75865   0.31968   0.32094   0.00000  Uiso   1.00
O315   O     0.36709   0.81215   0.52133   0.00000  Uiso   1.00
O316   O     0.89435   0.04902   0.04734   0.00000  Uiso   1.00
N317   N     0.78339   0.46880   0.34848   0.00000  Uiso   1.00
N318   N     0.21698   0.81972   0.49129   0.00000  Uiso   1.00
N319   N     0.88012   0.98854   0.15353   0.00000  Uiso   1.00
N320   N     0.87642   0.40466   0.27932   0.00000  Uiso   1.00
N321   N     0.31001   0.75558   0.42213   0.00000  Uiso   1.00
N322   N     0.97315   0.92439   0.08438   0.00000  Uiso   1.00
C323   C     0.04807   0.23535   0.83717   0.00000  Uiso   1.00
C324   C     0.07179   0.33256   0.82338   0.00000  Uiso   1.00
C325   C     0.14355   0.37856   0.85031   0.00000  Uiso   1.00
C326   C     0.15380   0.46710   0.83149   0.00000  Uiso   1.00
C327   C     0.19965   0.61181   0.81682   0.00000  Uiso   1.00
C328   C     0.95229   0.23586   0.86274   0.00000  Uiso   1.00
C329   C     0.92358   0.20054   0.92277   0.00000  Uiso   1.00
C330   C     0.83322   0.20766   0.93708   0.00000  Uiso   1.00
C331   C     0.69353   0.20218   0.98351   0.00000  Uiso   1.00
C332   C     0.04514   0.18934   0.76966   0.00000  Uiso   1.00
C333   C     0.09448   0.11490   0.75142   0.00000  Uiso   1.00
C334   C     0.08228   0.08285   0.68736   0.00000  Uiso   1.00
C335   C     0.08676   0.00515   0.58925   0.00000  Uiso   1.00
C336   C     0.93865   0.31078   0.75584   0.00000  Uiso   1.00
C337   C     0.01236   0.37353   0.77921   0.00000  Uiso   1.00
C338   C     0.02250   0.46202   0.76033   0.00000  Uiso   1.00
C339   C     0.09427   0.50814   0.78723   0.00000  Uiso   1.00
C340   C     0.89286   0.27682   0.81857   0.00000  Uiso   1.00
C341   C     0.80253   0.28400   0.83279   0.00000  Uiso   1.00
C342   C     0.77369   0.24871   0.89283   0.00000  Uiso   1.00
C343   C     0.98571   0.23031   0.72548   0.00000  Uiso   1.00
C344   C     0.97343   0.19836   0.66144   0.00000  Uiso   1.00
C345   C     0.02275   0.12389   0.64311   0.00000  Uiso   1.00
H346   H     0.09433   0.20345   0.87156   0.00000  Uiso   1.00
H347   H     0.18952   0.34683   0.88450   0.00000  Uiso   1.00
H348   H     0.96958   0.16883   0.95694   0.00000  Uiso   1.00
H349   H     0.14046   0.08321   0.78561   0.00000  Uiso   1.00
H350   H     0.26884   0.52387   0.87938   0.00000  Uiso   1.00
H351   H     0.80507   0.14852   0.03212   0.00000  Uiso   1.00
H352   H     0.16540   0.96797   0.67085   0.00000  Uiso   1.00
H353   H     0.89238   0.34268   0.72145   0.00000  Uiso   1.00
H354   H     0.97650   0.49371   0.72615   0.00000  Uiso   1.00
H355   H     0.75656   0.31570   0.79860   0.00000  Uiso   1.00
H356   H     0.92744   0.23008   0.62727   0.00000  Uiso   1.00
H357   H     0.09594   0.64308   0.75086   0.00000  Uiso   1.00
H358   H     0.63217   0.26772   0.90361   0.00000  Uiso   1.00
H359   H     0.99250   0.08718   0.54233   0.00000  Uiso   1.00
O360   O     0.24135   0.68032   0.82094   0.00000  Uiso   1.00
O361   O     0.63291   0.18785   0.02133   0.00000  Uiso   1.00
O362   O     0.10565   0.95098   0.54734   0.00000  Uiso   1.00
N363   N     0.21661   0.53120   0.84848   0.00000  Uiso   1.00
N364   N     0.78302   0.18028   0.99129   0.00000  Uiso   1.00
N365   N     0.11988   0.01146   0.65353   0.00000  Uiso   1.00
N366   N     0.12358   0.59534   0.77932   0.00000  Uiso   1.00
N367   N     0.68999   0.24442   0.92213   0.00000  Uiso   1.00
N368   N     0.02685   0.07561   0.58438   0.00000  Uiso   1.00
