data_job_03883
_audit_creation_date              2018-12-19
_audit_creation_method            'Materials Studio'
_symmetry_space_group_name_H-M    'P1'
_symmetry_Int_Tables_number       1
_symmetry_cell_setting            triclinic
loop_
_symmetry_equiv_pos_as_xyz
  x,y,z
_cell_length_a                    16.6489
_cell_length_b                    10.2664
_cell_length_c                    14.2520
_cell_angle_alpha                 90.0000
_cell_angle_beta                  77.7491
_cell_angle_gamma                 90.0000
loop_
_atom_site_label
_atom_site_type_symbol
_atom_site_fract_x
_atom_site_fract_y
_atom_site_fract_z
_atom_site_U_iso_or_equiv
_atom_site_adp_type
_atom_site_occupancy
C1     C     0.81839   0.84178   0.66737   0.00000  Uiso   1.00
C2     C     0.74127   0.84329   0.74728   0.00000  Uiso   1.00
C3     C     0.73030   0.77435   0.83282   0.00000  Uiso   1.00
C4     C     0.65527   0.78876   0.89666   0.00000  Uiso   1.00
C5     C     0.54490   0.77880   0.02393   0.00000  Uiso   1.00
C6     C     0.79046   0.80019   0.57665   0.00000  Uiso   1.00
C7     C     0.82085   0.69502   0.51871   0.00000  Uiso   1.00
C8     C     0.78723   0.67316   0.43890   0.00000  Uiso   1.00
C9     C     0.75328   0.59635   0.30122   0.00000  Uiso   1.00
C10    C     0.84551   0.98341   0.65161   0.00000  Uiso   1.00
C11    C     0.92219   0.03230   0.65668   0.00000  Uiso   1.00
C12    C     0.93492   0.16469   0.63996   0.00000  Uiso   1.00
C13    C     0.98643   0.37235   0.61867   0.00000  Uiso   1.00
C14    C     0.70467   0.98996   0.62863   0.00000  Uiso   1.00
C15    C     0.67950   0.92377   0.72624   0.00000  Uiso   1.00
C16    C     0.60447   0.93829   0.78996   0.00000  Uiso   1.00
C17    C     0.59339   0.86939   0.87558   0.00000  Uiso   1.00
C18    C     0.72869   0.88066   0.55561   0.00000  Uiso   1.00
C19    C     0.69503   0.85896   0.47585   0.00000  Uiso   1.00
C20    C     0.72535   0.75379   0.41782   0.00000  Uiso   1.00
C21    C     0.78374   0.06389   0.63057   0.00000  Uiso   1.00
C22    C     0.79636   0.19624   0.61383   0.00000  Uiso   1.00
C23    C     0.87304   0.24532   0.61887   0.00000  Uiso   1.00
H24    H     0.86648   0.77912   0.68374   0.00000  Uiso   1.00
H25    H     0.77811   0.71207   0.84908   0.00000  Uiso   1.00
H26    H     0.86866   0.63276   0.53501   0.00000  Uiso   1.00
H27    H     0.96997   0.96998   0.67296   0.00000  Uiso   1.00
H28    H     0.65288   0.67318   0.02308   0.00000  Uiso   1.00
H29    H     0.84382   0.50599   0.36084   0.00000  Uiso   1.00
H30    H     0.05747   0.21709   0.65174   0.00000  Uiso   1.00
H31    H     0.65658   0.05262   0.61224   0.00000  Uiso   1.00
H32    H     0.55668   0.00058   0.77366   0.00000  Uiso   1.00
H33    H     0.64723   0.92127   0.45959   0.00000  Uiso   1.00
H34    H     0.74854   0.25849   0.59754   0.00000  Uiso   1.00
H35    H     0.47316   0.90735   0.96187   0.00000  Uiso   1.00
H36    H     0.66411   0.74015   0.29962   0.00000  Uiso   1.00
H37    H     0.87775   0.45125   0.59053   0.00000  Uiso   1.00
O38    O     0.50109   0.75106   0.09994   0.00000  Uiso   1.00
O39    O     0.75161   0.53173   0.23109   0.00000  Uiso   1.00
O40    O     0.03190   0.46467   0.61275   0.00000  Uiso   1.00
N41    N     0.62430   0.73546   0.98653   0.00000  Uiso   1.00
N42    N     0.80281   0.57913   0.36739   0.00000  Uiso   1.00
N43    N     0.00256   0.24394   0.63932   0.00000  Uiso   1.00
N44    N     0.52760   0.86146   0.95360   0.00000  Uiso   1.00
N45    N     0.70610   0.70513   0.33445   0.00000  Uiso   1.00
N46    N     0.90585   0.36994   0.60639   0.00000  Uiso   1.00
C47    C     0.18161   0.84178   0.83263   0.00000  Uiso   1.00
C48    C     0.25873   0.84329   0.75272   0.00000  Uiso   1.00
C49    C     0.26970   0.77435   0.66718   0.00000  Uiso   1.00
C50    C     0.34473   0.78876   0.60334   0.00000  Uiso   1.00
C51    C     0.45510   0.77880   0.47607   0.00000  Uiso   1.00
C52    C     0.20954   0.80019   0.92335   0.00000  Uiso   1.00
C53    C     0.17915   0.69502   0.98129   0.00000  Uiso   1.00
C54    C     0.21277   0.67316   0.06110   0.00000  Uiso   1.00
C55    C     0.24672   0.59635   0.19878   0.00000  Uiso   1.00
C56    C     0.15449   0.98341   0.84839   0.00000  Uiso   1.00
C57    C     0.07781   0.03230   0.84332   0.00000  Uiso   1.00
C58    C     0.06508   0.16469   0.86004   0.00000  Uiso   1.00
C59    C     0.01357   0.37235   0.88133   0.00000  Uiso   1.00
C60    C     0.29533   0.98996   0.87137   0.00000  Uiso   1.00
C61    C     0.32050   0.92377   0.77376   0.00000  Uiso   1.00
C62    C     0.39553   0.93829   0.71004   0.00000  Uiso   1.00
C63    C     0.40661   0.86939   0.62442   0.00000  Uiso   1.00
C64    C     0.27131   0.88066   0.94439   0.00000  Uiso   1.00
C65    C     0.30497   0.85896   0.02415   0.00000  Uiso   1.00
C66    C     0.27465   0.75379   0.08218   0.00000  Uiso   1.00
C67    C     0.21626   0.06389   0.86943   0.00000  Uiso   1.00
C68    C     0.20364   0.19624   0.88617   0.00000  Uiso   1.00
C69    C     0.12696   0.24532   0.88113   0.00000  Uiso   1.00
H70    H     0.13352   0.77912   0.81626   0.00000  Uiso   1.00
H71    H     0.22189   0.71207   0.65092   0.00000  Uiso   1.00
H72    H     0.13134   0.63276   0.96499   0.00000  Uiso   1.00
H73    H     0.03003   0.96998   0.82704   0.00000  Uiso   1.00
H74    H     0.34712   0.67318   0.47692   0.00000  Uiso   1.00
H75    H     0.15618   0.50599   0.13916   0.00000  Uiso   1.00
H76    H     0.94253   0.21709   0.84826   0.00000  Uiso   1.00
H77    H     0.34342   0.05262   0.88776   0.00000  Uiso   1.00
H78    H     0.44332   0.00058   0.72634   0.00000  Uiso   1.00
H79    H     0.35277   0.92127   0.04041   0.00000  Uiso   1.00
H80    H     0.25146   0.25849   0.90246   0.00000  Uiso   1.00
H81    H     0.52684   0.90735   0.53813   0.00000  Uiso   1.00
H82    H     0.33589   0.74015   0.20038   0.00000  Uiso   1.00
H83    H     0.12225   0.45125   0.90947   0.00000  Uiso   1.00
O84    O     0.49891   0.75106   0.40006   0.00000  Uiso   1.00
O85    O     0.24839   0.53173   0.26891   0.00000  Uiso   1.00
O86    O     0.96810   0.46467   0.88725   0.00000  Uiso   1.00
N87    N     0.37570   0.73546   0.51347   0.00000  Uiso   1.00
N88    N     0.19719   0.57913   0.13261   0.00000  Uiso   1.00
N89    N     0.99744   0.24394   0.86068   0.00000  Uiso   1.00
N90    N     0.47240   0.86146   0.54640   0.00000  Uiso   1.00
N91    N     0.29390   0.70513   0.16555   0.00000  Uiso   1.00
N92    N     0.09415   0.36994   0.89361   0.00000  Uiso   1.00
C93    C     0.18161   0.15822   0.33263   0.00000  Uiso   1.00
C94    C     0.25873   0.15671   0.25272   0.00000  Uiso   1.00
C95    C     0.26970   0.22565   0.16718   0.00000  Uiso   1.00
C96    C     0.34473   0.21124   0.10334   0.00000  Uiso   1.00
C97    C     0.45510   0.22120   0.97607   0.00000  Uiso   1.00
C98    C     0.20954   0.19981   0.42335   0.00000  Uiso   1.00
C99    C     0.17915   0.30498   0.48129   0.00000  Uiso   1.00
C100   C     0.21277   0.32684   0.56110   0.00000  Uiso   1.00
C101   C     0.24672   0.40365   0.69878   0.00000  Uiso   1.00
C102   C     0.15449   0.01659   0.34839   0.00000  Uiso   1.00
C103   C     0.07781   0.96770   0.34332   0.00000  Uiso   1.00
C104   C     0.06508   0.83531   0.36004   0.00000  Uiso   1.00
C105   C     0.01357   0.62765   0.38133   0.00000  Uiso   1.00
C106   C     0.29533   0.01004   0.37137   0.00000  Uiso   1.00
C107   C     0.32050   0.07623   0.27376   0.00000  Uiso   1.00
C108   C     0.39553   0.06171   0.21004   0.00000  Uiso   1.00
C109   C     0.40661   0.13061   0.12442   0.00000  Uiso   1.00
C110   C     0.27131   0.11934   0.44439   0.00000  Uiso   1.00
C111   C     0.30497   0.14104   0.52415   0.00000  Uiso   1.00
C112   C     0.27465   0.24621   0.58218   0.00000  Uiso   1.00
C113   C     0.21626   0.93611   0.36943   0.00000  Uiso   1.00
C114   C     0.20364   0.80376   0.38617   0.00000  Uiso   1.00
C115   C     0.12696   0.75468   0.38113   0.00000  Uiso   1.00
H116   H     0.13352   0.22088   0.31626   0.00000  Uiso   1.00
H117   H     0.22189   0.28793   0.15092   0.00000  Uiso   1.00
H118   H     0.13134   0.36724   0.46499   0.00000  Uiso   1.00
H119   H     0.03003   0.03002   0.32704   0.00000  Uiso   1.00
H120   H     0.34712   0.32682   0.97692   0.00000  Uiso   1.00
H121   H     0.15618   0.49401   0.63916   0.00000  Uiso   1.00
H122   H     0.94253   0.78291   0.34826   0.00000  Uiso   1.00
H123   H     0.34342   0.94738   0.38776   0.00000  Uiso   1.00
H124   H     0.44332   0.99942   0.22634   0.00000  Uiso   1.00
H125   H     0.35277   0.07873   0.54041   0.00000  Uiso   1.00
H126   H     0.25146   0.74151   0.40246   0.00000  Uiso   1.00
H127   H     0.52684   0.09265   0.03813   0.00000  Uiso   1.00
H128   H     0.33589   0.25985   0.70038   0.00000  Uiso   1.00
H129   H     0.12225   0.54875   0.40947   0.00000  Uiso   1.00
O130   O     0.49891   0.24894   0.90006   0.00000  Uiso   1.00
O131   O     0.24839   0.46827   0.76891   0.00000  Uiso   1.00
O132   O     0.96810   0.53533   0.38725   0.00000  Uiso   1.00
N133   N     0.37570   0.26454   0.01347   0.00000  Uiso   1.00
N134   N     0.19719   0.42087   0.63261   0.00000  Uiso   1.00
N135   N     0.99744   0.75606   0.36068   0.00000  Uiso   1.00
N136   N     0.47240   0.13854   0.04640   0.00000  Uiso   1.00
N137   N     0.29390   0.29487   0.66555   0.00000  Uiso   1.00
N138   N     0.09415   0.63006   0.39361   0.00000  Uiso   1.00
C139   C     0.81839   0.15822   0.16737   0.00000  Uiso   1.00
C140   C     0.74127   0.15671   0.24728   0.00000  Uiso   1.00
C141   C     0.73030   0.22565   0.33282   0.00000  Uiso   1.00
C142   C     0.65527   0.21124   0.39666   0.00000  Uiso   1.00
C143   C     0.54490   0.22120   0.52393   0.00000  Uiso   1.00
C144   C     0.79046   0.19981   0.07665   0.00000  Uiso   1.00
C145   C     0.82085   0.30498   0.01871   0.00000  Uiso   1.00
C146   C     0.78723   0.32684   0.93890   0.00000  Uiso   1.00
C147   C     0.75328   0.40365   0.80122   0.00000  Uiso   1.00
C148   C     0.84551   0.01659   0.15161   0.00000  Uiso   1.00
C149   C     0.92219   0.96770   0.15668   0.00000  Uiso   1.00
C150   C     0.93492   0.83531   0.13996   0.00000  Uiso   1.00
C151   C     0.98643   0.62765   0.11867   0.00000  Uiso   1.00
C152   C     0.70467   0.01004   0.12863   0.00000  Uiso   1.00
C153   C     0.67950   0.07623   0.22624   0.00000  Uiso   1.00
C154   C     0.60447   0.06171   0.28996   0.00000  Uiso   1.00
C155   C     0.59339   0.13061   0.37558   0.00000  Uiso   1.00
C156   C     0.72869   0.11934   0.05561   0.00000  Uiso   1.00
C157   C     0.69503   0.14104   0.97585   0.00000  Uiso   1.00
C158   C     0.72535   0.24621   0.91782   0.00000  Uiso   1.00
C159   C     0.78374   0.93611   0.13057   0.00000  Uiso   1.00
C160   C     0.79636   0.80376   0.11383   0.00000  Uiso   1.00
C161   C     0.87304   0.75468   0.11887   0.00000  Uiso   1.00
H162   H     0.86648   0.22088   0.18374   0.00000  Uiso   1.00
H163   H     0.77811   0.28793   0.34908   0.00000  Uiso   1.00
H164   H     0.86866   0.36724   0.03501   0.00000  Uiso   1.00
H165   H     0.96997   0.03002   0.17296   0.00000  Uiso   1.00
H166   H     0.65288   0.32682   0.52308   0.00000  Uiso   1.00
H167   H     0.84382   0.49401   0.86084   0.00000  Uiso   1.00
H168   H     0.05747   0.78291   0.15174   0.00000  Uiso   1.00
H169   H     0.65658   0.94738   0.11224   0.00000  Uiso   1.00
H170   H     0.55668   0.99942   0.27366   0.00000  Uiso   1.00
H171   H     0.64723   0.07873   0.95959   0.00000  Uiso   1.00
H172   H     0.74854   0.74151   0.09754   0.00000  Uiso   1.00
H173   H     0.47316   0.09265   0.46187   0.00000  Uiso   1.00
H174   H     0.66411   0.25985   0.79962   0.00000  Uiso   1.00
H175   H     0.87775   0.54875   0.09053   0.00000  Uiso   1.00
O176   O     0.50109   0.24894   0.59994   0.00000  Uiso   1.00
O177   O     0.75161   0.46827   0.73109   0.00000  Uiso   1.00
O178   O     0.03190   0.53533   0.11275   0.00000  Uiso   1.00
N179   N     0.62430   0.26454   0.48653   0.00000  Uiso   1.00
N180   N     0.80281   0.42087   0.86739   0.00000  Uiso   1.00
N181   N     0.00256   0.75606   0.13932   0.00000  Uiso   1.00
N182   N     0.52760   0.13854   0.45360   0.00000  Uiso   1.00
N183   N     0.70610   0.29487   0.83445   0.00000  Uiso   1.00
N184   N     0.90585   0.63006   0.10639   0.00000  Uiso   1.00
