data_job_06547
_audit_creation_date              2018-12-19
_audit_creation_method            'Materials Studio'
_symmetry_space_group_name_H-M    'P1'
_symmetry_Int_Tables_number       1
_symmetry_cell_setting            triclinic
loop_
_symmetry_equiv_pos_as_xyz
  x,y,z
_cell_length_a                    18.0900
_cell_length_b                    21.3858
_cell_length_c                    23.3295
_cell_angle_alpha                 114.3408
_cell_angle_beta                  111.4343
_cell_angle_gamma                 66.1730
loop_
_atom_site_label
_atom_site_type_symbol
_atom_site_fract_x
_atom_site_fract_y
_atom_site_fract_z
_atom_site_U_iso_or_equiv
_atom_site_adp_type
_atom_site_occupancy
C1     C     0.27259   0.37498   0.30358   0.00000  Uiso   1.00
C2     C     0.34668   0.36118   0.35996   0.00000  Uiso   1.00
C3     C     0.42871   0.35110   0.36327   0.00000  Uiso   1.00
C4     C     0.48739   0.33919   0.41900   0.00000  Uiso   1.00
C5     C     0.60589   0.31800   0.49883   0.00000  Uiso   1.00
C6     C     0.23204   0.31626   0.28229   0.00000  Uiso   1.00
C7     C     0.21767   0.26842   0.22031   0.00000  Uiso   1.00
C8     C     0.17983   0.21870   0.21065   0.00000  Uiso   1.00
C9     C     0.12029   0.12780   0.16990   0.00000  Uiso   1.00
C10    C     0.21049   0.44528   0.33226   0.00000  Uiso   1.00
C11    C     0.17799   0.50590   0.31228   0.00000  Uiso   1.00
C12    C     0.12200   0.56480   0.34468   0.00000  Uiso   1.00
C13    C     0.02901   0.67422   0.38152   0.00000  Uiso   1.00
C14    C     0.23092   0.37176   0.39664   0.00000  Uiso   1.00
C15    C     0.32405   0.35943   0.41051   0.00000  Uiso   1.00
C16    C     0.38262   0.34754   0.46624   0.00000  Uiso   1.00
C17    C     0.46472   0.33744   0.46964   0.00000  Uiso   1.00
C18    C     0.20941   0.31451   0.33284   0.00000  Uiso   1.00
C19    C     0.17158   0.26486   0.32327   0.00000  Uiso   1.00
C20    C     0.15716   0.21695   0.26129   0.00000  Uiso   1.00
C21    C     0.18786   0.44353   0.38281   0.00000  Uiso   1.00
C22    C     0.13190   0.50234   0.41525   0.00000  Uiso   1.00
C23    C     0.09933   0.56305   0.39532   0.00000  Uiso   1.00
H24    H     0.29020   0.37634   0.26422   0.00000  Uiso   1.00
H25    H     0.44620   0.35245   0.32414   0.00000  Uiso   1.00
H26    H     0.23518   0.26979   0.18120   0.00000  Uiso   1.00
H27    H     0.19552   0.50724   0.27316   0.00000  Uiso   1.00
H28    H     0.60917   0.32517   0.41286   0.00000  Uiso   1.00
H29    H     0.16421   0.15089   0.11145   0.00000  Uiso   1.00
H30    H     0.08057   0.65159   0.30536   0.00000  Uiso   1.00
H31    H     0.21331   0.37040   0.43600   0.00000  Uiso   1.00
H32    H     0.36509   0.34619   0.50535   0.00000  Uiso   1.00
H33    H     0.15407   0.26352   0.36240   0.00000  Uiso   1.00
H34    H     0.11441   0.50097   0.45436   0.00000  Uiso   1.00
H35    H     0.54335   0.32008   0.55993   0.00000  Uiso   1.00
H36    H     0.09837   0.14580   0.25852   0.00000  Uiso   1.00
H37    H     0.01474   0.64651   0.45243   0.00000  Uiso   1.00
O38    O     0.67750   0.30678   0.52890   0.00000  Uiso   1.00
O39    O     0.09370   0.07814   0.13346   0.00000  Uiso   1.00
O40    O     0.98397   0.73505   0.38788   0.00000  Uiso   1.00
N41    N     0.57285   0.32731   0.43796   0.00000  Uiso   1.00
N42    N     0.15684   0.16436   0.15616   0.00000  Uiso   1.00
N43    N     0.07863   0.63247   0.33744   0.00000  Uiso   1.00
N44    N     0.53743   0.32457   0.51710   0.00000  Uiso   1.00
N45    N     0.12142   0.16162   0.23530   0.00000  Uiso   1.00
N46    N     0.04321   0.62973   0.41658   0.00000  Uiso   1.00
C47    C     0.56836   0.75645   0.99296   0.00000  Uiso   1.00
C48    C     0.61716   0.71135   0.94070   0.00000  Uiso   1.00
C49    C     0.65782   0.73615   0.91817   0.00000  Uiso   1.00
C50    C     0.69897   0.68643   0.87016   0.00000  Uiso   1.00
C51    C     0.77466   0.62735   0.79273   0.00000  Uiso   1.00
C52    C     0.48119   0.74820   0.96226   0.00000  Uiso   1.00
C53    C     0.40753   0.80399   0.95787   0.00000  Uiso   1.00
C54    C     0.33422   0.78528   0.92801   0.00000  Uiso   1.00
C55    C     0.19881   0.78342   0.88410   0.00000  Uiso   1.00
C56    C     0.60724   0.71905   0.04492   0.00000  Uiso   1.00
C57    C     0.63953   0.75034   0.11004   0.00000  Uiso   1.00
C58    C     0.67232   0.70711   0.14977   0.00000  Uiso   1.00
C59    C     0.73261   0.65999   0.23420   0.00000  Uiso   1.00
C60    C     0.56914   0.62403   0.94774   0.00000  Uiso   1.00
C61    C     0.61759   0.63943   0.91614   0.00000  Uiso   1.00
C62    C     0.65869   0.58965   0.86815   0.00000  Uiso   1.00
C63    C     0.69940   0.61438   0.84556   0.00000  Uiso   1.00
C64    C     0.48162   0.67628   0.93770   0.00000  Uiso   1.00
C65    C     0.40840   0.65749   0.90785   0.00000  Uiso   1.00
C66    C     0.33465   0.71323   0.90341   0.00000  Uiso   1.00
C67    C     0.60767   0.64713   0.02036   0.00000  Uiso   1.00
C68    C     0.64041   0.60384   0.06001   0.00000  Uiso   1.00
C69    C     0.67275   0.63506   0.12517   0.00000  Uiso   1.00
H70    H     0.56802   0.81244   0.01207   0.00000  Uiso   1.00
H71    H     0.65747   0.79181   0.93719   0.00000  Uiso   1.00
H72    H     0.40722   0.85964   0.97688   0.00000  Uiso   1.00
H73    H     0.63919   0.80600   0.12902   0.00000  Uiso   1.00
H74    H     0.75680   0.73723   0.84331   0.00000  Uiso   1.00
H75    H     0.22914   0.88025   0.92703   0.00000  Uiso   1.00
H76    H     0.71829   0.76714   0.24785   0.00000  Uiso   1.00
H77    H     0.56947   0.56804   0.92862   0.00000  Uiso   1.00
H78    H     0.65901   0.53400   0.84916   0.00000  Uiso   1.00
H79    H     0.40875   0.60183   0.88885   0.00000  Uiso   1.00
H80    H     0.64073   0.54819   0.04099   0.00000  Uiso   1.00
H81    H     0.75805   0.52798   0.77186   0.00000  Uiso   1.00
H82    H     0.23038   0.67100   0.85559   0.00000  Uiso   1.00
H83    H     0.71954   0.55789   0.17640   0.00000  Uiso   1.00
O84    O     0.81627   0.61463   0.75680   0.00000  Uiso   1.00
O85    O     0.12400   0.80226   0.86665   0.00000  Uiso   1.00
O86    O     0.76576   0.65387   0.28755   0.00000  Uiso   1.00
N87    N     0.74482   0.69265   0.83741   0.00000  Uiso   1.00
N88    N     0.25149   0.82636   0.91568   0.00000  Uiso   1.00
N89    N     0.70878   0.72063   0.21562   0.00000  Uiso   1.00
N90    N     0.74549   0.58006   0.79897   0.00000  Uiso   1.00
N91    N     0.25216   0.71377   0.87723   0.00000  Uiso   1.00
N92    N     0.70946   0.60803   0.17717   0.00000  Uiso   1.00
C93    C     0.41507   0.94845   0.58799   0.00000  Uiso   1.00
C94    C     0.42375   0.00922   0.57510   0.00000  Uiso   1.00
C95    C     0.49796   0.02191   0.58616   0.00000  Uiso   1.00
C96    C     0.49272   0.08027   0.57121   0.00000  Uiso   1.00
C97    C     0.51786   0.16795   0.55504   0.00000  Uiso   1.00
C98    C     0.35652   0.98440   0.63339   0.00000  Uiso   1.00
C99    C     0.37421   0.97621   0.69346   0.00000  Uiso   1.00
C100   C     0.31237   0.01368   0.72757   0.00000  Uiso   1.00
C101   C     0.23311   0.06278   0.80188   0.00000  Uiso   1.00
C102   C     0.36813   0.90731   0.52382   0.00000  Uiso   1.00
C103   C     0.39557   0.83430   0.49176   0.00000  Uiso   1.00
C104   C     0.34349   0.80686   0.43363   0.00000  Uiso   1.00
C105   C     0.28227   0.73627   0.33781   0.00000  Uiso   1.00
C106   C     0.27380   0.02954   0.54177   0.00000  Uiso   1.00
C107   C     0.34701   0.05326   0.54999   0.00000  Uiso   1.00
C108   C     0.34166   0.11162   0.53502   0.00000  Uiso   1.00
C109   C     0.41585   0.12439   0.54606   0.00000  Uiso   1.00
C110   C     0.27979   0.02844   0.60829   0.00000  Uiso   1.00
C111   C     0.21791   0.06592   0.64232   0.00000  Uiso   1.00
C112   C     0.23549   0.05780   0.70242   0.00000  Uiso   1.00
C113   C     0.29140   0.95135   0.49871   0.00000  Uiso   1.00
C114   C     0.23927   0.92402   0.44062   0.00000  Uiso   1.00
C115   C     0.26662   0.85098   0.40848   0.00000  Uiso   1.00
H116   H     0.47481   0.91416   0.60754   0.00000  Uiso   1.00
H117   H     0.55733   0.98782   0.60560   0.00000  Uiso   1.00
H118   H     0.43359   0.94212   0.71287   0.00000  Uiso   1.00
H119   H     0.45495   0.80024   0.51121   0.00000  Uiso   1.00
H120   H     0.61498   0.08891   0.59239   0.00000  Uiso   1.00
H121   H     0.35405   0.99254   0.81857   0.00000  Uiso   1.00
H122   H     0.39910   0.69335   0.39333   0.00000  Uiso   1.00
H123   H     0.21406   0.06383   0.52222   0.00000  Uiso   1.00
H124   H     0.28227   0.14569   0.51560   0.00000  Uiso   1.00
H125   H     0.15853   0.10000   0.62287   0.00000  Uiso   1.00
H126   H     0.17989   0.95811   0.42121   0.00000  Uiso   1.00
H127   H     0.39173   0.21705   0.51935   0.00000  Uiso   1.00
H128   H     0.13081   0.12068   0.74553   0.00000  Uiso   1.00
H129   H     0.17585   0.82149   0.32028   0.00000  Uiso   1.00
O130   O     0.55293   0.20415   0.55307   0.00000  Uiso   1.00
O131   O     0.21061   0.07770   0.84981   0.00000  Uiso   1.00
O132   O     0.26970   0.68517   0.29189   0.00000  Uiso   1.00
N133   N     0.55307   0.10782   0.57610   0.00000  Uiso   1.00
N134   N     0.30913   0.01773   0.78757   0.00000  Uiso   1.00
N135   N     0.35124   0.73801   0.39001   0.00000  Uiso   1.00
N136   N     0.43295   0.17678   0.53679   0.00000  Uiso   1.00
N137   N     0.18901   0.08668   0.74827   0.00000  Uiso   1.00
N138   N     0.23111   0.80696   0.35070   0.00000  Uiso   1.00
C139   C     0.17826   0.57418   0.91192   0.00000  Uiso   1.00
C140   C     0.24838   0.56953   0.97262   0.00000  Uiso   1.00
C141   C     0.31794   0.59205   0.99089   0.00000  Uiso   1.00
C142   C     0.37498   0.58320   0.04814   0.00000  Uiso   1.00
C143   C     0.48568   0.58063   0.13669   0.00000  Uiso   1.00
C144   C     0.09826   0.61696   0.93532   0.00000  Uiso   1.00
C145   C     0.04161   0.67935   0.92223   0.00000  Uiso   1.00
C146   C     0.97227   0.71041   0.94808   0.00000  Uiso   1.00
C147   C     0.84989   0.78145   0.97869   0.00000  Uiso   1.00
C148   C     0.17277   0.49783   0.87523   0.00000  Uiso   1.00
C149   C     0.17874   0.46006   0.81160   0.00000  Uiso   1.00
C150   C     0.17211   0.39083   0.78684   0.00000  Uiso   1.00
C151   C     0.16541   0.27689   0.72415   0.00000  Uiso   1.00
C152   C     0.15584   0.51841   0.98110   0.00000  Uiso   1.00
C153   C     0.23619   0.53925   0.01019   0.00000  Uiso   1.00
C154   C     0.29314   0.53036   0.06743   0.00000  Uiso   1.00
C155   C     0.36278   0.55286   0.08578   0.00000  Uiso   1.00
C156   C     0.08608   0.58667   0.97290   0.00000  Uiso   1.00
C157   C     0.01680   0.61765   0.99877   0.00000  Uiso   1.00
C158   C     0.96007   0.68007   0.98572   0.00000  Uiso   1.00
C159   C     0.16059   0.46754   0.91280   0.00000  Uiso   1.00
C160   C     0.15394   0.39836   0.88814   0.00000  Uiso   1.00
C161   C     0.15990   0.36049   0.82449   0.00000  Uiso   1.00
H162   H     0.18773   0.59776   0.88266   0.00000  Uiso   1.00
H163   H     0.32734   0.61550   0.96180   0.00000  Uiso   1.00
H164   H     0.05105   0.70277   0.89314   0.00000  Uiso   1.00
H165   H     0.18816   0.48351   0.78253   0.00000  Uiso   1.00
H166   H     0.47674   0.62183   0.06611   0.00000  Uiso   1.00
H167   H     0.89415   0.80584   0.92133   0.00000  Uiso   1.00
H168   H     0.18327   0.34349   0.68809   0.00000  Uiso   1.00
H169   H     0.14635   0.49483   0.01035   0.00000  Uiso   1.00
H170   H     0.28370   0.50691   0.09650   0.00000  Uiso   1.00
H171   H     0.00740   0.59419   0.02784   0.00000  Uiso   1.00
H172   H     0.14451   0.37494   0.91723   0.00000  Uiso   1.00
H173   H     0.44131   0.53370   0.17544   0.00000  Uiso   1.00
H174   H     0.85871   0.71771   0.03066   0.00000  Uiso   1.00
H175   H     0.14784   0.25536   0.79742   0.00000  Uiso   1.00
O176   O     0.55011   0.58759   0.17515   0.00000  Uiso   1.00
O177   O     0.78576   0.82900   0.98519   0.00000  Uiso   1.00
O178   O     0.16509   0.22241   0.67919   0.00000  Uiso   1.00
N179   N     0.44956   0.59941   0.08002   0.00000  Uiso   1.00
N180   N     0.90488   0.77146   0.94466   0.00000  Uiso   1.00
N181   N     0.17516   0.33921   0.72660   0.00000  Uiso   1.00
N182   N     0.43050   0.55199   0.13884   0.00000  Uiso   1.00
N183   N     0.88581   0.72404   0.00349   0.00000  Uiso   1.00
N184   N     0.15610   0.29179   0.78542   0.00000  Uiso   1.00
C185   C     0.83009   0.30660   0.36708   0.00000  Uiso   1.00
C186   C     0.83745   0.36384   0.34829   0.00000  Uiso   1.00
C187   C     0.90690   0.36108   0.33392   0.00000  Uiso   1.00
C188   C     0.90123   0.41881   0.31782   0.00000  Uiso   1.00
C189   C     0.92367   0.49881   0.28886   0.00000  Uiso   1.00
C190   C     0.75444   0.28458   0.31855   0.00000  Uiso   1.00
C191   C     0.75410   0.21517   0.27919   0.00000  Uiso   1.00
C192   C     0.67854   0.20618   0.23806   0.00000  Uiso   1.00
C193   C     0.57210   0.16311   0.16296   0.00000  Uiso   1.00
C194   C     0.80684   0.34499   0.43230   0.00000  Uiso   1.00
C195   C     0.85056   0.32636   0.48859   0.00000  Uiso   1.00
C196   C     0.81911   0.36822   0.54323   0.00000  Uiso   1.00
C197   C     0.79404   0.41894   0.64475   0.00000  Uiso   1.00
C198   C     0.69650   0.41404   0.36402   0.00000  Uiso   1.00
C199   C     0.76488   0.42220   0.34663   0.00000  Uiso   1.00
C200   C     0.75910   0.47995   0.33055   0.00000  Uiso   1.00
C201   C     0.82854   0.47728   0.31616   0.00000  Uiso   1.00
C202   C     0.68188   0.34294   0.31689   0.00000  Uiso   1.00
C203   C     0.60630   0.33405   0.27581   0.00000  Uiso   1.00
C204   C     0.60585   0.26464   0.23639   0.00000  Uiso   1.00
C205   C     0.73428   0.40335   0.43064   0.00000  Uiso   1.00
C206   C     0.70276   0.44524   0.48521   0.00000  Uiso   1.00
C207   C     0.74642   0.42668   0.54156   0.00000  Uiso   1.00
H208   H     0.88658   0.26116   0.36837   0.00000  Uiso   1.00
H209   H     0.96304   0.31590   0.33521   0.00000  Uiso   1.00
H210   H     0.81026   0.17002   0.28049   0.00000  Uiso   1.00
H211   H     0.90671   0.28120   0.48985   0.00000  Uiso   1.00
H212   H     0.01581   0.40233   0.29769   0.00000  Uiso   1.00
H213   H     0.69365   0.09472   0.18232   0.00000  Uiso   1.00
H214   H     0.89702   0.32915   0.62381   0.00000  Uiso   1.00
H215   H     0.64000   0.45947   0.36273   0.00000  Uiso   1.00
H216   H     0.70294   0.52511   0.32927   0.00000  Uiso   1.00
H217   H     0.55016   0.37922   0.27454   0.00000  Uiso   1.00
H218   H     0.64660   0.49039   0.48391   0.00000  Uiso   1.00
H219   H     0.80469   0.57212   0.29286   0.00000  Uiso   1.00
H220   H     0.48254   0.26451   0.17750   0.00000  Uiso   1.00
H221   H     0.68591   0.49894   0.61898   0.00000  Uiso   1.00
O222   O     0.95609   0.52681   0.27334   0.00000  Uiso   1.00
O223   O     0.53343   0.12324   0.12199   0.00000  Uiso   1.00
O224   O     0.80026   0.43080   0.70121   0.00000  Uiso   1.00
N225   N     0.95749   0.43329   0.30116   0.00000  Uiso   1.00
N226   N     0.65630   0.14569   0.19329   0.00000  Uiso   1.00
N227   N     0.84642   0.36485   0.60604   0.00000  Uiso   1.00
N228   N     0.84389   0.52465   0.29856   0.00000  Uiso   1.00
N229   N     0.54270   0.23706   0.19069   0.00000  Uiso   1.00
N230   N     0.73282   0.45622   0.60344   0.00000  Uiso   1.00
C231   C     0.97843   0.99609   0.70628   0.00000  Uiso   1.00
C232   C     0.01160   0.94737   0.64604   0.00000  Uiso   1.00
C233   C     0.09289   0.92768   0.64158   0.00000  Uiso   1.00
C234   C     0.11082   0.88267   0.58220   0.00000  Uiso   1.00
C235   C     0.17165   0.81071   0.49672   0.00000  Uiso   1.00
C236   C     0.94072   0.95279   0.71967   0.00000  Uiso   1.00
C237   C     0.96240   0.93766   0.77713   0.00000  Uiso   1.00
C238   C     0.92064   0.89721   0.77974   0.00000  Uiso   1.00
C239   C     0.87138   0.83369   0.80860   0.00000  Uiso   1.00
C240   C     0.90572   0.05732   0.68631   0.00000  Uiso   1.00
C241   C     0.89796   0.13009   0.71573   0.00000  Uiso   1.00
C242   C     0.82673   0.17766   0.69026   0.00000  Uiso   1.00
C243   C     0.72313   0.27645   0.66732   0.00000  Uiso   1.00
C244   C     0.86571   0.95117   0.60876   0.00000  Uiso   1.00
C245   C     0.95038   0.92297   0.59307   0.00000  Uiso   1.00
C246   C     0.96818   0.87798   0.53368   0.00000  Uiso   1.00
C247   C     0.04948   0.85823   0.52913   0.00000  Uiso   1.00
C248   C     0.87950   0.92838   0.66671   0.00000  Uiso   1.00
C249   C     0.83769   0.88795   0.66923   0.00000  Uiso   1.00
C250   C     0.85930   0.87276   0.72668   0.00000  Uiso   1.00
C251   C     0.84450   0.03292   0.63334   0.00000  Uiso   1.00
C252   C     0.77326   0.08038   0.60783   0.00000  Uiso   1.00
C253   C     0.76539   0.15321   0.63720   0.00000  Uiso   1.00
H254   H     0.02609   0.01509   0.74753   0.00000  Uiso   1.00
H255   H     0.14026   0.94657   0.68258   0.00000  Uiso   1.00
H256   H     0.00977   0.95655   0.81812   0.00000  Uiso   1.00
H257   H     0.94535   0.14895   0.75672   0.00000  Uiso   1.00
H258   H     0.23984   0.85983   0.58723   0.00000  Uiso   1.00
H259   H     0.96469   0.88089   0.87302   0.00000  Uiso   1.00
H260   H     0.82884   0.28661   0.74355   0.00000  Uiso   1.00
H261   H     0.81804   0.93217   0.56752   0.00000  Uiso   1.00
H262   H     0.92079   0.85910   0.49270   0.00000  Uiso   1.00
H263   H     0.79031   0.86908   0.62823   0.00000  Uiso   1.00
H264   H     0.72589   0.06148   0.56683   0.00000  Uiso   1.00
H265   H     0.06171   0.78883   0.43311   0.00000  Uiso   1.00
H266   H     0.78656   0.80990   0.71890   0.00000  Uiso   1.00
H267   H     0.65072   0.21561   0.58943   0.00000  Uiso   1.00
O268   O     0.22213   0.77774   0.46420   0.00000  Uiso   1.00
O269   O     0.86113   0.80539   0.83915   0.00000  Uiso   1.00
O270   O     0.68291   0.33768   0.66929   0.00000  Uiso   1.00
N271   N     0.18381   0.85316   0.56122   0.00000  Uiso   1.00
N272   N     0.92657   0.87284   0.82842   0.00000  Uiso   1.00
N273   N     0.79956   0.25216   0.70739   0.00000  Uiso   1.00
N274   N     0.08796   0.81496   0.47829   0.00000  Uiso   1.00
N275   N     0.83072   0.83464   0.74549   0.00000  Uiso   1.00
N276   N     0.70371   0.21395   0.62445   0.00000  Uiso   1.00
C277   C     0.91511   0.56152   0.62957   0.00000  Uiso   1.00
C278   C     0.82929   0.58342   0.58564   0.00000  Uiso   1.00
C279   C     0.75376   0.60338   0.60062   0.00000  Uiso   1.00
C280   C     0.68214   0.62154   0.55391   0.00000  Uiso   1.00
C281   C     0.54829   0.65585   0.49476   0.00000  Uiso   1.00
C282   C     0.96055   0.61195   0.63707   0.00000  Uiso   1.00
C283   C     0.99540   0.65589   0.69529   0.00000  Uiso   1.00
C284   C     0.03429   0.69806   0.69187   0.00000  Uiso   1.00
C285   C     0.10429   0.77663   0.71257   0.00000  Uiso   1.00
C286   C     0.96036   0.48698   0.59089   0.00000  Uiso   1.00
C287   C     0.99507   0.42583   0.61030   0.00000  Uiso   1.00
C288   C     0.03381   0.36279   0.56801   0.00000  Uiso   1.00
C289   C     0.10351   0.24731   0.51702   0.00000  Uiso   1.00
C290   C     0.92221   0.55829   0.51996   0.00000  Uiso   1.00
C291   C     0.83315   0.58167   0.52610   0.00000  Uiso   1.00
C292   C     0.76162   0.59980   0.47935   0.00000  Uiso   1.00
C293   C     0.68600   0.61978   0.49427   0.00000  Uiso   1.00
C294   C     0.96441   0.61020   0.57753   0.00000  Uiso   1.00
C295   C     0.00326   0.65232   0.57402   0.00000  Uiso   1.00
C296   C     0.03816   0.69631   0.63223   0.00000  Uiso   1.00
C297   C     0.96421   0.48522   0.53135   0.00000  Uiso   1.00
C298   C     0.00292   0.42226   0.48903   0.00000  Uiso   1.00
C299   C     0.03768   0.36103   0.50836   0.00000  Uiso   1.00
H300   H     0.91211   0.56289   0.67592   0.00000  Uiso   1.00
H301   H     0.75080   0.60473   0.64671   0.00000  Uiso   1.00
H302   H     0.99241   0.65723   0.74136   0.00000  Uiso   1.00
H303   H     0.99207   0.42721   0.65637   0.00000  Uiso   1.00
H304   H     0.57367   0.65038   0.58807   0.00000  Uiso   1.00
H305   H     0.08314   0.76105   0.78765   0.00000  Uiso   1.00
H306   H     0.08242   0.27601   0.60845   0.00000  Uiso   1.00
H307   H     0.92522   0.55693   0.47361   0.00000  Uiso   1.00
H308   H     0.76463   0.59844   0.43328   0.00000  Uiso   1.00
H309   H     0.00624   0.65094   0.52794   0.00000  Uiso   1.00
H310   H     0.00589   0.42092   0.44296   0.00000  Uiso   1.00
H311   H     0.58489   0.64528   0.41485   0.00000  Uiso   1.00
H312   H     0.09436   0.75595   0.61443   0.00000  Uiso   1.00
H313   H     0.09364   0.27091   0.43523   0.00000  Uiso   1.00
O314   O     0.47340   0.67527   0.47859   0.00000  Uiso   1.00
O315   O     0.14182   0.82045   0.74044   0.00000  Uiso   1.00
O316   O     0.14087   0.18410   0.50533   0.00000  Uiso   1.00
N317   N     0.59835   0.64347   0.55283   0.00000  Uiso   1.00
N318   N     0.07466   0.74695   0.73943   0.00000  Uiso   1.00
N319   N     0.07401   0.29348   0.57190   0.00000  Uiso   1.00
N320   N     0.60438   0.64072   0.45962   0.00000  Uiso   1.00
N321   N     0.08070   0.74420   0.64622   0.00000  Uiso   1.00
N322   N     0.08005   0.29074   0.47869   0.00000  Uiso   1.00
C323   C     0.45117   0.15775   0.93378   0.00000  Uiso   1.00
C324   C     0.40807   0.21786   0.98572   0.00000  Uiso   1.00
C325   C     0.33934   0.22014   0.00073   0.00000  Uiso   1.00
C326   C     0.30915   0.27978   0.04983   0.00000  Uiso   1.00
C327   C     0.23657   0.36468   0.12550   0.00000  Uiso   1.00
C328   C     0.54211   0.13166   0.96824   0.00000  Uiso   1.00
C329   C     0.58608   0.06147   0.96855   0.00000  Uiso   1.00
C330   C     0.66873   0.04856   0.00294   0.00000  Uiso   1.00
C331   C     0.80427   0.99963   0.05145   0.00000  Uiso   1.00
C332   C     0.45036   0.19353   0.88885   0.00000  Uiso   1.00
C333   C     0.41721   0.17535   0.82240   0.00000  Uiso   1.00
C334   C     0.42263   0.21451   0.78995   0.00000  Uiso   1.00
C335   C     0.41571   0.26165   0.71518   0.00000  Uiso   1.00
C336   C     0.51977   0.25962   0.99429   0.00000  Uiso   1.00
C337   C     0.44533   0.27319   0.01859   0.00000  Uiso   1.00
C338   C     0.41523   0.33285   0.06768   0.00000  Uiso   1.00
C339   C     0.34647   0.33522   0.08276   0.00000  Uiso   1.00
C340   C     0.57937   0.18699   0.00111   0.00000  Uiso   1.00
C341   C     0.66197   0.17418   0.03551   0.00000  Uiso   1.00
C342   C     0.70606   0.10399   0.03587   0.00000  Uiso   1.00
C343   C     0.48761   0.24887   0.92172   0.00000  Uiso   1.00
C344   C     0.49310   0.28806   0.88936   0.00000  Uiso   1.00
C345   C     0.45995   0.26994   0.82287   0.00000  Uiso   1.00
H346   H     0.42217   0.11467   0.90819   0.00000  Uiso   1.00
H347   H     0.31053   0.17730   0.97528   0.00000  Uiso   1.00
H348   H     0.55723   0.01866   0.94311   0.00000  Uiso   1.00
H349   H     0.38838   0.13253   0.79698   0.00000  Uiso   1.00
H350   H     0.20320   0.27114   0.06418   0.00000  Uiso   1.00
H351   H     0.72340   0.93663   0.99632   0.00000  Uiso   1.00
H352   H     0.36734   0.17673   0.68818   0.00000  Uiso   1.00
H353   H     0.54878   0.30270   0.01989   0.00000  Uiso   1.00
H354   H     0.44408   0.37566   0.09311   0.00000  Uiso   1.00
H355   H     0.69079   0.21701   0.06093   0.00000  Uiso   1.00
H356   H     0.52193   0.33088   0.91481   0.00000  Uiso   1.00
H357   H     0.31160   0.43212   0.15982   0.00000  Uiso   1.00
H358   H     0.83180   0.09761   0.09195   0.00000  Uiso   1.00
H359   H     0.47574   0.33772   0.78382   0.00000  Uiso   1.00
O360   O     0.18626   0.39622   0.15817   0.00000  Uiso   1.00
O361   O     0.86874   0.95735   0.06912   0.00000  Uiso   1.00
O362   O     0.40160   0.27237   0.66486   0.00000  Uiso   1.00
N363   N     0.24307   0.29902   0.07663   0.00000  Uiso   1.00
N364   N     0.72942   0.98627   0.01319   0.00000  Uiso   1.00
N365   N     0.39656   0.21074   0.72511   0.00000  Uiso   1.00
N366   N     0.30140   0.38565   0.12809   0.00000  Uiso   1.00
N367   N     0.78775   0.07290   0.06465   0.00000  Uiso   1.00
N368   N     0.45488   0.29736   0.77657   0.00000  Uiso   1.00
C369   C     0.66991   0.03479   0.38599   0.00000  Uiso   1.00
C370   C     0.67582   0.97452   0.40790   0.00000  Uiso   1.00
C371   C     0.61572   0.97267   0.43034   0.00000  Uiso   1.00
C372   C     0.63288   0.91277   0.44802   0.00000  Uiso   1.00
C373   C     0.63069   0.82770   0.48271   0.00000  Uiso   1.00
C374   C     0.68168   0.99945   0.31699   0.00000  Uiso   1.00
C375   C     0.62650   0.01856   0.26299   0.00000  Uiso   1.00
C376   C     0.64860   0.97965   0.20414   0.00000  Uiso   1.00
C377   C     0.65553   0.93331   0.09770   0.00000  Uiso   1.00
C378   C     0.74638   0.05976   0.42726   0.00000  Uiso   1.00
C379   C     0.74561   0.12958   0.46596   0.00000  Uiso   1.00
C380   C     0.82219   0.14145   0.49994   0.00000  Uiso   1.00
C381   C     0.92957   0.18875   0.56470   0.00000  Uiso   1.00
C382   C     0.80729   0.93172   0.37750   0.00000  Uiso   1.00
C383   C     0.75044   0.91854   0.40328   0.00000  Uiso   1.00
C384   C     0.76771   0.85864   0.42094   0.00000  Uiso   1.00
C385   C     0.70764   0.85670   0.44340   0.00000  Uiso   1.00
C386   C     0.75629   0.94347   0.31237   0.00000  Uiso   1.00
C387   C     0.77849   0.90453   0.25359   0.00000  Uiso   1.00
C388   C     0.72336   0.92357   0.19952   0.00000  Uiso   1.00
C389   C     0.82100   0.00378   0.42264   0.00000  Uiso   1.00
C390   C     0.89760   0.01555   0.45656   0.00000  Uiso   1.00
C391   C     0.89694   0.08537   0.49531   0.00000  Uiso   1.00
H392   H     0.61182   0.07837   0.38958   0.00000  Uiso   1.00
H393   H     0.55797   0.01600   0.43389   0.00000  Uiso   1.00
H394   H     0.56876   0.06188   0.26658   0.00000  Uiso   1.00
H395   H     0.68785   0.17288   0.46952   0.00000  Uiso   1.00
H396   H     0.53117   0.92215   0.48097   0.00000  Uiso   1.00
H397   H     0.55393   0.01892   0.12818   0.00000  Uiso   1.00
H398   H     0.80505   0.25299   0.55611   0.00000  Uiso   1.00
H399   H     0.86539   0.88814   0.37390   0.00000  Uiso   1.00
H400   H     0.82546   0.81533   0.41736   0.00000  Uiso   1.00
H401   H     0.83624   0.86122   0.25004   0.00000  Uiso   1.00
H402   H     0.95533   0.97222   0.45298   0.00000  Uiso   1.00
H403   H     0.74827   0.75927   0.46755   0.00000  Uiso   1.00
H404   H     0.77102   0.85605   0.11475   0.00000  Uiso   1.00
H405   H     0.02215   0.09012   0.54269   0.00000  Uiso   1.00
O406   O     0.60886   0.79623   0.50311   0.00000  Uiso   1.00
O407   O     0.63873   0.92321   0.04026   0.00000  Uiso   1.00
O408   O     0.96819   0.23030   0.60170   0.00000  Uiso   1.00
N409   N     0.58775   0.89381   0.47186   0.00000  Uiso   1.00
N410   N     0.60902   0.98428   0.14202   0.00000  Uiso   1.00
N411   N     0.84380   0.20312   0.54209   0.00000  Uiso   1.00
N412   N     0.70457   0.80617   0.46464   0.00000  Uiso   1.00
N413   N     0.72584   0.89665   0.13480   0.00000  Uiso   1.00
N414   N     0.96062   0.11549   0.53487   0.00000  Uiso   1.00
C415   C     0.90173   0.33574   0.03037   0.00000  Uiso   1.00
C416   C     0.83552   0.34912   0.96994   0.00000  Uiso   1.00
C417   C     0.75121   0.35956   0.95871   0.00000  Uiso   1.00
C418   C     0.70085   0.37096   0.90041   0.00000  Uiso   1.00
C419   C     0.59305   0.39156   0.81347   0.00000  Uiso   1.00
C420   C     0.96681   0.26509   0.00661   0.00000  Uiso   1.00
C421   C     0.99288   0.20489   0.02622   0.00000  Uiso   1.00
C422   C     0.05304   0.14556   0.99879   0.00000  Uiso   1.00
C423   C     0.14911   0.03573   0.96882   0.00000  Uiso   1.00
C424   C     0.94431   0.39414   0.05730   0.00000  Uiso   1.00
C425   C     0.95150   0.44245   0.11953   0.00000  Uiso   1.00
C426   C     0.99274   0.49177   0.13478   0.00000  Uiso   1.00
C427   C     0.05388   0.58231   0.18349   0.00000  Uiso   1.00
C428   C     0.96222   0.33741   0.94681   0.00000  Uiso   1.00
C429   C     0.86838   0.35002   0.92455   0.00000  Uiso   1.00
C430   C     0.81813   0.36141   0.86626   0.00000  Uiso   1.00
C431   C     0.73376   0.37187   0.85494   0.00000  Uiso   1.00
C432   C     0.99967   0.26599   0.96122   0.00000  Uiso   1.00
C433   C     0.05981   0.20674   0.93377   0.00000  Uiso   1.00
C434   C     0.08596   0.14647   0.95332   0.00000  Uiso   1.00
C435   C     0.97717   0.39505   0.01191   0.00000  Uiso   1.00
C436   C     0.01842   0.44430   0.02707   0.00000  Uiso   1.00
C437   C     0.02565   0.49267   0.08931   0.00000  Uiso   1.00
H438   H     0.87615   0.33503   0.06571   0.00000  Uiso   1.00
H439   H     0.72581   0.35885   0.99385   0.00000  Uiso   1.00
H440   H     0.96745   0.20421   0.06135   0.00000  Uiso   1.00
H441   H     0.92606   0.44173   0.15464   0.00000  Uiso   1.00
H442   H     0.57361   0.38563   0.89415   0.00000  Uiso   1.00
H443   H     0.08315   0.05958   0.03650   0.00000  Uiso   1.00
H444   H     0.99588   0.56044   0.23321   0.00000  Uiso   1.00
H445   H     0.98781   0.33811   0.91147   0.00000  Uiso   1.00
H446   H     0.84358   0.36211   0.83114   0.00000  Uiso   1.00
H447   H     0.08522   0.20746   0.89864   0.00000  Uiso   1.00
H448   H     0.04384   0.44498   0.99193   0.00000  Uiso   1.00
H449   H     0.66920   0.38827   0.76209   0.00000  Uiso   1.00
H450   H     0.17874   0.06222   0.90444   0.00000  Uiso   1.00
H451   H     0.09147   0.56308   0.10115   0.00000  Uiso   1.00
O452   O     0.52452   0.40266   0.77805   0.00000  Uiso   1.00
O453   O     0.19302   0.97489   0.96482   0.00000  Uiso   1.00
O454   O     0.07852   0.63201   0.22290   0.00000  Uiso   1.00
N455   N     0.61590   0.38298   0.87410   0.00000  Uiso   1.00
N456   N     0.09227   0.07813   0.00718   0.00000  Uiso   1.00
N457   N     0.01071   0.54638   0.19110   0.00000  Uiso   1.00
N458   N     0.66734   0.38440   0.80304   0.00000  Uiso   1.00
N459   N     0.14371   0.07955   0.93612   0.00000  Uiso   1.00
N460   N     0.06214   0.54780   0.12004   0.00000  Uiso   1.00
C461   C     0.28550   0.62903   0.56774   0.00000  Uiso   1.00
C462   C     0.29036   0.56678   0.58642   0.00000  Uiso   1.00
C463   C     0.22294   0.54948   0.58404   0.00000  Uiso   1.00
C464   C     0.24045   0.49051   0.60317   0.00000  Uiso   1.00
C465   C     0.23553   0.39999   0.62906   0.00000  Uiso   1.00
C466   C     0.33482   0.67391   0.62701   0.00000  Uiso   1.00
C467   C     0.30478   0.74667   0.65875   0.00000  Uiso   1.00
C468   C     0.35971   0.77788   0.71204   0.00000  Uiso   1.00
C469   C     0.42383   0.85368   0.80092   0.00000  Uiso   1.00
C470   C     0.33477   0.59574   0.51597   0.00000  Uiso   1.00
C471   C     0.30469   0.60279   0.45435   0.00000  Uiso   1.00
C472   C     0.35959   0.56820   0.41416   0.00000  Uiso   1.00
C473   C     0.42363   0.52263   0.33062   0.00000  Uiso   1.00
C474   C     0.43647   0.55509   0.60594   0.00000  Uiso   1.00
C475   C     0.37237   0.52662   0.60717   0.00000  Uiso   1.00
C476   C     0.38998   0.46766   0.62631   0.00000  Uiso   1.00
C477   C     0.32260   0.45027   0.62396   0.00000  Uiso   1.00
C478   C     0.41682   0.63375   0.64776   0.00000  Uiso   1.00
C479   C     0.47181   0.66486   0.70102   0.00000  Uiso   1.00
C480   C     0.44186   0.73765   0.73283   0.00000  Uiso   1.00
C481   C     0.41677   0.55557   0.53672   0.00000  Uiso   1.00
C482   C     0.47173   0.52097   0.49662   0.00000  Uiso   1.00
C483   C     0.44174   0.52797   0.43495   0.00000  Uiso   1.00
H484   H     0.22165   0.66030   0.55158   0.00000  Uiso   1.00
H485   H     0.15949   0.58058   0.56799   0.00000  Uiso   1.00
H486   H     0.24132   0.77774   0.64268   0.00000  Uiso   1.00
H487   H     0.24123   0.63387   0.43831   0.00000  Uiso   1.00
H488   H     0.12674   0.47449   0.59534   0.00000  Uiso   1.00
H489   H     0.29927   0.89022   0.75282   0.00000  Uiso   1.00
H490   H     0.29910   0.58686   0.32187   0.00000  Uiso   1.00
H491   H     0.50032   0.52382   0.62209   0.00000  Uiso   1.00
H492   H     0.45345   0.43659   0.64236   0.00000  Uiso   1.00
H493   H     0.53527   0.63376   0.71706   0.00000  Uiso   1.00
H494   H     0.53519   0.48990   0.51269   0.00000  Uiso   1.00
H495   H     0.36532   0.35763   0.65571   0.00000  Uiso   1.00
H496   H     0.53786   0.77336   0.81319   0.00000  Uiso   1.00
H497   H     0.53768   0.47000   0.38224   0.00000  Uiso   1.00
O498   O     0.21017   0.36116   0.63761   0.00000  Uiso   1.00
O499   O     0.43653   0.90659   0.84421   0.00000  Uiso   1.00
O500   O     0.43630   0.50858   0.27881   0.00000  Uiso   1.00
N501   N     0.18932   0.45894   0.60676   0.00000  Uiso   1.00
N502   N     0.35063   0.84763   0.75400   0.00000  Uiso   1.00
N503   N     0.35047   0.56403   0.35110   0.00000  Uiso   1.00
N504   N     0.31770   0.39606   0.63924   0.00000  Uiso   1.00
N505   N     0.47901   0.78475   0.78648   0.00000  Uiso   1.00
N506   N     0.47885   0.50114   0.38358   0.00000  Uiso   1.00
C507   C     0.28269   0.93442   0.21006   0.00000  Uiso   1.00
C508   C     0.19968   0.96403   0.22865   0.00000  Uiso   1.00
C509   C     0.12405   0.95671   0.18652   0.00000  Uiso   1.00
C510   C     0.05525   0.98770   0.21300   0.00000  Uiso   1.00
C511   C     0.92533   0.02809   0.23178   0.00000  Uiso   1.00
C512   C     0.31469   0.99869   0.23263   0.00000  Uiso   1.00
C513   C     0.33578   0.02050   0.19383   0.00000  Uiso   1.00
C514   C     0.36381   0.08066   0.22366   0.00000  Uiso   1.00
C515   C     0.41252   0.17483   0.24863   0.00000  Uiso   1.00
C516   C     0.34213   0.88717   0.25247   0.00000  Uiso   1.00
C517   C     0.38631   0.81521   0.23037   0.00000  Uiso   1.00
C518   C     0.43746   0.78147   0.27691   0.00000  Uiso   1.00
C519   C     0.52877   0.70248   0.33269   0.00000  Uiso   1.00
C520   C     0.29500   0.00246   0.33201   0.00000  Uiso   1.00
C521   C     0.20637   0.00099   0.29489   0.00000  Uiso   1.00
C522   C     0.13767   0.03199   0.32144   0.00000  Uiso   1.00
C523   C     0.06195   0.02472   0.27936   0.00000  Uiso   1.00
C524   C     0.32138   0.03565   0.29886   0.00000  Uiso   1.00
C525   C     0.34940   0.09578   0.32876   0.00000  Uiso   1.00
C526   C     0.37052   0.11768   0.29002   0.00000  Uiso   1.00
C527   C     0.34882   0.92412   0.31871   0.00000  Uiso   1.00
C528   C     0.39993   0.89049   0.36530   0.00000  Uiso   1.00
C529   C     0.44417   0.81850   0.34327   0.00000  Uiso   1.00
H530   H     0.27748   0.90565   0.15849   0.00000  Uiso   1.00
H531   H     0.11889   0.92812   0.13526   0.00000  Uiso   1.00
H532   H     0.33060   0.99189   0.14258   0.00000  Uiso   1.00
H533   H     0.38111   0.78663   0.17911   0.00000  Uiso   1.00
H534   H     0.94602   0.96934   0.13871   0.00000  Uiso   1.00
H535   H     0.39243   0.10380   0.15414   0.00000  Uiso   1.00
H536   H     0.49896   0.67097   0.23118   0.00000  Uiso   1.00
H537   H     0.30021   0.03124   0.38359   0.00000  Uiso   1.00
H538   H     0.14287   0.06059   0.37271   0.00000  Uiso   1.00
H539   H     0.35457   0.12437   0.38002   0.00000  Uiso   1.00
H540   H     0.40509   0.91911   0.41655   0.00000  Uiso   1.00
H541   H     0.96547   0.07687   0.33143   0.00000  Uiso   1.00
H542   H     0.41190   0.21133   0.34686   0.00000  Uiso   1.00
H543   H     0.51842   0.77849   0.42390   0.00000  Uiso   1.00
O544   O     0.85182   0.04017   0.22384   0.00000  Uiso   1.00
O545   O     0.43752   0.21656   0.24410   0.00000  Uiso   1.00
O546   O     0.57727   0.64870   0.34516   0.00000  Uiso   1.00
N547   N     0.97219   0.99061   0.18556   0.00000  Uiso   1.00
N548   N     0.38955   0.11633   0.19999   0.00000  Uiso   1.00
N549   N     0.48916   0.71167   0.27201   0.00000  Uiso   1.00
N550   N     0.98266   0.04847   0.28926   0.00000  Uiso   1.00
N551   N     0.40002   0.17418   0.30369   0.00000  Uiso   1.00
N552   N     0.49963   0.76952   0.37571   0.00000  Uiso   1.00
