data_job_02697
_audit_creation_date              2018-12-19
_audit_creation_method            'Materials Studio'
_symmetry_space_group_name_H-M    'P1'
_symmetry_Int_Tables_number       1
_symmetry_cell_setting            triclinic
loop_
_symmetry_equiv_pos_as_xyz
  x,y,z
_cell_length_a                    20.7529
_cell_length_b                    19.8730
_cell_length_c                    29.8569
_cell_angle_alpha                 90.0000
_cell_angle_beta                  152.1735
_cell_angle_gamma                 90.0000
loop_
_atom_site_label
_atom_site_type_symbol
_atom_site_fract_x
_atom_site_fract_y
_atom_site_fract_z
_atom_site_U_iso_or_equiv
_atom_site_adp_type
_atom_site_occupancy
C1     C     0.17557   0.90627   0.01413   0.00000  Uiso   1.00
C2     C     0.03622   0.92351   0.90767   0.00000  Uiso   1.00
C3     C     0.91209   0.89147   0.84050   0.00000  Uiso   1.00
C4     C     0.79607   0.91469   0.74668   0.00000  Uiso   1.00
C5     C     0.57849   0.93331   0.58526   0.00000  Uiso   1.00
C6     C     0.27238   0.89153   0.03458   0.00000  Uiso   1.00
C7     C     0.34683   0.83259   0.07413   0.00000  Uiso   1.00
C8     C     0.42964   0.82890   0.08716   0.00000  Uiso   1.00
C9     C     0.57878   0.79789   0.12283   0.00000  Uiso   1.00
C10    C     0.22820   0.97110   0.06782   0.00000  Uiso   1.00
C11    C     0.26554   0.97907   0.13533   0.00000  Uiso   1.00
C12    C     0.31119   0.04237   0.17636   0.00000  Uiso   1.00
C13    C     0.39173   0.13491   0.26364   0.00000  Uiso   1.00
C14    C     0.19028   0.00450   0.96696   0.00000  Uiso   1.00
C15    C     0.04421   0.97686   0.88205   0.00000  Uiso   1.00
C16    C     0.92835   0.00015   0.78831   0.00000  Uiso   1.00
C17    C     0.80407   0.96814   0.72101   0.00000  Uiso   1.00
C18    C     0.28037   0.94488   0.00896   0.00000  Uiso   1.00
C19    C     0.36310   0.94127   0.02194   0.00000  Uiso   1.00
C20    C     0.43764   0.88235   0.06149   0.00000  Uiso   1.00
C21    C     0.23619   0.02446   0.04220   0.00000  Uiso   1.00
C22    C     0.28180   0.08775   0.08314   0.00000  Uiso   1.00
C23    C     0.31919   0.09582   0.15069   0.00000  Uiso   1.00
H24    H     0.16936   0.86473   0.03408   0.00000  Uiso   1.00
H25    H     0.90595   0.85017   0.86036   0.00000  Uiso   1.00
H26    H     0.34064   0.79132   0.09396   0.00000  Uiso   1.00
H27    H     0.25935   0.93777   0.15514   0.00000  Uiso   1.00
H28    H     0.61744   0.85754   0.65644   0.00000  Uiso   1.00
H29    H     0.53403   0.73345   0.14903   0.00000  Uiso   1.00
H30    H     0.36263   0.04228   0.27806   0.00000  Uiso   1.00
H31    H     0.19650   0.04604   0.94702   0.00000  Uiso   1.00
H32    H     0.93457   0.04144   0.76851   0.00000  Uiso   1.00
H33    H     0.36926   0.98257   0.00211   0.00000  Uiso   1.00
H34    H     0.28797   0.12903   0.06329   0.00000  Uiso   1.00
H35    H     0.64067   0.01278   0.58189   0.00000  Uiso   1.00
H36    H     0.55727   0.88868   0.07449   0.00000  Uiso   1.00
H37    H     0.38586   0.19751   0.20351   0.00000  Uiso   1.00
O38    O     0.45627   0.92884   0.50330   0.00000  Uiso   1.00
O39    O     0.65882   0.76604   0.14958   0.00000  Uiso   1.00
O40    O     0.43393   0.17121   0.31885   0.00000  Uiso   1.00
N41    N     0.65885   0.89472   0.66340   0.00000  Uiso   1.00
N42    N     0.51579   0.77869   0.12393   0.00000  Uiso   1.00
N43    N     0.35558   0.06742   0.24457   0.00000  Uiso   1.00
N44    N     0.67135   0.97825   0.62328   0.00000  Uiso   1.00
N45    N     0.52829   0.86222   0.08381   0.00000  Uiso   1.00
N46    N     0.36808   0.15095   0.20446   0.00000  Uiso   1.00
C47    C     0.67557   0.40627   0.01413   0.00000  Uiso   1.00
C48    C     0.53622   0.42351   0.90767   0.00000  Uiso   1.00
C49    C     0.41209   0.39147   0.84050   0.00000  Uiso   1.00
C50    C     0.29607   0.41469   0.74668   0.00000  Uiso   1.00
C51    C     0.07849   0.43331   0.58526   0.00000  Uiso   1.00
C52    C     0.77238   0.39153   0.03458   0.00000  Uiso   1.00
C53    C     0.84683   0.33259   0.07413   0.00000  Uiso   1.00
C54    C     0.92964   0.32890   0.08716   0.00000  Uiso   1.00
C55    C     0.07878   0.29789   0.12283   0.00000  Uiso   1.00
C56    C     0.72820   0.47110   0.06782   0.00000  Uiso   1.00
C57    C     0.76554   0.47907   0.13533   0.00000  Uiso   1.00
C58    C     0.81119   0.54237   0.17636   0.00000  Uiso   1.00
C59    C     0.89173   0.63491   0.26364   0.00000  Uiso   1.00
C60    C     0.69028   0.50450   0.96696   0.00000  Uiso   1.00
C61    C     0.54421   0.47686   0.88205   0.00000  Uiso   1.00
C62    C     0.42835   0.50015   0.78831   0.00000  Uiso   1.00
C63    C     0.30407   0.46814   0.72101   0.00000  Uiso   1.00
C64    C     0.78037   0.44488   0.00896   0.00000  Uiso   1.00
C65    C     0.86310   0.44127   0.02194   0.00000  Uiso   1.00
C66    C     0.93764   0.38235   0.06149   0.00000  Uiso   1.00
C67    C     0.73619   0.52446   0.04220   0.00000  Uiso   1.00
C68    C     0.78180   0.58775   0.08314   0.00000  Uiso   1.00
C69    C     0.81919   0.59582   0.15069   0.00000  Uiso   1.00
H70    H     0.66936   0.36473   0.03408   0.00000  Uiso   1.00
H71    H     0.40595   0.35017   0.86036   0.00000  Uiso   1.00
H72    H     0.84064   0.29132   0.09396   0.00000  Uiso   1.00
H73    H     0.75935   0.43777   0.15514   0.00000  Uiso   1.00
H74    H     0.11744   0.35754   0.65644   0.00000  Uiso   1.00
H75    H     0.03403   0.23345   0.14903   0.00000  Uiso   1.00
H76    H     0.86263   0.54228   0.27806   0.00000  Uiso   1.00
H77    H     0.69650   0.54604   0.94702   0.00000  Uiso   1.00
H78    H     0.43457   0.54144   0.76851   0.00000  Uiso   1.00
H79    H     0.86926   0.48257   0.00211   0.00000  Uiso   1.00
H80    H     0.78797   0.62903   0.06329   0.00000  Uiso   1.00
H81    H     0.14067   0.51278   0.58189   0.00000  Uiso   1.00
H82    H     0.05727   0.38868   0.07449   0.00000  Uiso   1.00
H83    H     0.88586   0.69751   0.20351   0.00000  Uiso   1.00
O84    O     0.95627   0.42884   0.50330   0.00000  Uiso   1.00
O85    O     0.15882   0.26604   0.14958   0.00000  Uiso   1.00
O86    O     0.93393   0.67121   0.31885   0.00000  Uiso   1.00
N87    N     0.15885   0.39472   0.66340   0.00000  Uiso   1.00
N88    N     0.01579   0.27869   0.12393   0.00000  Uiso   1.00
N89    N     0.85558   0.56742   0.24457   0.00000  Uiso   1.00
N90    N     0.17135   0.47825   0.62328   0.00000  Uiso   1.00
N91    N     0.02829   0.36222   0.08381   0.00000  Uiso   1.00
N92    N     0.86808   0.65095   0.20446   0.00000  Uiso   1.00
C93    C     0.82443   0.90627   0.48587   0.00000  Uiso   1.00
C94    C     0.96378   0.92351   0.59233   0.00000  Uiso   1.00
C95    C     0.08791   0.89147   0.65950   0.00000  Uiso   1.00
C96    C     0.20393   0.91469   0.75332   0.00000  Uiso   1.00
C97    C     0.42151   0.93331   0.91474   0.00000  Uiso   1.00
C98    C     0.72762   0.89153   0.46542   0.00000  Uiso   1.00
C99    C     0.65317   0.83259   0.42587   0.00000  Uiso   1.00
C100   C     0.57036   0.82890   0.41284   0.00000  Uiso   1.00
C101   C     0.42122   0.79789   0.37717   0.00000  Uiso   1.00
C102   C     0.77180   0.97110   0.43218   0.00000  Uiso   1.00
C103   C     0.73446   0.97907   0.36467   0.00000  Uiso   1.00
C104   C     0.68881   0.04237   0.32364   0.00000  Uiso   1.00
C105   C     0.60827   0.13491   0.23636   0.00000  Uiso   1.00
C106   C     0.80972   0.00450   0.53304   0.00000  Uiso   1.00
C107   C     0.95579   0.97686   0.61795   0.00000  Uiso   1.00
C108   C     0.07165   0.00015   0.71169   0.00000  Uiso   1.00
C109   C     0.19593   0.96814   0.77899   0.00000  Uiso   1.00
C110   C     0.71963   0.94488   0.49104   0.00000  Uiso   1.00
C111   C     0.63690   0.94127   0.47806   0.00000  Uiso   1.00
C112   C     0.56236   0.88235   0.43851   0.00000  Uiso   1.00
C113   C     0.76381   0.02446   0.45780   0.00000  Uiso   1.00
C114   C     0.71820   0.08775   0.41686   0.00000  Uiso   1.00
C115   C     0.68081   0.09582   0.34931   0.00000  Uiso   1.00
H116   H     0.83064   0.86473   0.46592   0.00000  Uiso   1.00
H117   H     0.09405   0.85017   0.63964   0.00000  Uiso   1.00
H118   H     0.65936   0.79132   0.40604   0.00000  Uiso   1.00
H119   H     0.74065   0.93777   0.34486   0.00000  Uiso   1.00
H120   H     0.38256   0.85754   0.84356   0.00000  Uiso   1.00
H121   H     0.46597   0.73345   0.35097   0.00000  Uiso   1.00
H122   H     0.63737   0.04228   0.22194   0.00000  Uiso   1.00
H123   H     0.80350   0.04604   0.55298   0.00000  Uiso   1.00
H124   H     0.06543   0.04144   0.73149   0.00000  Uiso   1.00
H125   H     0.63074   0.98257   0.49789   0.00000  Uiso   1.00
H126   H     0.71203   0.12903   0.43671   0.00000  Uiso   1.00
H127   H     0.35933   0.01278   0.91811   0.00000  Uiso   1.00
H128   H     0.44273   0.88868   0.42551   0.00000  Uiso   1.00
H129   H     0.61414   0.19751   0.29649   0.00000  Uiso   1.00
O130   O     0.54373   0.92884   0.99670   0.00000  Uiso   1.00
O131   O     0.34118   0.76604   0.35042   0.00000  Uiso   1.00
O132   O     0.56607   0.17121   0.18115   0.00000  Uiso   1.00
N133   N     0.34115   0.89472   0.83660   0.00000  Uiso   1.00
N134   N     0.48421   0.77869   0.37607   0.00000  Uiso   1.00
N135   N     0.64442   0.06742   0.25543   0.00000  Uiso   1.00
N136   N     0.32865   0.97825   0.87672   0.00000  Uiso   1.00
N137   N     0.47171   0.86222   0.41619   0.00000  Uiso   1.00
N138   N     0.63192   0.15095   0.29554   0.00000  Uiso   1.00
C139   C     0.32443   0.40627   0.48587   0.00000  Uiso   1.00
C140   C     0.46378   0.42351   0.59233   0.00000  Uiso   1.00
C141   C     0.58791   0.39147   0.65950   0.00000  Uiso   1.00
C142   C     0.70393   0.41469   0.75332   0.00000  Uiso   1.00
C143   C     0.92151   0.43331   0.91474   0.00000  Uiso   1.00
C144   C     0.22762   0.39153   0.46542   0.00000  Uiso   1.00
C145   C     0.15317   0.33259   0.42587   0.00000  Uiso   1.00
C146   C     0.07036   0.32890   0.41284   0.00000  Uiso   1.00
C147   C     0.92122   0.29789   0.37717   0.00000  Uiso   1.00
C148   C     0.27180   0.47110   0.43218   0.00000  Uiso   1.00
C149   C     0.23446   0.47907   0.36467   0.00000  Uiso   1.00
C150   C     0.18881   0.54237   0.32364   0.00000  Uiso   1.00
C151   C     0.10827   0.63491   0.23636   0.00000  Uiso   1.00
C152   C     0.30972   0.50450   0.53304   0.00000  Uiso   1.00
C153   C     0.45579   0.47686   0.61795   0.00000  Uiso   1.00
C154   C     0.57165   0.50015   0.71169   0.00000  Uiso   1.00
C155   C     0.69593   0.46814   0.77899   0.00000  Uiso   1.00
C156   C     0.21963   0.44488   0.49104   0.00000  Uiso   1.00
C157   C     0.13690   0.44127   0.47806   0.00000  Uiso   1.00
C158   C     0.06236   0.38235   0.43851   0.00000  Uiso   1.00
C159   C     0.26381   0.52446   0.45780   0.00000  Uiso   1.00
C160   C     0.21820   0.58775   0.41686   0.00000  Uiso   1.00
C161   C     0.18081   0.59582   0.34931   0.00000  Uiso   1.00
H162   H     0.33064   0.36473   0.46592   0.00000  Uiso   1.00
H163   H     0.59405   0.35017   0.63964   0.00000  Uiso   1.00
H164   H     0.15936   0.29132   0.40604   0.00000  Uiso   1.00
H165   H     0.24065   0.43777   0.34486   0.00000  Uiso   1.00
H166   H     0.88256   0.35754   0.84356   0.00000  Uiso   1.00
H167   H     0.96597   0.23345   0.35097   0.00000  Uiso   1.00
H168   H     0.13737   0.54228   0.22194   0.00000  Uiso   1.00
H169   H     0.30350   0.54604   0.55298   0.00000  Uiso   1.00
H170   H     0.56543   0.54144   0.73149   0.00000  Uiso   1.00
H171   H     0.13074   0.48257   0.49789   0.00000  Uiso   1.00
H172   H     0.21203   0.62903   0.43671   0.00000  Uiso   1.00
H173   H     0.85933   0.51278   0.91811   0.00000  Uiso   1.00
H174   H     0.94273   0.38868   0.42551   0.00000  Uiso   1.00
H175   H     0.11414   0.69751   0.29649   0.00000  Uiso   1.00
O176   O     0.04373   0.42884   0.99670   0.00000  Uiso   1.00
O177   O     0.84118   0.26604   0.35042   0.00000  Uiso   1.00
O178   O     0.06607   0.67121   0.18115   0.00000  Uiso   1.00
N179   N     0.84115   0.39472   0.83660   0.00000  Uiso   1.00
N180   N     0.98421   0.27869   0.37607   0.00000  Uiso   1.00
N181   N     0.14442   0.56742   0.25543   0.00000  Uiso   1.00
N182   N     0.82865   0.47825   0.87672   0.00000  Uiso   1.00
N183   N     0.97171   0.36222   0.41619   0.00000  Uiso   1.00
N184   N     0.13192   0.65095   0.29554   0.00000  Uiso   1.00
C185   C     0.82443   0.09373   0.98587   0.00000  Uiso   1.00
C186   C     0.96378   0.07649   0.09233   0.00000  Uiso   1.00
C187   C     0.08791   0.10853   0.15950   0.00000  Uiso   1.00
C188   C     0.20393   0.08531   0.25332   0.00000  Uiso   1.00
C189   C     0.42151   0.06669   0.41474   0.00000  Uiso   1.00
C190   C     0.72762   0.10847   0.96542   0.00000  Uiso   1.00
C191   C     0.65317   0.16741   0.92587   0.00000  Uiso   1.00
C192   C     0.57036   0.17110   0.91284   0.00000  Uiso   1.00
C193   C     0.42122   0.20211   0.87717   0.00000  Uiso   1.00
C194   C     0.77180   0.02890   0.93218   0.00000  Uiso   1.00
C195   C     0.73446   0.02093   0.86467   0.00000  Uiso   1.00
C196   C     0.68881   0.95763   0.82364   0.00000  Uiso   1.00
C197   C     0.60827   0.86509   0.73636   0.00000  Uiso   1.00
C198   C     0.80972   0.99550   0.03304   0.00000  Uiso   1.00
C199   C     0.95579   0.02314   0.11795   0.00000  Uiso   1.00
C200   C     0.07165   0.99985   0.21169   0.00000  Uiso   1.00
C201   C     0.19593   0.03186   0.27899   0.00000  Uiso   1.00
C202   C     0.71963   0.05512   0.99104   0.00000  Uiso   1.00
C203   C     0.63690   0.05873   0.97806   0.00000  Uiso   1.00
C204   C     0.56236   0.11765   0.93851   0.00000  Uiso   1.00
C205   C     0.76381   0.97554   0.95780   0.00000  Uiso   1.00
C206   C     0.71820   0.91225   0.91686   0.00000  Uiso   1.00
C207   C     0.68081   0.90418   0.84931   0.00000  Uiso   1.00
H208   H     0.83064   0.13527   0.96592   0.00000  Uiso   1.00
H209   H     0.09405   0.14983   0.13964   0.00000  Uiso   1.00
H210   H     0.65936   0.20868   0.90604   0.00000  Uiso   1.00
H211   H     0.74065   0.06223   0.84486   0.00000  Uiso   1.00
H212   H     0.38256   0.14246   0.34356   0.00000  Uiso   1.00
H213   H     0.46597   0.26655   0.85097   0.00000  Uiso   1.00
H214   H     0.63737   0.95772   0.72194   0.00000  Uiso   1.00
H215   H     0.80350   0.95396   0.05298   0.00000  Uiso   1.00
H216   H     0.06543   0.95856   0.23149   0.00000  Uiso   1.00
H217   H     0.63074   0.01743   0.99789   0.00000  Uiso   1.00
H218   H     0.71203   0.87097   0.93671   0.00000  Uiso   1.00
H219   H     0.35933   0.98722   0.41811   0.00000  Uiso   1.00
H220   H     0.44273   0.11132   0.92551   0.00000  Uiso   1.00
H221   H     0.61414   0.80249   0.79649   0.00000  Uiso   1.00
O222   O     0.54373   0.07116   0.49670   0.00000  Uiso   1.00
O223   O     0.34118   0.23396   0.85042   0.00000  Uiso   1.00
O224   O     0.56607   0.82879   0.68115   0.00000  Uiso   1.00
N225   N     0.34115   0.10528   0.33660   0.00000  Uiso   1.00
N226   N     0.48421   0.22131   0.87607   0.00000  Uiso   1.00
N227   N     0.64442   0.93258   0.75543   0.00000  Uiso   1.00
N228   N     0.32865   0.02175   0.37672   0.00000  Uiso   1.00
N229   N     0.47171   0.13778   0.91619   0.00000  Uiso   1.00
N230   N     0.63192   0.84905   0.79554   0.00000  Uiso   1.00
C231   C     0.32443   0.59373   0.98587   0.00000  Uiso   1.00
C232   C     0.46378   0.57649   0.09233   0.00000  Uiso   1.00
C233   C     0.58791   0.60853   0.15950   0.00000  Uiso   1.00
C234   C     0.70393   0.58531   0.25332   0.00000  Uiso   1.00
C235   C     0.92151   0.56669   0.41474   0.00000  Uiso   1.00
C236   C     0.22762   0.60847   0.96542   0.00000  Uiso   1.00
C237   C     0.15317   0.66741   0.92587   0.00000  Uiso   1.00
C238   C     0.07036   0.67110   0.91284   0.00000  Uiso   1.00
C239   C     0.92122   0.70211   0.87717   0.00000  Uiso   1.00
C240   C     0.27180   0.52890   0.93218   0.00000  Uiso   1.00
C241   C     0.23446   0.52093   0.86467   0.00000  Uiso   1.00
C242   C     0.18881   0.45763   0.82364   0.00000  Uiso   1.00
C243   C     0.10827   0.36509   0.73636   0.00000  Uiso   1.00
C244   C     0.30972   0.49550   0.03304   0.00000  Uiso   1.00
C245   C     0.45579   0.52314   0.11795   0.00000  Uiso   1.00
C246   C     0.57165   0.49985   0.21169   0.00000  Uiso   1.00
C247   C     0.69593   0.53186   0.27899   0.00000  Uiso   1.00
C248   C     0.21963   0.55512   0.99104   0.00000  Uiso   1.00
C249   C     0.13690   0.55873   0.97806   0.00000  Uiso   1.00
C250   C     0.06236   0.61765   0.93851   0.00000  Uiso   1.00
C251   C     0.26381   0.47554   0.95780   0.00000  Uiso   1.00
C252   C     0.21820   0.41225   0.91686   0.00000  Uiso   1.00
C253   C     0.18081   0.40418   0.84931   0.00000  Uiso   1.00
H254   H     0.33064   0.63527   0.96592   0.00000  Uiso   1.00
H255   H     0.59405   0.64983   0.13964   0.00000  Uiso   1.00
H256   H     0.15936   0.70868   0.90604   0.00000  Uiso   1.00
H257   H     0.24065   0.56223   0.84486   0.00000  Uiso   1.00
H258   H     0.88256   0.64246   0.34356   0.00000  Uiso   1.00
H259   H     0.96597   0.76655   0.85097   0.00000  Uiso   1.00
H260   H     0.13737   0.45772   0.72194   0.00000  Uiso   1.00
H261   H     0.30350   0.45396   0.05298   0.00000  Uiso   1.00
H262   H     0.56543   0.45856   0.23149   0.00000  Uiso   1.00
H263   H     0.13074   0.51743   0.99789   0.00000  Uiso   1.00
H264   H     0.21203   0.37097   0.93671   0.00000  Uiso   1.00
H265   H     0.85933   0.48722   0.41811   0.00000  Uiso   1.00
H266   H     0.94273   0.61132   0.92551   0.00000  Uiso   1.00
H267   H     0.11414   0.30249   0.79649   0.00000  Uiso   1.00
O268   O     0.04373   0.57116   0.49670   0.00000  Uiso   1.00
O269   O     0.84118   0.73396   0.85042   0.00000  Uiso   1.00
O270   O     0.06607   0.32879   0.68115   0.00000  Uiso   1.00
N271   N     0.84115   0.60528   0.33660   0.00000  Uiso   1.00
N272   N     0.98421   0.72131   0.87607   0.00000  Uiso   1.00
N273   N     0.14442   0.43258   0.75543   0.00000  Uiso   1.00
N274   N     0.82865   0.52175   0.37672   0.00000  Uiso   1.00
N275   N     0.97171   0.63778   0.91619   0.00000  Uiso   1.00
N276   N     0.13192   0.34905   0.79554   0.00000  Uiso   1.00
C277   C     0.17557   0.09373   0.51413   0.00000  Uiso   1.00
C278   C     0.03622   0.07649   0.40767   0.00000  Uiso   1.00
C279   C     0.91209   0.10853   0.34050   0.00000  Uiso   1.00
C280   C     0.79607   0.08531   0.24668   0.00000  Uiso   1.00
C281   C     0.57849   0.06669   0.08526   0.00000  Uiso   1.00
C282   C     0.27238   0.10847   0.53458   0.00000  Uiso   1.00
C283   C     0.34683   0.16741   0.57413   0.00000  Uiso   1.00
C284   C     0.42964   0.17110   0.58716   0.00000  Uiso   1.00
C285   C     0.57878   0.20211   0.62283   0.00000  Uiso   1.00
C286   C     0.22820   0.02890   0.56782   0.00000  Uiso   1.00
C287   C     0.26554   0.02093   0.63533   0.00000  Uiso   1.00
C288   C     0.31119   0.95763   0.67636   0.00000  Uiso   1.00
C289   C     0.39173   0.86509   0.76364   0.00000  Uiso   1.00
C290   C     0.19028   0.99550   0.46696   0.00000  Uiso   1.00
C291   C     0.04421   0.02314   0.38205   0.00000  Uiso   1.00
C292   C     0.92835   0.99985   0.28831   0.00000  Uiso   1.00
C293   C     0.80407   0.03186   0.22101   0.00000  Uiso   1.00
C294   C     0.28037   0.05512   0.50896   0.00000  Uiso   1.00
C295   C     0.36310   0.05873   0.52194   0.00000  Uiso   1.00
C296   C     0.43764   0.11765   0.56149   0.00000  Uiso   1.00
C297   C     0.23619   0.97554   0.54220   0.00000  Uiso   1.00
C298   C     0.28180   0.91225   0.58314   0.00000  Uiso   1.00
C299   C     0.31919   0.90418   0.65069   0.00000  Uiso   1.00
H300   H     0.16936   0.13527   0.53408   0.00000  Uiso   1.00
H301   H     0.90595   0.14983   0.36036   0.00000  Uiso   1.00
H302   H     0.34064   0.20868   0.59396   0.00000  Uiso   1.00
H303   H     0.25935   0.06223   0.65514   0.00000  Uiso   1.00
H304   H     0.61744   0.14246   0.15644   0.00000  Uiso   1.00
H305   H     0.53403   0.26655   0.64903   0.00000  Uiso   1.00
H306   H     0.36263   0.95772   0.77806   0.00000  Uiso   1.00
H307   H     0.19650   0.95396   0.44702   0.00000  Uiso   1.00
H308   H     0.93457   0.95856   0.26851   0.00000  Uiso   1.00
H309   H     0.36926   0.01743   0.50211   0.00000  Uiso   1.00
H310   H     0.28797   0.87097   0.56329   0.00000  Uiso   1.00
H311   H     0.64067   0.98722   0.08189   0.00000  Uiso   1.00
H312   H     0.55727   0.11132   0.57449   0.00000  Uiso   1.00
H313   H     0.38586   0.80249   0.70351   0.00000  Uiso   1.00
O314   O     0.45627   0.07116   0.00330   0.00000  Uiso   1.00
O315   O     0.65882   0.23396   0.64958   0.00000  Uiso   1.00
O316   O     0.43393   0.82879   0.81885   0.00000  Uiso   1.00
N317   N     0.65885   0.10528   0.16340   0.00000  Uiso   1.00
N318   N     0.51579   0.22131   0.62393   0.00000  Uiso   1.00
N319   N     0.35558   0.93258   0.74457   0.00000  Uiso   1.00
N320   N     0.67135   0.02175   0.12328   0.00000  Uiso   1.00
N321   N     0.52829   0.13778   0.58381   0.00000  Uiso   1.00
N322   N     0.36808   0.84905   0.70446   0.00000  Uiso   1.00
C323   C     0.67557   0.59373   0.51413   0.00000  Uiso   1.00
C324   C     0.53622   0.57649   0.40767   0.00000  Uiso   1.00
C325   C     0.41209   0.60853   0.34050   0.00000  Uiso   1.00
C326   C     0.29607   0.58531   0.24668   0.00000  Uiso   1.00
C327   C     0.07849   0.56669   0.08526   0.00000  Uiso   1.00
C328   C     0.77238   0.60847   0.53458   0.00000  Uiso   1.00
C329   C     0.84683   0.66741   0.57413   0.00000  Uiso   1.00
C330   C     0.92964   0.67110   0.58716   0.00000  Uiso   1.00
C331   C     0.07878   0.70211   0.62283   0.00000  Uiso   1.00
C332   C     0.72820   0.52890   0.56782   0.00000  Uiso   1.00
C333   C     0.76554   0.52093   0.63533   0.00000  Uiso   1.00
C334   C     0.81119   0.45763   0.67636   0.00000  Uiso   1.00
C335   C     0.89173   0.36509   0.76364   0.00000  Uiso   1.00
C336   C     0.69028   0.49550   0.46696   0.00000  Uiso   1.00
C337   C     0.54421   0.52314   0.38205   0.00000  Uiso   1.00
C338   C     0.42835   0.49985   0.28831   0.00000  Uiso   1.00
C339   C     0.30407   0.53186   0.22101   0.00000  Uiso   1.00
C340   C     0.78037   0.55512   0.50896   0.00000  Uiso   1.00
C341   C     0.86310   0.55873   0.52194   0.00000  Uiso   1.00
C342   C     0.93764   0.61765   0.56149   0.00000  Uiso   1.00
C343   C     0.73619   0.47554   0.54220   0.00000  Uiso   1.00
C344   C     0.78180   0.41225   0.58314   0.00000  Uiso   1.00
C345   C     0.81919   0.40418   0.65069   0.00000  Uiso   1.00
H346   H     0.66936   0.63527   0.53408   0.00000  Uiso   1.00
H347   H     0.40595   0.64983   0.36036   0.00000  Uiso   1.00
H348   H     0.84064   0.70868   0.59396   0.00000  Uiso   1.00
H349   H     0.75935   0.56223   0.65514   0.00000  Uiso   1.00
H350   H     0.11744   0.64246   0.15644   0.00000  Uiso   1.00
H351   H     0.03403   0.76655   0.64903   0.00000  Uiso   1.00
H352   H     0.86263   0.45772   0.77806   0.00000  Uiso   1.00
H353   H     0.69650   0.45396   0.44702   0.00000  Uiso   1.00
H354   H     0.43457   0.45856   0.26851   0.00000  Uiso   1.00
H355   H     0.86926   0.51743   0.50211   0.00000  Uiso   1.00
H356   H     0.78797   0.37097   0.56329   0.00000  Uiso   1.00
H357   H     0.14067   0.48722   0.08189   0.00000  Uiso   1.00
H358   H     0.05727   0.61132   0.57449   0.00000  Uiso   1.00
H359   H     0.88586   0.30249   0.70351   0.00000  Uiso   1.00
O360   O     0.95627   0.57116   0.00330   0.00000  Uiso   1.00
O361   O     0.15882   0.73396   0.64958   0.00000  Uiso   1.00
O362   O     0.93393   0.32879   0.81885   0.00000  Uiso   1.00
N363   N     0.15885   0.60528   0.16340   0.00000  Uiso   1.00
N364   N     0.01579   0.72131   0.62393   0.00000  Uiso   1.00
N365   N     0.85558   0.43258   0.74457   0.00000  Uiso   1.00
N366   N     0.17135   0.52175   0.12328   0.00000  Uiso   1.00
N367   N     0.02829   0.63778   0.58381   0.00000  Uiso   1.00
N368   N     0.86808   0.34905   0.70446   0.00000  Uiso   1.00
