data_job_02669
_audit_creation_date              2018-12-19
_audit_creation_method            'Materials Studio'
_symmetry_space_group_name_H-M    'P1'
_symmetry_Int_Tables_number       1
_symmetry_cell_setting            triclinic
loop_
_symmetry_equiv_pos_as_xyz
  x,y,z
_cell_length_a                    20.6326
_cell_length_b                    12.1927
_cell_length_c                    34.9211
_cell_angle_alpha                 90.0000
_cell_angle_beta                  145.9774
_cell_angle_gamma                 90.0000
loop_
_atom_site_label
_atom_site_type_symbol
_atom_site_fract_x
_atom_site_fract_y
_atom_site_fract_z
_atom_site_U_iso_or_equiv
_atom_site_adp_type
_atom_site_occupancy
C1     C     0.60304   0.01233   0.63916   0.00000  Uiso   1.00
C2     C     0.55552   0.12890   0.61402   0.00000  Uiso   1.00
C3     C     0.56026   0.19780   0.58475   0.00000  Uiso   1.00
C4     C     0.51189   0.30141   0.56513   0.00000  Uiso   1.00
C5     C     0.44594   0.47736   0.52470   0.00000  Uiso   1.00
C6     C     0.68744   0.01053   0.71408   0.00000  Uiso   1.00
C7     C     0.80310   0.97988   0.76893   0.00000  Uiso   1.00
C8     C     0.86577   0.98383   0.83353   0.00000  Uiso   1.00
C9     C     0.00462   0.97592   0.94844   0.00000  Uiso   1.00
C10    C     0.50153   0.93970   0.60118   0.00000  Uiso   1.00
C11    C     0.46088   0.84947   0.56111   0.00000  Uiso   1.00
C12    C     0.36705   0.79376   0.53067   0.00000  Uiso   1.00
C13    C     0.21725   0.67587   0.47028   0.00000  Uiso   1.00
C14    C     0.50871   0.07381   0.65636   0.00000  Uiso   1.00
C15    C     0.50428   0.16229   0.62337   0.00000  Uiso   1.00
C16    C     0.45589   0.26582   0.60377   0.00000  Uiso   1.00
C17    C     0.46055   0.33486   0.57448   0.00000  Uiso   1.00
C18    C     0.63621   0.04392   0.72342   0.00000  Uiso   1.00
C19    C     0.69873   0.04790   0.78795   0.00000  Uiso   1.00
C20    C     0.81445   0.01728   0.84289   0.00000  Uiso   1.00
C21    C     0.45029   0.97308   0.61051   0.00000  Uiso   1.00
C22    C     0.35651   0.91749   0.58013   0.00000  Uiso   1.00
C23    C     0.31573   0.82721   0.54002   0.00000  Uiso   1.00
H24    H     0.64294   0.98633   0.63190   0.00000  Uiso   1.00
H25    H     0.59993   0.17194   0.57754   0.00000  Uiso   1.00
H26    H     0.84272   0.95404   0.76169   0.00000  Uiso   1.00
H27    H     0.50056   0.82366   0.55390   0.00000  Uiso   1.00
H28    H     0.52968   0.39245   0.52142   0.00000  Uiso   1.00
H29    H     0.04162   0.93297   0.90970   0.00000  Uiso   1.00
H30    H     0.32010   0.65802   0.47153   0.00000  Uiso   1.00
H31    H     0.46882   0.09980   0.66363   0.00000  Uiso   1.00
H32    H     0.41624   0.29164   0.61101   0.00000  Uiso   1.00
H33    H     0.65905   0.07374   0.79516   0.00000  Uiso   1.00
H34    H     0.31688   0.94335   0.58737   0.00000  Uiso   1.00
H35    H     0.38060   0.48960   0.54858   0.00000  Uiso   1.00
H36    H     0.89254   0.03012   0.93687   0.00000  Uiso   1.00
H37    H     0.17102   0.75518   0.49870   0.00000  Uiso   1.00
O38    O     0.42374   0.56519   0.49983   0.00000  Uiso   1.00
O39    O     0.09537   0.96234   0.00924   0.00000  Uiso   1.00
O40    O     0.14876   0.60163   0.43438   0.00000  Uiso   1.00
N41    N     0.50179   0.38898   0.53502   0.00000  Uiso   1.00
N42    N     0.98042   0.95941   0.89804   0.00000  Uiso   1.00
N43    N     0.30589   0.70234   0.48841   0.00000  Uiso   1.00
N44    N     0.42157   0.44126   0.54964   0.00000  Uiso   1.00
N45    N     0.90021   0.01169   0.91266   0.00000  Uiso   1.00
N46    N     0.22567   0.75462   0.50303   0.00000  Uiso   1.00
C47    C     0.39696   0.51233   0.86084   0.00000  Uiso   1.00
C48    C     0.44448   0.62890   0.88598   0.00000  Uiso   1.00
C49    C     0.43974   0.69780   0.91525   0.00000  Uiso   1.00
C50    C     0.48811   0.80141   0.93487   0.00000  Uiso   1.00
C51    C     0.55406   0.97736   0.97530   0.00000  Uiso   1.00
C52    C     0.31256   0.51053   0.78592   0.00000  Uiso   1.00
C53    C     0.19690   0.47988   0.73107   0.00000  Uiso   1.00
C54    C     0.13423   0.48383   0.66647   0.00000  Uiso   1.00
C55    C     0.99538   0.47592   0.55156   0.00000  Uiso   1.00
C56    C     0.49847   0.43970   0.89882   0.00000  Uiso   1.00
C57    C     0.53912   0.34947   0.93889   0.00000  Uiso   1.00
C58    C     0.63295   0.29376   0.96933   0.00000  Uiso   1.00
C59    C     0.78275   0.17587   0.02972   0.00000  Uiso   1.00
C60    C     0.49129   0.57381   0.84364   0.00000  Uiso   1.00
C61    C     0.49572   0.66229   0.87663   0.00000  Uiso   1.00
C62    C     0.54411   0.76582   0.89623   0.00000  Uiso   1.00
C63    C     0.53945   0.83486   0.92552   0.00000  Uiso   1.00
C64    C     0.36379   0.54392   0.77658   0.00000  Uiso   1.00
C65    C     0.30127   0.54790   0.71205   0.00000  Uiso   1.00
C66    C     0.18555   0.51728   0.65711   0.00000  Uiso   1.00
C67    C     0.54971   0.47308   0.88949   0.00000  Uiso   1.00
C68    C     0.64349   0.41749   0.91987   0.00000  Uiso   1.00
C69    C     0.68427   0.32721   0.95998   0.00000  Uiso   1.00
H70    H     0.35706   0.48633   0.86810   0.00000  Uiso   1.00
H71    H     0.40007   0.67194   0.92246   0.00000  Uiso   1.00
H72    H     0.15728   0.45404   0.73831   0.00000  Uiso   1.00
H73    H     0.49944   0.32366   0.94610   0.00000  Uiso   1.00
H74    H     0.47032   0.89245   0.97858   0.00000  Uiso   1.00
H75    H     0.95838   0.43297   0.59030   0.00000  Uiso   1.00
H76    H     0.67990   0.15802   0.02847   0.00000  Uiso   1.00
H77    H     0.53118   0.59980   0.83637   0.00000  Uiso   1.00
H78    H     0.58376   0.79164   0.88899   0.00000  Uiso   1.00
H79    H     0.34095   0.57374   0.70484   0.00000  Uiso   1.00
H80    H     0.68312   0.44335   0.91263   0.00000  Uiso   1.00
H81    H     0.61940   0.98960   0.95142   0.00000  Uiso   1.00
H82    H     0.10746   0.53012   0.56313   0.00000  Uiso   1.00
H83    H     0.82898   0.25518   0.00130   0.00000  Uiso   1.00
O84    O     0.57626   0.06519   0.00017   0.00000  Uiso   1.00
O85    O     0.90463   0.46234   0.49076   0.00000  Uiso   1.00
O86    O     0.85124   0.10163   0.06562   0.00000  Uiso   1.00
N87    N     0.49821   0.88898   0.96498   0.00000  Uiso   1.00
N88    N     0.01958   0.45941   0.60196   0.00000  Uiso   1.00
N89    N     0.69411   0.20234   0.01159   0.00000  Uiso   1.00
N90    N     0.57843   0.94126   0.95036   0.00000  Uiso   1.00
N91    N     0.09979   0.51169   0.58734   0.00000  Uiso   1.00
N92    N     0.77433   0.25462   0.99697   0.00000  Uiso   1.00
C93    C     0.39696   0.98767   0.36084   0.00000  Uiso   1.00
C94    C     0.44448   0.87110   0.38598   0.00000  Uiso   1.00
C95    C     0.43974   0.80220   0.41525   0.00000  Uiso   1.00
C96    C     0.48811   0.69859   0.43487   0.00000  Uiso   1.00
C97    C     0.55406   0.52264   0.47530   0.00000  Uiso   1.00
C98    C     0.31256   0.98947   0.28592   0.00000  Uiso   1.00
C99    C     0.19690   0.02012   0.23107   0.00000  Uiso   1.00
C100   C     0.13423   0.01617   0.16647   0.00000  Uiso   1.00
C101   C     0.99538   0.02408   0.05156   0.00000  Uiso   1.00
C102   C     0.49847   0.06030   0.39882   0.00000  Uiso   1.00
C103   C     0.53912   0.15053   0.43889   0.00000  Uiso   1.00
C104   C     0.63295   0.20624   0.46933   0.00000  Uiso   1.00
C105   C     0.78275   0.32413   0.52972   0.00000  Uiso   1.00
C106   C     0.49129   0.92619   0.34364   0.00000  Uiso   1.00
C107   C     0.49572   0.83771   0.37663   0.00000  Uiso   1.00
C108   C     0.54411   0.73418   0.39623   0.00000  Uiso   1.00
C109   C     0.53945   0.66514   0.42552   0.00000  Uiso   1.00
C110   C     0.36379   0.95608   0.27658   0.00000  Uiso   1.00
C111   C     0.30127   0.95210   0.21205   0.00000  Uiso   1.00
C112   C     0.18555   0.98272   0.15711   0.00000  Uiso   1.00
C113   C     0.54971   0.02692   0.38949   0.00000  Uiso   1.00
C114   C     0.64349   0.08251   0.41987   0.00000  Uiso   1.00
C115   C     0.68427   0.17279   0.45998   0.00000  Uiso   1.00
H116   H     0.35706   0.01367   0.36810   0.00000  Uiso   1.00
H117   H     0.40007   0.82806   0.42246   0.00000  Uiso   1.00
H118   H     0.15728   0.04596   0.23831   0.00000  Uiso   1.00
H119   H     0.49944   0.17634   0.44610   0.00000  Uiso   1.00
H120   H     0.47032   0.60755   0.47858   0.00000  Uiso   1.00
H121   H     0.95838   0.06703   0.09030   0.00000  Uiso   1.00
H122   H     0.67990   0.34198   0.52847   0.00000  Uiso   1.00
H123   H     0.53118   0.90020   0.33637   0.00000  Uiso   1.00
H124   H     0.58376   0.70836   0.38899   0.00000  Uiso   1.00
H125   H     0.34095   0.92626   0.20484   0.00000  Uiso   1.00
H126   H     0.68312   0.05665   0.41263   0.00000  Uiso   1.00
H127   H     0.61940   0.51040   0.45142   0.00000  Uiso   1.00
H128   H     0.10746   0.96988   0.06313   0.00000  Uiso   1.00
H129   H     0.82898   0.24482   0.50130   0.00000  Uiso   1.00
O130   O     0.57626   0.43481   0.50017   0.00000  Uiso   1.00
O131   O     0.90463   0.03766   0.99076   0.00000  Uiso   1.00
O132   O     0.85124   0.39837   0.56562   0.00000  Uiso   1.00
N133   N     0.49821   0.61102   0.46498   0.00000  Uiso   1.00
N134   N     0.01958   0.04059   0.10196   0.00000  Uiso   1.00
N135   N     0.69411   0.29766   0.51159   0.00000  Uiso   1.00
N136   N     0.57843   0.55874   0.45036   0.00000  Uiso   1.00
N137   N     0.09979   0.98831   0.08734   0.00000  Uiso   1.00
N138   N     0.77433   0.24538   0.49697   0.00000  Uiso   1.00
C139   C     0.60304   0.48767   0.13916   0.00000  Uiso   1.00
C140   C     0.55552   0.37110   0.11402   0.00000  Uiso   1.00
C141   C     0.56026   0.30220   0.08475   0.00000  Uiso   1.00
C142   C     0.51189   0.19859   0.06513   0.00000  Uiso   1.00
C143   C     0.44594   0.02264   0.02470   0.00000  Uiso   1.00
C144   C     0.68744   0.48947   0.21408   0.00000  Uiso   1.00
C145   C     0.80310   0.52012   0.26893   0.00000  Uiso   1.00
C146   C     0.86577   0.51617   0.33353   0.00000  Uiso   1.00
C147   C     0.00462   0.52408   0.44844   0.00000  Uiso   1.00
C148   C     0.50153   0.56030   0.10118   0.00000  Uiso   1.00
C149   C     0.46088   0.65053   0.06111   0.00000  Uiso   1.00
C150   C     0.36705   0.70624   0.03067   0.00000  Uiso   1.00
C151   C     0.21725   0.82413   0.97028   0.00000  Uiso   1.00
C152   C     0.50871   0.42619   0.15636   0.00000  Uiso   1.00
C153   C     0.50428   0.33771   0.12337   0.00000  Uiso   1.00
C154   C     0.45589   0.23418   0.10377   0.00000  Uiso   1.00
C155   C     0.46055   0.16514   0.07448   0.00000  Uiso   1.00
C156   C     0.63621   0.45608   0.22342   0.00000  Uiso   1.00
C157   C     0.69873   0.45210   0.28795   0.00000  Uiso   1.00
C158   C     0.81445   0.48272   0.34289   0.00000  Uiso   1.00
C159   C     0.45029   0.52692   0.11051   0.00000  Uiso   1.00
C160   C     0.35651   0.58251   0.08013   0.00000  Uiso   1.00
C161   C     0.31573   0.67279   0.04002   0.00000  Uiso   1.00
H162   H     0.64294   0.51367   0.13190   0.00000  Uiso   1.00
H163   H     0.59993   0.32806   0.07754   0.00000  Uiso   1.00
H164   H     0.84272   0.54596   0.26169   0.00000  Uiso   1.00
H165   H     0.50056   0.67634   0.05390   0.00000  Uiso   1.00
H166   H     0.52968   0.10755   0.02142   0.00000  Uiso   1.00
H167   H     0.04162   0.56703   0.40970   0.00000  Uiso   1.00
H168   H     0.32010   0.84198   0.97153   0.00000  Uiso   1.00
H169   H     0.46882   0.40020   0.16363   0.00000  Uiso   1.00
H170   H     0.41624   0.20836   0.11101   0.00000  Uiso   1.00
H171   H     0.65905   0.42626   0.29516   0.00000  Uiso   1.00
H172   H     0.31688   0.55665   0.08737   0.00000  Uiso   1.00
H173   H     0.38060   0.01040   0.04858   0.00000  Uiso   1.00
H174   H     0.89254   0.46988   0.43687   0.00000  Uiso   1.00
H175   H     0.17102   0.74482   0.99870   0.00000  Uiso   1.00
O176   O     0.42374   0.93481   0.99983   0.00000  Uiso   1.00
O177   O     0.09537   0.53766   0.50924   0.00000  Uiso   1.00
O178   O     0.14876   0.89837   0.93438   0.00000  Uiso   1.00
N179   N     0.50179   0.11102   0.03502   0.00000  Uiso   1.00
N180   N     0.98042   0.54059   0.39804   0.00000  Uiso   1.00
N181   N     0.30589   0.79766   0.98841   0.00000  Uiso   1.00
N182   N     0.42157   0.05874   0.04964   0.00000  Uiso   1.00
N183   N     0.90021   0.48831   0.41266   0.00000  Uiso   1.00
N184   N     0.22567   0.74538   0.00303   0.00000  Uiso   1.00
