data_job_06576
_audit_creation_date              2018-12-19
_audit_creation_method            'Materials Studio'
_symmetry_space_group_name_H-M    'P1'
_symmetry_Int_Tables_number       1
_symmetry_cell_setting            triclinic
loop_
_symmetry_equiv_pos_as_xyz
  x,y,z
_cell_length_a                    19.1389
_cell_length_b                    21.2563
_cell_length_c                    22.2860
_cell_angle_alpha                 68.5070
_cell_angle_beta                  112.1467
_cell_angle_gamma                 82.1256
loop_
_atom_site_label
_atom_site_type_symbol
_atom_site_fract_x
_atom_site_fract_y
_atom_site_fract_z
_atom_site_U_iso_or_equiv
_atom_site_adp_type
_atom_site_occupancy
C1     C     0.09574   0.63676   0.01087   0.00000  Uiso   1.00
C2     C     0.09464   0.68486   0.04740   0.00000  Uiso   1.00
C3     C     0.02797   0.73644   0.03058   0.00000  Uiso   1.00
C4     C     0.03937   0.77485   0.07024   0.00000  Uiso   1.00
C5     C     0.02621   0.85149   0.11866   0.00000  Uiso   1.00
C6     C     0.15607   0.64889   0.98219   0.00000  Uiso   1.00
C7     C     0.14104   0.67023   0.91052   0.00000  Uiso   1.00
C8     C     0.20416   0.67835   0.89529   0.00000  Uiso   1.00
C9     C     0.28637   0.69910   0.84246   0.00000  Uiso   1.00
C10    C     0.13164   0.56043   0.07179   0.00000  Uiso   1.00
C11    C     0.09608   0.50738   0.07545   0.00000  Uiso   1.00
C12    C     0.13865   0.44101   0.13565   0.00000  Uiso   1.00
C13    C     0.18293   0.32441   0.22194   0.00000  Uiso   1.00
C14    C     0.23456   0.61323   0.11124   0.00000  Uiso   1.00
C15    C     0.17005   0.67207   0.10192   0.00000  Uiso   1.00
C16    C     0.18156   0.71041   0.14162   0.00000  Uiso   1.00
C17    C     0.11491   0.76204   0.12486   0.00000  Uiso   1.00
C18    C     0.23147   0.63611   0.03670   0.00000  Uiso   1.00
C19    C     0.29463   0.64419   0.02157   0.00000  Uiso   1.00
C20    C     0.27970   0.66554   0.94990   0.00000  Uiso   1.00
C21    C     0.20704   0.54764   0.12630   0.00000  Uiso   1.00
C22    C     0.24967   0.48134   0.18650   0.00000  Uiso   1.00
C23    C     0.21418   0.42820   0.19027   0.00000  Uiso   1.00
H24    H     0.03704   0.64672   0.96842   0.00000  Uiso   1.00
H25    H     0.96963   0.74632   0.98838   0.00000  Uiso   1.00
H26    H     0.08268   0.68011   0.86835   0.00000  Uiso   1.00
H27    H     0.03773   0.51729   0.03326   0.00000  Uiso   1.00
H28    H     0.92815   0.85114   0.03453   0.00000  Uiso   1.00
H29    H     0.16654   0.71150   0.78144   0.00000  Uiso   1.00
H30    H     0.07175   0.36815   0.12918   0.00000  Uiso   1.00
H31    H     0.29327   0.60328   0.15368   0.00000  Uiso   1.00
H32    H     0.23991   0.70050   0.18381   0.00000  Uiso   1.00
H33    H     0.35297   0.63429   0.06377   0.00000  Uiso   1.00
H34    H     0.30802   0.47147   0.22868   0.00000  Uiso   1.00
H35    H     0.14752   0.81395   0.19314   0.00000  Uiso   1.00
H36    H     0.38591   0.67431   0.94006   0.00000  Uiso   1.00
H37    H     0.29113   0.33097   0.28780   0.00000  Uiso   1.00
O38    O     0.99812   0.89730   0.13029   0.00000  Uiso   1.00
O39    O     0.31088   0.71409   0.79826   0.00000  Uiso   1.00
O40    O     0.18652   0.26363   0.25449   0.00000  Uiso   1.00
N41    N     0.98710   0.82903   0.06773   0.00000  Uiso   1.00
N42    N     0.20997   0.69849   0.83111   0.00000  Uiso   1.00
N43    N     0.12137   0.37749   0.15621   0.00000  Uiso   1.00
N44    N     0.10514   0.80902   0.15308   0.00000  Uiso   1.00
N45    N     0.32802   0.67848   0.91646   0.00000  Uiso   1.00
N46    N     0.23941   0.35747   0.24156   0.00000  Uiso   1.00
C47    C     0.69943   0.26125   0.68175   0.00000  Uiso   1.00
C48    C     0.75193   0.18365   0.72018   0.00000  Uiso   1.00
C49    C     0.75509   0.12950   0.78061   0.00000  Uiso   1.00
C50    C     0.80698   0.06210   0.80770   0.00000  Uiso   1.00
C51    C     0.88137   0.94356   0.87230   0.00000  Uiso   1.00
C52    C     0.75560   0.30569   0.68198   0.00000  Uiso   1.00
C53    C     0.76183   0.35415   0.71028   0.00000  Uiso   1.00
C54    C     0.81679   0.38949   0.70520   0.00000  Uiso   1.00
C55    C     0.89683   0.46045   0.71044   0.00000  Uiso   1.00
C56    C     0.65008   0.27836   0.60243   0.00000  Uiso   1.00
C57    C     0.56759   0.30386   0.56383   0.00000  Uiso   1.00
C58    C     0.53373   0.31621   0.49177   0.00000  Uiso   1.00
C59    C     0.44994   0.34474   0.37350   0.00000  Uiso   1.00
C60    C     0.78597   0.23784   0.62240   0.00000  Uiso   1.00
C61    C     0.79893   0.17094   0.68795   0.00000  Uiso   1.00
C62    C     0.85083   0.10361   0.71495   0.00000  Uiso   1.00
C63    C     0.85406   0.04936   0.77541   0.00000  Uiso   1.00
C64    C     0.80260   0.29298   0.64975   0.00000  Uiso   1.00
C65    C     0.85756   0.32826   0.64462   0.00000  Uiso   1.00
C66    C     0.86388   0.37675   0.67290   0.00000  Uiso   1.00
C67    C     0.69708   0.26565   0.57019   0.00000  Uiso   1.00
C68    C     0.66333   0.27796   0.49818   0.00000  Uiso   1.00
C69    C     0.58081   0.30348   0.45948   0.00000  Uiso   1.00
H70    H     0.66284   0.27115   0.70685   0.00000  Uiso   1.00
H71    H     0.71871   0.13936   0.80555   0.00000  Uiso   1.00
H72    H     0.72544   0.36398   0.73522   0.00000  Uiso   1.00
H73    H     0.53124   0.31370   0.58880   0.00000  Uiso   1.00
H74    H     0.80140   0.98765   0.90077   0.00000  Uiso   1.00
H75    H     0.81557   0.46129   0.75245   0.00000  Uiso   1.00
H76    H     0.40606   0.35526   0.44370   0.00000  Uiso   1.00
H77    H     0.82256   0.22795   0.59731   0.00000  Uiso   1.00
H78    H     0.88719   0.09378   0.68999   0.00000  Uiso   1.00
H79    H     0.89392   0.31841   0.61966   0.00000  Uiso   1.00
H80    H     0.69972   0.26812   0.47325   0.00000  Uiso   1.00
H81    H     0.93815   0.95066   0.80699   0.00000  Uiso   1.00
H82    H     0.95231   0.42431   0.65866   0.00000  Uiso   1.00
H83    H     0.54281   0.31827   0.34992   0.00000  Uiso   1.00
O84    O     0.90943   0.88169   0.91685   0.00000  Uiso   1.00
O85    O     0.92800   0.50310   0.72224   0.00000  Uiso   1.00
O86    O     0.39075   0.36398   0.31717   0.00000  Uiso   1.00
N87    N     0.82470   0.99735   0.86597   0.00000  Uiso   1.00
N88    N     0.83796   0.44017   0.72731   0.00000  Uiso   1.00
N89    N     0.45510   0.34106   0.43865   0.00000  Uiso   1.00
N90    N     0.89828   0.97745   0.81551   0.00000  Uiso   1.00
N91    N     0.91154   0.42027   0.67685   0.00000  Uiso   1.00
N92    N     0.52869   0.32115   0.38818   0.00000  Uiso   1.00
C93    C     0.95375   0.94394   0.32967   0.00000  Uiso   1.00
C94    C     0.92112   0.96923   0.24800   0.00000  Uiso   1.00
C95    C     0.87334   0.94065   0.20826   0.00000  Uiso   1.00
C96    C     0.84969   0.97127   0.13409   0.00000  Uiso   1.00
C97    C     0.79550   0.00183   0.01233   0.00000  Uiso   1.00
C98    C     0.04391   0.92551   0.36070   0.00000  Uiso   1.00
C99    C     0.09936   0.86016   0.41572   0.00000  Uiso   1.00
C100   C     0.17908   0.85398   0.43643   0.00000  Uiso   1.00
C101   C     0.31552   0.81666   0.48968   0.00000  Uiso   1.00
C102   C     0.92569   0.00919   0.33846   0.00000  Uiso   1.00
C103   C     0.88176   0.01421   0.37480   0.00000  Uiso   1.00
C104   C     0.86195   0.07848   0.37680   0.00000  Uiso   1.00
C105   C     0.81484   0.17110   0.39552   0.00000  Uiso   1.00
C106   C     0.99672   0.04917   0.26862   0.00000  Uiso   1.00
C107   C     0.94446   0.02639   0.21485   0.00000  Uiso   1.00
C108   C     0.92088   0.05707   0.14072   0.00000  Uiso   1.00
C109   C     0.87307   0.02853   0.10087   0.00000  Uiso   1.00
C110   C     0.06725   0.98266   0.32755   0.00000  Uiso   1.00
C111   C     0.14690   0.97658   0.34818   0.00000  Uiso   1.00
C112   C     0.20246   0.91124   0.40321   0.00000  Uiso   1.00
C113   C     0.94902   0.06635   0.30531   0.00000  Uiso   1.00
C114   C     0.92929   0.13063   0.30726   0.00000  Uiso   1.00
C115   C     0.88534   0.13574   0.34358   0.00000  Uiso   1.00
H116   H     0.93559   0.89944   0.35549   0.00000  Uiso   1.00
H117   H     0.85530   0.89641   0.23394   0.00000  Uiso   1.00
H118   H     0.08128   0.81594   0.44137   0.00000  Uiso   1.00
H119   H     0.86371   0.96997   0.40045   0.00000  Uiso   1.00
H120   H     0.77659   0.91824   0.08456   0.00000  Uiso   1.00
H121   H     0.25310   0.74857   0.52197   0.00000  Uiso   1.00
H122   H     0.79430   0.07336   0.43569   0.00000  Uiso   1.00
H123   H     0.01489   0.09367   0.24281   0.00000  Uiso   1.00
H124   H     0.93895   0.10130   0.11507   0.00000  Uiso   1.00
H125   H     0.16494   0.02082   0.32251   0.00000  Uiso   1.00
H126   H     0.94736   0.17485   0.28159   0.00000  Uiso   1.00
H127   H     0.84449   0.08453   0.98809   0.00000  Uiso   1.00
H128   H     0.32100   0.91486   0.42550   0.00000  Uiso   1.00
H129   H     0.86220   0.23965   0.33921   0.00000  Uiso   1.00
O130   O     0.75917   0.00288   0.95434   0.00000  Uiso   1.00
O131   O     0.38433   0.78029   0.52821   0.00000  Uiso   1.00
O132   O     0.78240   0.20640   0.41500   0.00000  Uiso   1.00
N133   N     0.80298   0.95634   0.07939   0.00000  Uiso   1.00
N134   N     0.24849   0.79770   0.48833   0.00000  Uiso   1.00
N135   N     0.81957   0.10135   0.40768   0.00000  Uiso   1.00
N136   N     0.83952   0.04582   0.02747   0.00000  Uiso   1.00
N137   N     0.28502   0.88718   0.43641   0.00000  Uiso   1.00
N138   N     0.85610   0.19083   0.35576   0.00000  Uiso   1.00
C139   C     0.64189   0.56782   0.04636   0.00000  Uiso   1.00
C140   C     0.59429   0.64709   0.00277   0.00000  Uiso   1.00
C141   C     0.52451   0.67898   0.00065   0.00000  Uiso   1.00
C142   C     0.49003   0.75223   0.95749   0.00000  Uiso   1.00
C143   C     0.41095   0.86926   0.89586   0.00000  Uiso   1.00
C144   C     0.72592   0.56291   0.09480   0.00000  Uiso   1.00
C145   C     0.76683   0.52400   0.17007   0.00000  Uiso   1.00
C146   C     0.84316   0.52638   0.20438   0.00000  Uiso   1.00
C147   C     0.96846   0.51266   0.28563   0.00000  Uiso   1.00
C148   C     0.64851   0.54377   0.99156   0.00000  Uiso   1.00
C149   C     0.62435   0.48876   0.98003   0.00000  Uiso   1.00
C150   C     0.63552   0.47501   0.92743   0.00000  Uiso   1.00
C151   C     0.64064   0.43158   0.84839   0.00000  Uiso   1.00
C152   C     0.70472   0.64121   0.97348   0.00000  Uiso   1.00
C153   C     0.62842   0.68695   0.96319   0.00000  Uiso   1.00
C154   C     0.59403   0.76018   0.92002   0.00000  Uiso   1.00
C155   C     0.52422   0.79217   0.91783   0.00000  Uiso   1.00
C156   C     0.76005   0.60277   0.05523   0.00000  Uiso   1.00
C157   C     0.83634   0.60520   0.08944   0.00000  Uiso   1.00
C158   C     0.87735   0.56631   0.16473   0.00000  Uiso   1.00
C159   C     0.68264   0.58363   0.95198   0.00000  Uiso   1.00
C160   C     0.69386   0.56996   0.89940   0.00000  Uiso   1.00
C161   C     0.66972   0.51495   0.88778   0.00000  Uiso   1.00
H162   H     0.61532   0.53679   0.07718   0.00000  Uiso   1.00
H163   H     0.49812   0.64811   0.03129   0.00000  Uiso   1.00
H164   H     0.74040   0.49315   0.20068   0.00000  Uiso   1.00
H165   H     0.59794   0.45792   0.01067   0.00000  Uiso   1.00
H166   H     0.38326   0.78912   0.96298   0.00000  Uiso   1.00
H167   H     0.89412   0.46236   0.32015   0.00000  Uiso   1.00
H168   H     0.59372   0.38807   0.91948   0.00000  Uiso   1.00
H169   H     0.73130   0.67225   0.94266   0.00000  Uiso   1.00
H170   H     0.62046   0.79101   0.88939   0.00000  Uiso   1.00
H171   H     0.86274   0.63605   0.05879   0.00000  Uiso   1.00
H172   H     0.72028   0.60082   0.86878   0.00000  Uiso   1.00
H173   H     0.48255   0.90510   0.84782   0.00000  Uiso   1.00
H174   H     0.99342   0.57834   0.20498   0.00000  Uiso   1.00
H175   H     0.69301   0.50405   0.80431   0.00000  Uiso   1.00
O176   O     0.35791   0.92280   0.87280   0.00000  Uiso   1.00
O177   O     0.02815   0.49408   0.34139   0.00000  Uiso   1.00
O178   O     0.63402   0.39662   0.81571   0.00000  Uiso   1.00
N179   N     0.42183   0.80012   0.94318   0.00000  Uiso   1.00
N180   N     0.89945   0.49462   0.27711   0.00000  Uiso   1.00
N181   N     0.61862   0.42515   0.90253   0.00000  Uiso   1.00
N182   N     0.47526   0.86253   0.88121   0.00000  Uiso   1.00
N183   N     0.95288   0.55703   0.21514   0.00000  Uiso   1.00
N184   N     0.67205   0.48756   0.84055   0.00000  Uiso   1.00
C185   C     0.49219   0.94260   0.32679   0.00000  Uiso   1.00
C186   C     0.51740   0.91281   0.28275   0.00000  Uiso   1.00
C187   C     0.46669   0.90520   0.22392   0.00000  Uiso   1.00
C188   C     0.50139   0.87686   0.19093   0.00000  Uiso   1.00
C189   C     0.52798   0.83368   0.11873   0.00000  Uiso   1.00
C190   C     0.52477   0.00471   0.32345   0.00000  Uiso   1.00
C191   C     0.48025   0.07436   0.29884   0.00000  Uiso   1.00
C192   C     0.52116   0.12338   0.30012   0.00000  Uiso   1.00
C193   C     0.55920   0.22285   0.29115   0.00000  Uiso   1.00
C194   C     0.53844   0.88507   0.40569   0.00000  Uiso   1.00
C195   C     0.50542   0.85415   0.45025   0.00000  Uiso   1.00
C196   C     0.55784   0.80246   0.52078   0.00000  Uiso   1.00
C197   C     0.61711   0.71619   0.63950   0.00000  Uiso   1.00
C198   C     0.64400   0.90579   0.37281   0.00000  Uiso   1.00
C199   C     0.59986   0.89282   0.30775   0.00000  Uiso   1.00
C200   C     0.63464   0.86448   0.27484   0.00000  Uiso   1.00
C201   C     0.58399   0.85683   0.21597   0.00000  Uiso   1.00
C202   C     0.60722   0.98471   0.34844   0.00000  Uiso   1.00
C203   C     0.64821   0.03364   0.34976   0.00000  Uiso   1.00
C204   C     0.60376   0.10335   0.32516   0.00000  Uiso   1.00
C205   C     0.62090   0.86508   0.43069   0.00000  Uiso   1.00
C206   C     0.67338   0.81343   0.50116   0.00000  Uiso   1.00
C207   C     0.64045   0.78243   0.54582   0.00000  Uiso   1.00
H208   H     0.42800   0.95817   0.30732   0.00000  Uiso   1.00
H209   H     0.40288   0.92069   0.20459   0.00000  Uiso   1.00
H210   H     0.41645   0.08982   0.27951   0.00000  Uiso   1.00
H211   H     0.44161   0.86964   0.43089   0.00000  Uiso   1.00
H212   H     0.41139   0.87034   0.10170   0.00000  Uiso   1.00
H213   H     0.44000   0.22695   0.25969   0.00000  Uiso   1.00
H214   H     0.49307   0.76267   0.57890   0.00000  Uiso   1.00
H215   H     0.70820   0.89023   0.39227   0.00000  Uiso   1.00
H216   H     0.69845   0.84901   0.29420   0.00000  Uiso   1.00
H217   H     0.71202   0.01814   0.36911   0.00000  Uiso   1.00
H218   H     0.73718   0.79797   0.52049   0.00000  Uiso   1.00
H219   H     0.65128   0.81217   0.17442   0.00000  Uiso   1.00
H220   H     0.67989   0.16878   0.33242   0.00000  Uiso   1.00
H221   H     0.73296   0.70449   0.65163   0.00000  Uiso   1.00
O222   O     0.51987   0.81539   0.07200   0.00000  Uiso   1.00
O223   O     0.55740   0.28325   0.27929   0.00000  Uiso   1.00
O224   O     0.62703   0.67412   0.69808   0.00000  Uiso   1.00
N225   N     0.46919   0.86229   0.13228   0.00000  Uiso   1.00
N226   N     0.49593   0.19571   0.27999   0.00000  Uiso   1.00
N227   N     0.54555   0.76165   0.57842   0.00000  Uiso   1.00
N228   N     0.59827   0.83099   0.17142   0.00000  Uiso   1.00
N229   N     0.62502   0.16440   0.31912   0.00000  Uiso   1.00
N230   N     0.67463   0.73035   0.61756   0.00000  Uiso   1.00
C231   C     0.28585   0.29823   0.66287   0.00000  Uiso   1.00
C232   C     0.28941   0.25618   0.73659   0.00000  Uiso   1.00
C233   C     0.23183   0.22758   0.74779   0.00000  Uiso   1.00
C234   C     0.24620   0.19091   0.81937   0.00000  Uiso   1.00
C235   C     0.24118   0.12677   0.92498   0.00000  Uiso   1.00
C236   C     0.36126   0.25913   0.66618   0.00000  Uiso   1.00
C237   C     0.36408   0.23302   0.61817   0.00000  Uiso   1.00
C238   C     0.43893   0.19883   0.63048   0.00000  Uiso   1.00
C239   C     0.54545   0.13931   0.62674   0.00000  Uiso   1.00
C240   C     0.29452   0.36958   0.65931   0.00000  Uiso   1.00
C241   C     0.24125   0.43635   0.60552   0.00000  Uiso   1.00
C242   C     0.25992   0.49516   0.61204   0.00000  Uiso   1.00
C243   C     0.26283   0.60714   0.59765   0.00000  Uiso   1.00
C244   C     0.41374   0.28395   0.77008   0.00000  Uiso   1.00
C245   C     0.35888   0.24842   0.79482   0.00000  Uiso   1.00
C246   C     0.37333   0.21178   0.86641   0.00000  Uiso   1.00
C247   C     0.31578   0.18314   0.87771   0.00000  Uiso   1.00
C248   C     0.43072   0.25137   0.72441   0.00000  Uiso   1.00
C249   C     0.50558   0.21722   0.73679   0.00000  Uiso   1.00
C250   C     0.50852   0.19106   0.68881   0.00000  Uiso   1.00
C251   C     0.36399   0.36183   0.71755   0.00000  Uiso   1.00
C252   C     0.38275   0.42055   0.72414   0.00000  Uiso   1.00
C253   C     0.32951   0.48739   0.67038   0.00000  Uiso   1.00
H254   H     0.23177   0.30427   0.61753   0.00000  Uiso   1.00
H255   H     0.17808   0.23359   0.70271   0.00000  Uiso   1.00
H256   H     0.31031   0.23904   0.57311   0.00000  Uiso   1.00
H257   H     0.18750   0.44233   0.56047   0.00000  Uiso   1.00
H258   H     0.14922   0.15179   0.82283   0.00000  Uiso   1.00
H259   H     0.42803   0.16329   0.54954   0.00000  Uiso   1.00
H260   H     0.16905   0.59199   0.52288   0.00000  Uiso   1.00
H261   H     0.46783   0.27791   0.81542   0.00000  Uiso   1.00
H262   H     0.42710   0.20579   0.91146   0.00000  Uiso   1.00
H263   H     0.55932   0.21123   0.78185   0.00000  Uiso   1.00
H264   H     0.43651   0.41453   0.76921   0.00000  Uiso   1.00
H265   H     0.35132   0.12922   0.99226   0.00000  Uiso   1.00
H266   H     0.63014   0.14072   0.71896   0.00000  Uiso   1.00
H267   H     0.37116   0.56942   0.69231   0.00000  Uiso   1.00
O268   O     0.21923   0.09352   0.96715   0.00000  Uiso   1.00
O269   O     0.58502   0.10862   0.60860   0.00000  Uiso   1.00
O270   O     0.24525   0.67105   0.57363   0.00000  Uiso   1.00
N271   N     0.20236   0.15639   0.84952   0.00000  Uiso   1.00
N272   N     0.46304   0.16713   0.59402   0.00000  Uiso   1.00
N273   N     0.22093   0.56793   0.56909   0.00000  Uiso   1.00
N274   N     0.31112   0.14425   0.94069   0.00000  Uiso   1.00
N275   N     0.57179   0.15499   0.68519   0.00000  Uiso   1.00
N276   N     0.32968   0.55578   0.66026   0.00000  Uiso   1.00
C277   C     0.05548   0.26864   0.07174   0.00000  Uiso   1.00
C278   C     0.02502   0.22326   0.03473   0.00000  Uiso   1.00
C279   C     0.06617   0.15388   0.05495   0.00000  Uiso   1.00
C280   C     0.02800   0.12153   0.01417   0.00000  Uiso   1.00
C281   C     0.99232   0.04561   0.96566   0.00000  Uiso   1.00
C282   C     0.99378   0.29125   0.09386   0.00000  Uiso   1.00
C283   C     0.00867   0.27903   0.16380   0.00000  Uiso   1.00
C284   C     0.94421   0.30392   0.17279   0.00000  Uiso   1.00
C285   C     0.86005   0.33360   0.21609   0.00000  Uiso   1.00
C286   C     0.05104   0.33659   0.01238   0.00000  Uiso   1.00
C287   C     0.11408   0.36251   0.01381   0.00000  Uiso   1.00
C288   C     0.09782   0.42559   0.95421   0.00000  Uiso   1.00
C289   C     0.10257   0.52566   0.87099   0.00000  Uiso   1.00
C290   C     0.91451   0.33458   0.96336   0.00000  Uiso   1.00
C291   C     0.94844   0.25908   0.97586   0.00000  Uiso   1.00
C292   C     0.91020   0.22683   0.93503   0.00000  Uiso   1.00
C293   C     0.95129   0.15740   0.95519   0.00000  Uiso   1.00
C294   C     0.91721   0.32706   0.03499   0.00000  Uiso   1.00
C295   C     0.85271   0.35198   0.04388   0.00000  Uiso   1.00
C296   C     0.86750   0.33980   0.11382   0.00000  Uiso   1.00
C297   C     0.97447   0.37241   0.95351   0.00000  Uiso   1.00
C298   C     0.95811   0.43546   0.89389   0.00000  Uiso   1.00
C299   C     0.02111   0.46147   0.89523   0.00000  Uiso   1.00
H300   H     0.11509   0.24076   0.11758   0.00000  Uiso   1.00
H301   H     0.12542   0.12617   0.10051   0.00000  Uiso   1.00
H302   H     0.06794   0.25132   0.20934   0.00000  Uiso   1.00
H303   H     0.17333   0.33478   0.05938   0.00000  Uiso   1.00
H304   H     0.10309   0.01492   0.05565   0.00000  Uiso   1.00
H305   H     0.98189   0.27882   0.28512   0.00000  Uiso   1.00
H306   H     0.20412   0.45481   0.96888   0.00000  Uiso   1.00
H307   H     0.85490   0.36246   0.91753   0.00000  Uiso   1.00
H308   H     0.85095   0.25456   0.88948   0.00000  Uiso   1.00
H309   H     0.79346   0.37970   0.99831   0.00000  Uiso   1.00
H310   H     0.89885   0.46316   0.84835   0.00000  Uiso   1.00
H311   H     0.88032   0.11912   0.88437   0.00000  Uiso   1.00
H312   H     0.75911   0.38302   0.11384   0.00000  Uiso   1.00
H313   H     0.98135   0.55901   0.79760   0.00000  Uiso   1.00
O314   O     0.99379   0.99383   0.95518   0.00000  Uiso   1.00
O315   O     0.83478   0.34006   0.25624   0.00000  Uiso   1.00
O316   O     0.12635   0.57096   0.84135   0.00000  Uiso   1.00
N317   N     0.05121   0.05426   0.01917   0.00000  Uiso   1.00
N318   N     0.93789   0.30097   0.23372   0.00000  Uiso   1.00
N319   N     0.14566   0.46553   0.93808   0.00000  Uiso   1.00
N320   N     0.93134   0.11033   0.92701   0.00000  Uiso   1.00
N321   N     0.81802   0.35704   0.14156   0.00000  Uiso   1.00
N322   N     0.02578   0.52160   0.84591   0.00000  Uiso   1.00
C323   C     0.40701   0.60591   0.37853   0.00000  Uiso   1.00
C324   C     0.35577   0.68418   0.33652   0.00000  Uiso   1.00
C325   C     0.35301   0.73473   0.27411   0.00000  Uiso   1.00
C326   C     0.30230   0.80348   0.24381   0.00000  Uiso   1.00
C327   C     0.22974   0.92233   0.17382   0.00000  Uiso   1.00
C328   C     0.34977   0.56295   0.38184   0.00000  Uiso   1.00
C329   C     0.34197   0.51155   0.35754   0.00000  Uiso   1.00
C330   C     0.28622   0.47824   0.36540   0.00000  Uiso   1.00
C331   C     0.20439   0.40884   0.36583   0.00000  Uiso   1.00
C332   C     0.45713   0.59269   0.45642   0.00000  Uiso   1.00
C333   C     0.53961   0.56628   0.49484   0.00000  Uiso   1.00
C334   C     0.57425   0.55799   0.56550   0.00000  Uiso   1.00
C335   C     0.65911   0.53477   0.68172   0.00000  Uiso   1.00
C336   C     0.32186   0.63812   0.43571   0.00000  Uiso   1.00
C337   C     0.30951   0.70167   0.36758   0.00000  Uiso   1.00
C338   C     0.25880   0.77037   0.33737   0.00000  Uiso   1.00
C339   C     0.25597   0.82101   0.27492   0.00000  Uiso   1.00
C340   C     0.30352   0.58044   0.41290   0.00000  Uiso   1.00
C341   C     0.24777   0.54719   0.42080   0.00000  Uiso   1.00
C342   C     0.23989   0.49577   0.39651   0.00000  Uiso   1.00
C343   C     0.41088   0.61018   0.48748   0.00000  Uiso   1.00
C344   C     0.44540   0.60192   0.55810   0.00000  Uiso   1.00
C345   C     0.52791   0.57551   0.59661   0.00000  Uiso   1.00
H346   H     0.44301   0.59229   0.35436   0.00000  Uiso   1.00
H347   H     0.38880   0.72116   0.25009   0.00000  Uiso   1.00
H348   H     0.37778   0.49802   0.33352   0.00000  Uiso   1.00
H349   H     0.57538   0.55275   0.47079   0.00000  Uiso   1.00
H350   H     0.30828   0.87176   0.14816   0.00000  Uiso   1.00
H351   H     0.28506   0.40123   0.32410   0.00000  Uiso   1.00
H352   H     0.70174   0.51662   0.61357   0.00000  Uiso   1.00
H353   H     0.28585   0.65175   0.45989   0.00000  Uiso   1.00
H354   H     0.22301   0.78389   0.36141   0.00000  Uiso   1.00
H355   H     0.21199   0.56074   0.44484   0.00000  Uiso   1.00
H356   H     0.40959   0.61547   0.58211   0.00000  Uiso   1.00
H357   H     0.17372   0.92267   0.23851   0.00000  Uiso   1.00
H358   H     0.15050   0.45213   0.41446   0.00000  Uiso   1.00
H359   H     0.56718   0.56753   0.70393   0.00000  Uiso   1.00
O360   O     0.20248   0.98306   0.12664   0.00000  Uiso   1.00
O361   O     0.17203   0.36574   0.35748   0.00000  Uiso   1.00
O362   O     0.71870   0.51713   0.73725   0.00000  Uiso   1.00
N363   N     0.28525   0.86561   0.18295   0.00000  Uiso   1.00
N364   N     0.26353   0.42570   0.34743   0.00000  Uiso   1.00
N365   N     0.65309   0.53356   0.61807   0.00000  Uiso   1.00
N366   N     0.21284   0.89300   0.23157   0.00000  Uiso   1.00
N367   N     0.19112   0.45309   0.39605   0.00000  Uiso   1.00
N368   N     0.58068   0.56096   0.66669   0.00000  Uiso   1.00
C369   C     0.04215   0.91412   0.68087   0.00000  Uiso   1.00
C370   C     0.08254   0.89707   0.76099   0.00000  Uiso   1.00
C371   C     0.14536   0.91873   0.79370   0.00000  Uiso   1.00
C372   C     0.17394   0.89765   0.86764   0.00000  Uiso   1.00
C373   C     0.24167   0.87748   0.98600   0.00000  Uiso   1.00
C374   C     0.95399   0.95078   0.65228   0.00000  Uiso   1.00
C375   C     0.90873   0.01760   0.59358   0.00000  Uiso   1.00
C376   C     0.82910   0.04172   0.57601   0.00000  Uiso   1.00
C377   C     0.69724   0.10493   0.52555   0.00000  Uiso   1.00
C378   C     0.04815   0.84244   0.67948   0.00000  Uiso   1.00
C379   C     0.08203   0.81816   0.64363   0.00000  Uiso   1.00
C380   C     0.08165   0.75107   0.64894   0.00000  Uiso   1.00
C381   C     0.09598   0.64605   0.64071   0.00000  Uiso   1.00
C382   C     0.98121   0.83813   0.75403   0.00000  Uiso   1.00
C383   C     0.04943   0.85580   0.80073   0.00000  Uiso   1.00
C384   C     0.07793   0.83467   0.87464   0.00000  Uiso   1.00
C385   C     0.14079   0.85630   0.90745   0.00000  Uiso   1.00
C386   C     0.92089   0.90951   0.69202   0.00000  Uiso   1.00
C387   C     0.84130   0.93354   0.67452   0.00000  Uiso   1.00
C388   C     0.79593   0.00038   0.61581   0.00000  Uiso   1.00
C389   C     0.01505   0.80116   0.71922   0.00000  Uiso   1.00
C390   C     0.01461   0.73409   0.72457   0.00000  Uiso   1.00
C391   C     0.04849   0.70972   0.68875   0.00000  Uiso   1.00
H392   H     0.06792   0.94625   0.64994   0.00000  Uiso   1.00
H393   H     0.17096   0.95068   0.76293   0.00000  Uiso   1.00
H394   H     0.93436   0.04953   0.56284   0.00000  Uiso   1.00
H395   H     0.10764   0.85012   0.61289   0.00000  Uiso   1.00
H396   H     0.27058   0.93741   0.90572   0.00000  Uiso   1.00
H397   H     0.77170   0.14583   0.48380   0.00000  Uiso   1.00
H398   H     0.13709   0.72533   0.58933   0.00000  Uiso   1.00
H399   H     0.95543   0.80600   0.78497   0.00000  Uiso   1.00
H400   H     0.05230   0.80273   0.90538   0.00000  Uiso   1.00
H401   H     0.81571   0.90158   0.70528   0.00000  Uiso   1.00
H402   H     0.98899   0.70217   0.75533   0.00000  Uiso   1.00
H403   H     0.17427   0.81733   0.02134   0.00000  Uiso   1.00
H404   H     0.67539   0.02575   0.59941   0.00000  Uiso   1.00
H405   H     0.04078   0.60525   0.70495   0.00000  Uiso   1.00
O406   O     0.28816   0.87777   0.04030   0.00000  Uiso   1.00
O407   O     0.63365   0.15120   0.48675   0.00000  Uiso   1.00
O408   O     0.11304   0.59952   0.62520   0.00000  Uiso   1.00
N409   N     0.23463   0.90959   0.91641   0.00000  Uiso   1.00
N410   N     0.76821   0.10445   0.52195   0.00000  Uiso   1.00
N411   N     0.10980   0.71133   0.62059   0.00000  Uiso   1.00
N412   N     0.18281   0.84497   0.97862   0.00000  Uiso   1.00
N413   N     0.71639   0.03983   0.58416   0.00000  Uiso   1.00
N414   N     0.05798   0.64672   0.68281   0.00000  Uiso   1.00
C415   C     0.42987   0.33047   0.97894   0.00000  Uiso   1.00
C416   C     0.47014   0.24986   0.02160   0.00000  Uiso   1.00
C417   C     0.53892   0.21255   0.02617   0.00000  Uiso   1.00
C418   C     0.56627   0.13899   0.06794   0.00000  Uiso   1.00
C419   C     0.63488   0.01914   0.12870   0.00000  Uiso   1.00
C420   C     0.34449   0.34221   0.92685   0.00000  Uiso   1.00
C421   C     0.30763   0.38255   0.85176   0.00000  Uiso   1.00
C422   C     0.22921   0.38672   0.81377   0.00000  Uiso   1.00
C423   C     0.10273   0.41028   0.72743   0.00000  Uiso   1.00
C424   C     0.42443   0.35526   0.03362   0.00000  Uiso   1.00
C425   C     0.45476   0.40659   0.04830   0.00000  Uiso   1.00
C426   C     0.44362   0.42176   0.10020   0.00000  Uiso   1.00
C427   C     0.44125   0.46559   0.17964   0.00000  Uiso   1.00
C428   C     0.35613   0.26616   0.04500   0.00000  Uiso   1.00
C429   C     0.43009   0.21494   0.05748   0.00000  Uiso   1.00
C430   C     0.45734   0.14141   0.09926   0.00000  Uiso   1.00
C431   C     0.52615   0.10399   0.10389   0.00000  Uiso   1.00
C432   C     0.30444   0.30728   0.96273   0.00000  Uiso   1.00
C433   C     0.22605   0.31140   0.92485   0.00000  Uiso   1.00
C434   C     0.18908   0.35173   0.84972   0.00000  Uiso   1.00
C435   C     0.38438   0.32033   0.06951   0.00000  Uiso   1.00
C436   C     0.37319   0.33544   0.12139   0.00000  Uiso   1.00
C437   C     0.40350   0.38677   0.13614   0.00000  Uiso   1.00
H438   H     0.46104   0.35766   0.95100   0.00000  Uiso   1.00
H439   H     0.56989   0.23960   0.99839   0.00000  Uiso   1.00
H440   H     0.33864   0.40957   0.82401   0.00000  Uiso   1.00
H441   H     0.48575   0.43360   0.02052   0.00000  Uiso   1.00
H442   H     0.67290   0.09331   0.06673   0.00000  Uiso   1.00
H443   H     0.18527   0.45172   0.69904   0.00000  Uiso   1.00
H444   H     0.49548   0.50240   0.11342   0.00000  Uiso   1.00
H445   H     0.32495   0.23897   0.07293   0.00000  Uiso   1.00
H446   H     0.42634   0.11439   0.12702   0.00000  Uiso   1.00
H447   H     0.19508   0.28437   0.95263   0.00000  Uiso   1.00
H448   H     0.34219   0.30840   0.14915   0.00000  Uiso   1.00
H449   H     0.55638   0.99168   0.17113   0.00000  Uiso   1.00
H450   H     0.06875   0.35010   0.80344   0.00000  Uiso   1.00
H451   H     0.37897   0.40077   0.21782   0.00000  Uiso   1.00
O452   O     0.68378   0.96269   0.15229   0.00000  Uiso   1.00
O453   O     0.04403   0.43292   0.66990   0.00000  Uiso   1.00
O454   O     0.45102   0.49940   0.21356   0.00000  Uiso   1.00
N455   N     0.63157   0.08649   0.08389   0.00000  Uiso   1.00
N456   N     0.17567   0.42158   0.74012   0.00000  Uiso   1.00
N457   N     0.46568   0.46897   0.12752   0.00000  Uiso   1.00
N458   N     0.56887   0.03181   0.14007   0.00000  Uiso   1.00
N459   N     0.11298   0.36689   0.79630   0.00000  Uiso   1.00
N460   N     0.40298   0.41428   0.18370   0.00000  Uiso   1.00
C461   C     0.52298   0.94848   0.66889   0.00000  Uiso   1.00
C462   C     0.51078   0.97902   0.71768   0.00000  Uiso   1.00
C463   C     0.57041   0.98438   0.77334   0.00000  Uiso   1.00
C464   C     0.54704   0.01389   0.81168   0.00000  Uiso   1.00
C465   C     0.54029   0.05774   0.89001   0.00000  Uiso   1.00
C466   C     0.48575   0.88882   0.67685   0.00000  Uiso   1.00
C467   C     0.52433   0.81834   0.69816   0.00000  Uiso   1.00
C468   C     0.47988   0.77193   0.70212   0.00000  Uiso   1.00
C469   C     0.43426   0.67575   0.71700   0.00000  Uiso   1.00
C470   C     0.47131   0.00697   0.59098   0.00000  Uiso   1.00
C471   C     0.49774   0.03583   0.54009   0.00000  Uiso   1.00
C472   C     0.44112   0.08888   0.47175   0.00000  Uiso   1.00
C473   C     0.37307   0.17615   0.35332   0.00000  Uiso   1.00
C474   C     0.37544   0.99136   0.63800   0.00000  Uiso   1.00
C475   C     0.43064   0.00231   0.70090   0.00000  Uiso   1.00
C476   C     0.40718   0.03183   0.73916   0.00000  Uiso   1.00
C477   C     0.46676   0.03723   0.79487   0.00000  Uiso   1.00
C478   C     0.40562   0.91211   0.66007   0.00000  Uiso   1.00
C479   C     0.36110   0.86579   0.66399   0.00000  Uiso   1.00
C480   C     0.39960   0.79526   0.68531   0.00000  Uiso   1.00
C481   C     0.39117   0.03027   0.57420   0.00000  Uiso   1.00
C482   C     0.33450   0.08328   0.50592   0.00000  Uiso   1.00
C483   C     0.36084   0.11221   0.45494   0.00000  Uiso   1.00
H484   H     0.58537   0.93034   0.68196   0.00000  Uiso   1.00
H485   H     0.63242   0.96634   0.78631   0.00000  Uiso   1.00
H486   H     0.58635   0.80034   0.71114   0.00000  Uiso   1.00
H487   H     0.55976   0.01779   0.55310   0.00000  Uiso   1.00
H488   H     0.64925   0.01651   0.89463   0.00000  Uiso   1.00
H489   H     0.55209   0.66647   0.73610   0.00000  Uiso   1.00
H490   H     0.49602   0.12502   0.40284   0.00000  Uiso   1.00
H491   H     0.31305   0.00950   0.62493   0.00000  Uiso   1.00
H492   H     0.34515   0.04985   0.72616   0.00000  Uiso   1.00
H493   H     0.29908   0.88383   0.65099   0.00000  Uiso   1.00
H494   H     0.27249   0.10129   0.49295   0.00000  Uiso   1.00
H495   H     0.41609   0.08428   0.84582   0.00000  Uiso   1.00
H496   H     0.31893   0.73424   0.68728   0.00000  Uiso   1.00
H497   H     0.26286   0.19279   0.35402   0.00000  Uiso   1.00
O498   O     0.55871   0.07548   0.93786   0.00000  Uiso   1.00
O499   O     0.43123   0.61626   0.72986   0.00000  Uiso   1.00
O500   O     0.35768   0.21786   0.29263   0.00000  Uiso   1.00
N501   N     0.58997   0.02693   0.86924   0.00000  Uiso   1.00
N502   N     0.49913   0.69967   0.72104   0.00000  Uiso   1.00
N503   N     0.44671   0.12836   0.40946   0.00000  Uiso   1.00
N504   N     0.46451   0.06340   0.84297   0.00000  Uiso   1.00
N505   N     0.37367   0.73614   0.69477   0.00000  Uiso   1.00
N506   N     0.32125   0.16483   0.38319   0.00000  Uiso   1.00
C507   C     0.91246   0.55950   0.41723   0.00000  Uiso   1.00
C508   C     0.85633   0.60975   0.33710   0.00000  Uiso   1.00
C509   C     0.87752   0.65282   0.28743   0.00000  Uiso   1.00
C510   C     0.81744   0.69498   0.21666   0.00000  Uiso   1.00
C511   C     0.74220   0.77317   0.09533   0.00000  Uiso   1.00
C512   C     0.87685   0.58175   0.45995   0.00000  Uiso   1.00
C513   C     0.91532   0.60126   0.51358   0.00000  Uiso   1.00
C514   C     0.87252   0.61984   0.54623   0.00000  Uiso   1.00
C515   C     0.82917   0.65451   0.61567   0.00000  Uiso   1.00
C516   C     0.90524   0.48583   0.42903   0.00000  Uiso   1.00
C517   C     0.96758   0.42469   0.45668   0.00000  Uiso   1.00
C518   C     0.94868   0.36251   0.46331   0.00000  Uiso   1.00
C519   C     0.94941   0.24826   0.48475   0.00000  Uiso   1.00
C520   C     0.76806   0.55778   0.37986   0.00000  Uiso   1.00
C521   C     0.77789   0.60882   0.31681   0.00000  Uiso   1.00
C522   C     0.71776   0.65092   0.24609   0.00000  Uiso   1.00
C523   C     0.73887   0.69404   0.19632   0.00000  Uiso   1.00
C524   C     0.79842   0.58082   0.43966   0.00000  Uiso   1.00
C525   C     0.75555   0.59936   0.47224   0.00000  Uiso   1.00
C526   C     0.79394   0.61891   0.52590   0.00000  Uiso   1.00
C527   C     0.82681   0.48490   0.40873   0.00000  Uiso   1.00
C528   C     0.80781   0.42280   0.41533   0.00000  Uiso   1.00
C529   C     0.87011   0.36158   0.44298   0.00000  Uiso   1.00
H530   H     0.97352   0.56023   0.43303   0.00000  Uiso   1.00
H531   H     0.93823   0.65353   0.30316   0.00000  Uiso   1.00
H532   H     0.97602   0.60198   0.52928   0.00000  Uiso   1.00
H533   H     0.02827   0.42544   0.47238   0.00000  Uiso   1.00
H534   H     0.86450   0.75659   0.15023   0.00000  Uiso   1.00
H535   H     0.94419   0.64785   0.62703   0.00000  Uiso   1.00
H536   H     0.05438   0.27558   0.50705   0.00000  Uiso   1.00
H537   H     0.70699   0.55705   0.36406   0.00000  Uiso   1.00
H538   H     0.65707   0.65018   0.23040   0.00000  Uiso   1.00
H539   H     0.69486   0.59863   0.45652   0.00000  Uiso   1.00
H540   H     0.74711   0.42209   0.39962   0.00000  Uiso   1.00
H541   H     0.63630   0.75387   0.09117   0.00000  Uiso   1.00
H542   H     0.71599   0.64514   0.56798   0.00000  Uiso   1.00
H543   H     0.82617   0.27287   0.44800   0.00000  Uiso   1.00
O544   O     0.72237   0.81657   0.03402   0.00000  Uiso   1.00
O545   O     0.82692   0.67390   0.65958   0.00000  Uiso   1.00
O546   O     0.97148   0.18550   0.50217   0.00000  Uiso   1.00
N547   N     0.81765   0.74316   0.15467   0.00000  Uiso   1.00
N548   N     0.89215   0.64151   0.60044   0.00000  Uiso   1.00
N549   N     0.99517   0.29346   0.48829   0.00000  Uiso   1.00
N550   N     0.69486   0.74169   0.12289   0.00000  Uiso   1.00
N551   N     0.76936   0.64005   0.56866   0.00000  Uiso   1.00
N552   N     0.87237   0.29200   0.45651   0.00000  Uiso   1.00
