data_job_04359
_audit_creation_date              2018-12-19
_audit_creation_method            'Materials Studio'
_symmetry_space_group_name_H-M    'P1'
_symmetry_Int_Tables_number       1
_symmetry_cell_setting            triclinic
loop_
_symmetry_equiv_pos_as_xyz
  x,y,z
_cell_length_a                    15.3167
_cell_length_b                    10.0891
_cell_length_c                    27.7415
_cell_angle_alpha                 90.0000
_cell_angle_beta                  90.0000
_cell_angle_gamma                 90.0000
loop_
_atom_site_label
_atom_site_type_symbol
_atom_site_fract_x
_atom_site_fract_y
_atom_site_fract_z
_atom_site_U_iso_or_equiv
_atom_site_adp_type
_atom_site_occupancy
C1     C     0.50342   0.70770   0.08306   0.00000  Uiso   1.00
C2     C     0.57906   0.79572   0.06716   0.00000  Uiso   1.00
C3     C     0.60488   0.81798   0.01990   0.00000  Uiso   1.00
C4     C     0.67565   0.90177   0.01287   0.00000  Uiso   1.00
C5     C     0.78654   0.02936   0.98227   0.00000  Uiso   1.00
C6     C     0.54225   0.60661   0.11785   0.00000  Uiso   1.00
C7     C     0.53712   0.46987   0.11321   0.00000  Uiso   1.00
C8     C     0.57690   0.39446   0.14885   0.00000  Uiso   1.00
C9     C     0.63059   0.22846   0.19696   0.00000  Uiso   1.00
C10    C     0.44361   0.79560   0.11321   0.00000  Uiso   1.00
C11    C     0.35553   0.81774   0.10468   0.00000  Uiso   1.00
C12    C     0.31226   0.90143   0.13642   0.00000  Uiso   1.00
C13    C     0.21279   0.02887   0.17733   0.00000  Uiso   1.00
C14    C     0.58318   0.81692   0.15462   0.00000  Uiso   1.00
C15    C     0.62238   0.85504   0.10603   0.00000  Uiso   1.00
C16    C     0.69313   0.93882   0.09907   0.00000  Uiso   1.00
C17    C     0.71905   0.96120   0.05181   0.00000  Uiso   1.00
C18    C     0.58558   0.66593   0.15672   0.00000  Uiso   1.00
C19    C     0.62537   0.59071   0.19238   0.00000  Uiso   1.00
C20    C     0.62030   0.45389   0.18779   0.00000  Uiso   1.00
C21    C     0.48694   0.85493   0.15208   0.00000  Uiso   1.00
C22    C     0.44379   0.93859   0.18385   0.00000  Uiso   1.00
C23    C     0.35566   0.96086   0.17536   0.00000  Uiso   1.00
H24    H     0.46969   0.66151   0.05280   0.00000  Uiso   1.00
H25    H     0.57134   0.77204   0.98983   0.00000  Uiso   1.00
H26    H     0.50358   0.42399   0.08313   0.00000  Uiso   1.00
H27    H     0.32203   0.77182   0.07460   0.00000  Uiso   1.00
H28    H     0.70317   0.92072   0.93716   0.00000  Uiso   1.00
H29    H     0.56027   0.18682   0.13388   0.00000  Uiso   1.00
H30    H     0.17742   0.92029   0.11590   0.00000  Uiso   1.00
H31    H     0.61691   0.86310   0.18488   0.00000  Uiso   1.00
H32    H     0.72665   0.98471   0.12916   0.00000  Uiso   1.00
H33    H     0.65889   0.63665   0.22245   0.00000  Uiso   1.00
H34    H     0.47733   0.98448   0.21392   0.00000  Uiso   1.00
H35    H     0.82922   0.09332   0.05024   0.00000  Uiso   1.00
H36    H     0.68632   0.35942   0.24697   0.00000  Uiso   1.00
H37    H     0.30347   0.09289   0.22898   0.00000  Uiso   1.00
O38    O     0.83574   0.08334   0.95466   0.00000  Uiso   1.00
O39    O     0.64824   0.12050   0.21276   0.00000  Uiso   1.00
O40    O     0.14596   0.08279   0.18916   0.00000  Uiso   1.00
N41    N     0.71776   0.94467   0.97142   0.00000  Uiso   1.00
N42    N     0.58417   0.25852   0.15534   0.00000  Uiso   1.00
N43    N     0.22623   0.94422   0.13853   0.00000  Uiso   1.00
N44    N     0.78559   0.03755   0.03227   0.00000  Uiso   1.00
N45    N     0.65200   0.35140   0.21619   0.00000  Uiso   1.00
N46    N     0.29406   0.03710   0.19938   0.00000  Uiso   1.00
C47    C     0.99658   0.79230   0.58306   0.00000  Uiso   1.00
C48    C     0.92094   0.70428   0.56716   0.00000  Uiso   1.00
C49    C     0.89512   0.68202   0.51990   0.00000  Uiso   1.00
C50    C     0.82435   0.59823   0.51287   0.00000  Uiso   1.00
C51    C     0.71346   0.47064   0.48227   0.00000  Uiso   1.00
C52    C     0.95775   0.89339   0.61785   0.00000  Uiso   1.00
C53    C     0.96288   0.03013   0.61321   0.00000  Uiso   1.00
C54    C     0.92310   0.10554   0.64885   0.00000  Uiso   1.00
C55    C     0.86941   0.27154   0.69696   0.00000  Uiso   1.00
C56    C     0.05639   0.70440   0.61321   0.00000  Uiso   1.00
C57    C     0.14447   0.68226   0.60468   0.00000  Uiso   1.00
C58    C     0.18774   0.59857   0.63642   0.00000  Uiso   1.00
C59    C     0.28721   0.47113   0.67733   0.00000  Uiso   1.00
C60    C     0.91682   0.68308   0.65462   0.00000  Uiso   1.00
C61    C     0.87762   0.64496   0.60603   0.00000  Uiso   1.00
C62    C     0.80687   0.56118   0.59907   0.00000  Uiso   1.00
C63    C     0.78095   0.53880   0.55181   0.00000  Uiso   1.00
C64    C     0.91442   0.83407   0.65672   0.00000  Uiso   1.00
C65    C     0.87463   0.90929   0.69238   0.00000  Uiso   1.00
C66    C     0.87970   0.04611   0.68779   0.00000  Uiso   1.00
C67    C     0.01306   0.64507   0.65208   0.00000  Uiso   1.00
C68    C     0.05621   0.56141   0.68385   0.00000  Uiso   1.00
C69    C     0.14434   0.53914   0.67536   0.00000  Uiso   1.00
H70    H     0.03031   0.83849   0.55280   0.00000  Uiso   1.00
H71    H     0.92866   0.72796   0.48983   0.00000  Uiso   1.00
H72    H     0.99642   0.07601   0.58313   0.00000  Uiso   1.00
H73    H     0.17797   0.72818   0.57460   0.00000  Uiso   1.00
H74    H     0.79683   0.57928   0.43716   0.00000  Uiso   1.00
H75    H     0.93973   0.31318   0.63388   0.00000  Uiso   1.00
H76    H     0.32258   0.57971   0.61590   0.00000  Uiso   1.00
H77    H     0.88309   0.63690   0.68488   0.00000  Uiso   1.00
H78    H     0.77335   0.51529   0.62916   0.00000  Uiso   1.00
H79    H     0.84111   0.86335   0.72245   0.00000  Uiso   1.00
H80    H     0.02267   0.51552   0.71392   0.00000  Uiso   1.00
H81    H     0.67078   0.40668   0.55024   0.00000  Uiso   1.00
H82    H     0.81368   0.14058   0.74697   0.00000  Uiso   1.00
H83    H     0.19653   0.40711   0.72898   0.00000  Uiso   1.00
O84    O     0.66426   0.41666   0.45466   0.00000  Uiso   1.00
O85    O     0.85176   0.37950   0.71276   0.00000  Uiso   1.00
O86    O     0.35404   0.41721   0.68916   0.00000  Uiso   1.00
N87    N     0.78224   0.55533   0.47142   0.00000  Uiso   1.00
N88    N     0.91583   0.24148   0.65534   0.00000  Uiso   1.00
N89    N     0.27377   0.55578   0.63853   0.00000  Uiso   1.00
N90    N     0.71441   0.46245   0.53227   0.00000  Uiso   1.00
N91    N     0.84800   0.14860   0.71619   0.00000  Uiso   1.00
N92    N     0.20594   0.46290   0.69938   0.00000  Uiso   1.00
C93    C     0.49658   0.70770   0.41694   0.00000  Uiso   1.00
C94    C     0.42094   0.79572   0.43284   0.00000  Uiso   1.00
C95    C     0.39512   0.81798   0.48010   0.00000  Uiso   1.00
C96    C     0.32435   0.90177   0.48713   0.00000  Uiso   1.00
C97    C     0.21346   0.02936   0.51773   0.00000  Uiso   1.00
C98    C     0.45775   0.60661   0.38215   0.00000  Uiso   1.00
C99    C     0.46288   0.46987   0.38679   0.00000  Uiso   1.00
C100   C     0.42310   0.39446   0.35115   0.00000  Uiso   1.00
C101   C     0.36941   0.22846   0.30304   0.00000  Uiso   1.00
C102   C     0.55639   0.79560   0.38679   0.00000  Uiso   1.00
C103   C     0.64447   0.81774   0.39532   0.00000  Uiso   1.00
C104   C     0.68774   0.90143   0.36358   0.00000  Uiso   1.00
C105   C     0.78721   0.02887   0.32267   0.00000  Uiso   1.00
C106   C     0.41682   0.81692   0.34538   0.00000  Uiso   1.00
C107   C     0.37762   0.85504   0.39397   0.00000  Uiso   1.00
C108   C     0.30687   0.93882   0.40093   0.00000  Uiso   1.00
C109   C     0.28095   0.96120   0.44819   0.00000  Uiso   1.00
C110   C     0.41442   0.66593   0.34328   0.00000  Uiso   1.00
C111   C     0.37463   0.59071   0.30762   0.00000  Uiso   1.00
C112   C     0.37970   0.45389   0.31221   0.00000  Uiso   1.00
C113   C     0.51306   0.85493   0.34792   0.00000  Uiso   1.00
C114   C     0.55621   0.93859   0.31615   0.00000  Uiso   1.00
C115   C     0.64434   0.96086   0.32464   0.00000  Uiso   1.00
H116   H     0.53031   0.66151   0.44720   0.00000  Uiso   1.00
H117   H     0.42866   0.77204   0.51017   0.00000  Uiso   1.00
H118   H     0.49642   0.42399   0.41687   0.00000  Uiso   1.00
H119   H     0.67797   0.77182   0.42540   0.00000  Uiso   1.00
H120   H     0.29683   0.92072   0.56284   0.00000  Uiso   1.00
H121   H     0.43973   0.18682   0.36612   0.00000  Uiso   1.00
H122   H     0.82258   0.92029   0.38410   0.00000  Uiso   1.00
H123   H     0.38309   0.86310   0.31512   0.00000  Uiso   1.00
H124   H     0.27335   0.98471   0.37084   0.00000  Uiso   1.00
H125   H     0.34111   0.63665   0.27755   0.00000  Uiso   1.00
H126   H     0.52267   0.98448   0.28608   0.00000  Uiso   1.00
H127   H     0.17078   0.09332   0.44976   0.00000  Uiso   1.00
H128   H     0.31368   0.35942   0.25303   0.00000  Uiso   1.00
H129   H     0.69653   0.09289   0.27102   0.00000  Uiso   1.00
O130   O     0.16426   0.08334   0.54534   0.00000  Uiso   1.00
O131   O     0.35176   0.12050   0.28724   0.00000  Uiso   1.00
O132   O     0.85404   0.08279   0.31084   0.00000  Uiso   1.00
N133   N     0.28224   0.94467   0.52858   0.00000  Uiso   1.00
N134   N     0.41583   0.25852   0.34466   0.00000  Uiso   1.00
N135   N     0.77377   0.94422   0.36147   0.00000  Uiso   1.00
N136   N     0.21441   0.03755   0.46773   0.00000  Uiso   1.00
N137   N     0.34800   0.35140   0.28381   0.00000  Uiso   1.00
N138   N     0.70594   0.03710   0.30062   0.00000  Uiso   1.00
C139   C     0.00342   0.79230   0.91694   0.00000  Uiso   1.00
C140   C     0.07906   0.70428   0.93284   0.00000  Uiso   1.00
C141   C     0.10488   0.68202   0.98010   0.00000  Uiso   1.00
C142   C     0.17565   0.59823   0.98713   0.00000  Uiso   1.00
C143   C     0.28654   0.47064   0.01773   0.00000  Uiso   1.00
C144   C     0.04225   0.89339   0.88215   0.00000  Uiso   1.00
C145   C     0.03712   0.03013   0.88679   0.00000  Uiso   1.00
C146   C     0.07690   0.10554   0.85115   0.00000  Uiso   1.00
C147   C     0.13059   0.27154   0.80304   0.00000  Uiso   1.00
C148   C     0.94361   0.70440   0.88679   0.00000  Uiso   1.00
C149   C     0.85553   0.68226   0.89532   0.00000  Uiso   1.00
C150   C     0.81226   0.59857   0.86358   0.00000  Uiso   1.00
C151   C     0.71279   0.47113   0.82267   0.00000  Uiso   1.00
C152   C     0.08318   0.68308   0.84538   0.00000  Uiso   1.00
C153   C     0.12238   0.64496   0.89397   0.00000  Uiso   1.00
C154   C     0.19313   0.56118   0.90093   0.00000  Uiso   1.00
C155   C     0.21905   0.53880   0.94819   0.00000  Uiso   1.00
C156   C     0.08558   0.83407   0.84328   0.00000  Uiso   1.00
C157   C     0.12537   0.90929   0.80762   0.00000  Uiso   1.00
C158   C     0.12030   0.04611   0.81221   0.00000  Uiso   1.00
C159   C     0.98694   0.64507   0.84792   0.00000  Uiso   1.00
C160   C     0.94379   0.56141   0.81615   0.00000  Uiso   1.00
C161   C     0.85566   0.53914   0.82464   0.00000  Uiso   1.00
H162   H     0.96969   0.83849   0.94720   0.00000  Uiso   1.00
H163   H     0.07134   0.72796   0.01017   0.00000  Uiso   1.00
H164   H     0.00358   0.07601   0.91687   0.00000  Uiso   1.00
H165   H     0.82203   0.72818   0.92540   0.00000  Uiso   1.00
H166   H     0.20317   0.57928   0.06284   0.00000  Uiso   1.00
H167   H     0.06027   0.31318   0.86612   0.00000  Uiso   1.00
H168   H     0.67742   0.57971   0.88410   0.00000  Uiso   1.00
H169   H     0.11691   0.63690   0.81512   0.00000  Uiso   1.00
H170   H     0.22665   0.51529   0.87084   0.00000  Uiso   1.00
H171   H     0.15889   0.86335   0.77755   0.00000  Uiso   1.00
H172   H     0.97733   0.51552   0.78608   0.00000  Uiso   1.00
H173   H     0.32922   0.40668   0.94976   0.00000  Uiso   1.00
H174   H     0.18632   0.14058   0.75303   0.00000  Uiso   1.00
H175   H     0.80347   0.40711   0.77102   0.00000  Uiso   1.00
O176   O     0.33574   0.41666   0.04534   0.00000  Uiso   1.00
O177   O     0.14824   0.37950   0.78724   0.00000  Uiso   1.00
O178   O     0.64596   0.41721   0.81084   0.00000  Uiso   1.00
N179   N     0.21776   0.55533   0.02858   0.00000  Uiso   1.00
N180   N     0.08417   0.24148   0.84466   0.00000  Uiso   1.00
N181   N     0.72623   0.55578   0.86147   0.00000  Uiso   1.00
N182   N     0.28559   0.46245   0.96773   0.00000  Uiso   1.00
N183   N     0.15200   0.14860   0.78381   0.00000  Uiso   1.00
N184   N     0.79406   0.46290   0.80062   0.00000  Uiso   1.00
C185   C     0.49658   0.29230   0.91694   0.00000  Uiso   1.00
C186   C     0.42094   0.20428   0.93284   0.00000  Uiso   1.00
C187   C     0.39512   0.18202   0.98010   0.00000  Uiso   1.00
C188   C     0.32435   0.09823   0.98713   0.00000  Uiso   1.00
C189   C     0.21346   0.97064   0.01773   0.00000  Uiso   1.00
C190   C     0.45775   0.39339   0.88215   0.00000  Uiso   1.00
C191   C     0.46288   0.53013   0.88679   0.00000  Uiso   1.00
C192   C     0.42310   0.60554   0.85115   0.00000  Uiso   1.00
C193   C     0.36941   0.77154   0.80304   0.00000  Uiso   1.00
C194   C     0.55639   0.20440   0.88679   0.00000  Uiso   1.00
C195   C     0.64447   0.18226   0.89532   0.00000  Uiso   1.00
C196   C     0.68774   0.09857   0.86358   0.00000  Uiso   1.00
C197   C     0.78721   0.97113   0.82267   0.00000  Uiso   1.00
C198   C     0.41682   0.18308   0.84538   0.00000  Uiso   1.00
C199   C     0.37762   0.14496   0.89397   0.00000  Uiso   1.00
C200   C     0.30687   0.06118   0.90093   0.00000  Uiso   1.00
C201   C     0.28095   0.03880   0.94819   0.00000  Uiso   1.00
C202   C     0.41442   0.33407   0.84328   0.00000  Uiso   1.00
C203   C     0.37463   0.40929   0.80762   0.00000  Uiso   1.00
C204   C     0.37970   0.54611   0.81221   0.00000  Uiso   1.00
C205   C     0.51306   0.14507   0.84792   0.00000  Uiso   1.00
C206   C     0.55621   0.06141   0.81615   0.00000  Uiso   1.00
C207   C     0.64434   0.03914   0.82464   0.00000  Uiso   1.00
H208   H     0.53031   0.33849   0.94720   0.00000  Uiso   1.00
H209   H     0.42866   0.22796   0.01017   0.00000  Uiso   1.00
H210   H     0.49642   0.57601   0.91687   0.00000  Uiso   1.00
H211   H     0.67797   0.22818   0.92540   0.00000  Uiso   1.00
H212   H     0.29683   0.07928   0.06284   0.00000  Uiso   1.00
H213   H     0.43973   0.81318   0.86612   0.00000  Uiso   1.00
H214   H     0.82258   0.07971   0.88410   0.00000  Uiso   1.00
H215   H     0.38309   0.13690   0.81512   0.00000  Uiso   1.00
H216   H     0.27335   0.01529   0.87084   0.00000  Uiso   1.00
H217   H     0.34111   0.36335   0.77755   0.00000  Uiso   1.00
H218   H     0.52267   0.01552   0.78608   0.00000  Uiso   1.00
H219   H     0.17078   0.90668   0.94976   0.00000  Uiso   1.00
H220   H     0.31368   0.64058   0.75303   0.00000  Uiso   1.00
H221   H     0.69653   0.90711   0.77102   0.00000  Uiso   1.00
O222   O     0.16426   0.91666   0.04534   0.00000  Uiso   1.00
O223   O     0.35176   0.87950   0.78724   0.00000  Uiso   1.00
O224   O     0.85404   0.91721   0.81084   0.00000  Uiso   1.00
N225   N     0.28224   0.05533   0.02858   0.00000  Uiso   1.00
N226   N     0.41583   0.74148   0.84466   0.00000  Uiso   1.00
N227   N     0.77377   0.05578   0.86147   0.00000  Uiso   1.00
N228   N     0.21441   0.96245   0.96773   0.00000  Uiso   1.00
N229   N     0.34800   0.64860   0.78381   0.00000  Uiso   1.00
N230   N     0.70594   0.96290   0.80062   0.00000  Uiso   1.00
C231   C     0.00342   0.20770   0.41694   0.00000  Uiso   1.00
C232   C     0.07906   0.29572   0.43284   0.00000  Uiso   1.00
C233   C     0.10488   0.31798   0.48010   0.00000  Uiso   1.00
C234   C     0.17565   0.40177   0.48713   0.00000  Uiso   1.00
C235   C     0.28654   0.52936   0.51773   0.00000  Uiso   1.00
C236   C     0.04225   0.10661   0.38215   0.00000  Uiso   1.00
C237   C     0.03712   0.96987   0.38679   0.00000  Uiso   1.00
C238   C     0.07690   0.89446   0.35115   0.00000  Uiso   1.00
C239   C     0.13059   0.72846   0.30304   0.00000  Uiso   1.00
C240   C     0.94361   0.29560   0.38679   0.00000  Uiso   1.00
C241   C     0.85553   0.31774   0.39532   0.00000  Uiso   1.00
C242   C     0.81226   0.40143   0.36358   0.00000  Uiso   1.00
C243   C     0.71279   0.52887   0.32267   0.00000  Uiso   1.00
C244   C     0.08318   0.31692   0.34538   0.00000  Uiso   1.00
C245   C     0.12238   0.35504   0.39397   0.00000  Uiso   1.00
C246   C     0.19313   0.43882   0.40093   0.00000  Uiso   1.00
C247   C     0.21905   0.46120   0.44819   0.00000  Uiso   1.00
C248   C     0.08558   0.16593   0.34328   0.00000  Uiso   1.00
C249   C     0.12537   0.09071   0.30762   0.00000  Uiso   1.00
C250   C     0.12030   0.95389   0.31221   0.00000  Uiso   1.00
C251   C     0.98694   0.35493   0.34792   0.00000  Uiso   1.00
C252   C     0.94379   0.43859   0.31615   0.00000  Uiso   1.00
C253   C     0.85566   0.46086   0.32464   0.00000  Uiso   1.00
H254   H     0.96969   0.16151   0.44720   0.00000  Uiso   1.00
H255   H     0.07134   0.27204   0.51017   0.00000  Uiso   1.00
H256   H     0.00358   0.92399   0.41687   0.00000  Uiso   1.00
H257   H     0.82203   0.27182   0.42540   0.00000  Uiso   1.00
H258   H     0.20317   0.42072   0.56284   0.00000  Uiso   1.00
H259   H     0.06027   0.68682   0.36612   0.00000  Uiso   1.00
H260   H     0.67742   0.42029   0.38410   0.00000  Uiso   1.00
H261   H     0.11691   0.36310   0.31512   0.00000  Uiso   1.00
H262   H     0.22665   0.48471   0.37084   0.00000  Uiso   1.00
H263   H     0.15889   0.13665   0.27755   0.00000  Uiso   1.00
H264   H     0.97733   0.48448   0.28608   0.00000  Uiso   1.00
H265   H     0.32922   0.59332   0.44976   0.00000  Uiso   1.00
H266   H     0.18632   0.85942   0.25303   0.00000  Uiso   1.00
H267   H     0.80347   0.59289   0.27102   0.00000  Uiso   1.00
O268   O     0.33574   0.58334   0.54534   0.00000  Uiso   1.00
O269   O     0.14824   0.62050   0.28724   0.00000  Uiso   1.00
O270   O     0.64596   0.58279   0.31084   0.00000  Uiso   1.00
N271   N     0.21776   0.44467   0.52858   0.00000  Uiso   1.00
N272   N     0.08417   0.75852   0.34466   0.00000  Uiso   1.00
N273   N     0.72623   0.44422   0.36147   0.00000  Uiso   1.00
N274   N     0.28559   0.53755   0.46773   0.00000  Uiso   1.00
N275   N     0.15200   0.85140   0.28381   0.00000  Uiso   1.00
N276   N     0.79406   0.53710   0.30062   0.00000  Uiso   1.00
C277   C     0.50342   0.29230   0.58306   0.00000  Uiso   1.00
C278   C     0.57906   0.20428   0.56716   0.00000  Uiso   1.00
C279   C     0.60488   0.18202   0.51990   0.00000  Uiso   1.00
C280   C     0.67565   0.09823   0.51287   0.00000  Uiso   1.00
C281   C     0.78654   0.97064   0.48227   0.00000  Uiso   1.00
C282   C     0.54225   0.39339   0.61785   0.00000  Uiso   1.00
C283   C     0.53712   0.53013   0.61321   0.00000  Uiso   1.00
C284   C     0.57690   0.60554   0.64885   0.00000  Uiso   1.00
C285   C     0.63059   0.77154   0.69696   0.00000  Uiso   1.00
C286   C     0.44361   0.20440   0.61321   0.00000  Uiso   1.00
C287   C     0.35553   0.18226   0.60468   0.00000  Uiso   1.00
C288   C     0.31226   0.09857   0.63642   0.00000  Uiso   1.00
C289   C     0.21279   0.97113   0.67733   0.00000  Uiso   1.00
C290   C     0.58318   0.18308   0.65462   0.00000  Uiso   1.00
C291   C     0.62238   0.14496   0.60603   0.00000  Uiso   1.00
C292   C     0.69313   0.06118   0.59907   0.00000  Uiso   1.00
C293   C     0.71905   0.03880   0.55181   0.00000  Uiso   1.00
C294   C     0.58558   0.33407   0.65672   0.00000  Uiso   1.00
C295   C     0.62537   0.40929   0.69238   0.00000  Uiso   1.00
C296   C     0.62030   0.54611   0.68779   0.00000  Uiso   1.00
C297   C     0.48694   0.14507   0.65208   0.00000  Uiso   1.00
C298   C     0.44379   0.06141   0.68385   0.00000  Uiso   1.00
C299   C     0.35566   0.03914   0.67536   0.00000  Uiso   1.00
H300   H     0.46969   0.33849   0.55280   0.00000  Uiso   1.00
H301   H     0.57134   0.22796   0.48983   0.00000  Uiso   1.00
H302   H     0.50358   0.57601   0.58313   0.00000  Uiso   1.00
H303   H     0.32203   0.22818   0.57460   0.00000  Uiso   1.00
H304   H     0.70317   0.07928   0.43716   0.00000  Uiso   1.00
H305   H     0.56027   0.81318   0.63388   0.00000  Uiso   1.00
H306   H     0.17742   0.07971   0.61590   0.00000  Uiso   1.00
H307   H     0.61691   0.13690   0.68488   0.00000  Uiso   1.00
H308   H     0.72665   0.01529   0.62916   0.00000  Uiso   1.00
H309   H     0.65889   0.36335   0.72245   0.00000  Uiso   1.00
H310   H     0.47733   0.01552   0.71392   0.00000  Uiso   1.00
H311   H     0.82922   0.90668   0.55024   0.00000  Uiso   1.00
H312   H     0.68632   0.64058   0.74697   0.00000  Uiso   1.00
H313   H     0.30347   0.90711   0.72898   0.00000  Uiso   1.00
O314   O     0.83574   0.91666   0.45466   0.00000  Uiso   1.00
O315   O     0.64824   0.87950   0.71276   0.00000  Uiso   1.00
O316   O     0.14596   0.91721   0.68916   0.00000  Uiso   1.00
N317   N     0.71776   0.05533   0.47142   0.00000  Uiso   1.00
N318   N     0.58417   0.74148   0.65534   0.00000  Uiso   1.00
N319   N     0.22623   0.05578   0.63853   0.00000  Uiso   1.00
N320   N     0.78559   0.96245   0.53227   0.00000  Uiso   1.00
N321   N     0.65200   0.64860   0.71619   0.00000  Uiso   1.00
N322   N     0.29406   0.96290   0.69938   0.00000  Uiso   1.00
C323   C     0.99658   0.20770   0.08306   0.00000  Uiso   1.00
C324   C     0.92094   0.29572   0.06716   0.00000  Uiso   1.00
C325   C     0.89512   0.31798   0.01990   0.00000  Uiso   1.00
C326   C     0.82435   0.40177   0.01287   0.00000  Uiso   1.00
C327   C     0.71346   0.52936   0.98227   0.00000  Uiso   1.00
C328   C     0.95775   0.10661   0.11785   0.00000  Uiso   1.00
C329   C     0.96288   0.96987   0.11321   0.00000  Uiso   1.00
C330   C     0.92310   0.89446   0.14885   0.00000  Uiso   1.00
C331   C     0.86941   0.72846   0.19696   0.00000  Uiso   1.00
C332   C     0.05639   0.29560   0.11321   0.00000  Uiso   1.00
C333   C     0.14447   0.31774   0.10468   0.00000  Uiso   1.00
C334   C     0.18774   0.40143   0.13642   0.00000  Uiso   1.00
C335   C     0.28721   0.52887   0.17733   0.00000  Uiso   1.00
C336   C     0.91682   0.31692   0.15462   0.00000  Uiso   1.00
C337   C     0.87762   0.35504   0.10603   0.00000  Uiso   1.00
C338   C     0.80687   0.43882   0.09907   0.00000  Uiso   1.00
C339   C     0.78095   0.46120   0.05181   0.00000  Uiso   1.00
C340   C     0.91442   0.16593   0.15672   0.00000  Uiso   1.00
C341   C     0.87463   0.09071   0.19238   0.00000  Uiso   1.00
C342   C     0.87970   0.95389   0.18779   0.00000  Uiso   1.00
C343   C     0.01306   0.35493   0.15208   0.00000  Uiso   1.00
C344   C     0.05621   0.43859   0.18385   0.00000  Uiso   1.00
C345   C     0.14434   0.46086   0.17536   0.00000  Uiso   1.00
H346   H     0.03031   0.16151   0.05280   0.00000  Uiso   1.00
H347   H     0.92866   0.27204   0.98983   0.00000  Uiso   1.00
H348   H     0.99642   0.92399   0.08313   0.00000  Uiso   1.00
H349   H     0.17797   0.27182   0.07460   0.00000  Uiso   1.00
H350   H     0.79683   0.42072   0.93716   0.00000  Uiso   1.00
H351   H     0.93973   0.68682   0.13388   0.00000  Uiso   1.00
H352   H     0.32258   0.42029   0.11590   0.00000  Uiso   1.00
H353   H     0.88309   0.36310   0.18488   0.00000  Uiso   1.00
H354   H     0.77335   0.48471   0.12916   0.00000  Uiso   1.00
H355   H     0.84111   0.13665   0.22245   0.00000  Uiso   1.00
H356   H     0.02267   0.48448   0.21392   0.00000  Uiso   1.00
H357   H     0.67078   0.59332   0.05024   0.00000  Uiso   1.00
H358   H     0.81368   0.85942   0.24697   0.00000  Uiso   1.00
H359   H     0.19653   0.59289   0.22898   0.00000  Uiso   1.00
O360   O     0.66426   0.58334   0.95466   0.00000  Uiso   1.00
O361   O     0.85176   0.62050   0.21276   0.00000  Uiso   1.00
O362   O     0.35404   0.58279   0.18916   0.00000  Uiso   1.00
N363   N     0.78224   0.44467   0.97142   0.00000  Uiso   1.00
N364   N     0.91583   0.75852   0.15534   0.00000  Uiso   1.00
N365   N     0.27377   0.44422   0.13853   0.00000  Uiso   1.00
N366   N     0.71441   0.53755   0.03227   0.00000  Uiso   1.00
N367   N     0.84800   0.85140   0.21619   0.00000  Uiso   1.00
N368   N     0.20594   0.53710   0.19938   0.00000  Uiso   1.00
