data_job_07104
_audit_creation_date              2018-12-19
_audit_creation_method            'Materials Studio'
_symmetry_space_group_name_H-M    'P1'
_symmetry_Int_Tables_number       1
_symmetry_cell_setting            triclinic
loop_
_symmetry_equiv_pos_as_xyz
  x,y,z
_cell_length_a                    19.4036
_cell_length_b                    22.2679
_cell_length_c                    24.4304
_cell_angle_alpha                 80.3501
_cell_angle_beta                  112.4341
_cell_angle_gamma                 68.5497
loop_
_atom_site_label
_atom_site_type_symbol
_atom_site_fract_x
_atom_site_fract_y
_atom_site_fract_z
_atom_site_U_iso_or_equiv
_atom_site_adp_type
_atom_site_occupancy
C1     C     0.36528   0.82898   0.10349   0.00000  Uiso   1.00
C2     C     0.34030   0.81438   0.15437   0.00000  Uiso   1.00
C3     C     0.38457   0.80664   0.21729   0.00000  Uiso   1.00
C4     C     0.35132   0.79348   0.25635   0.00000  Uiso   1.00
C5     C     0.32394   0.77157   0.33888   0.00000  Uiso   1.00
C6     C     0.37131   0.77115   0.07682   0.00000  Uiso   1.00
C7     C     0.44166   0.72709   0.07454   0.00000  Uiso   1.00
C8     C     0.43450   0.67755   0.04831   0.00000  Uiso   1.00
C9     C     0.45525   0.58856   0.01040   0.00000  Uiso   1.00
C10    C     0.28979   0.89482   0.05013   0.00000  Uiso   1.00
C11    C     0.29160   0.95472   0.02539   0.00000  Uiso   1.00
C12    C     0.21582   0.00929   0.97668   0.00000  Uiso   1.00
C13    C     0.11000   0.11231   0.89734   0.00000  Uiso   1.00
C14    C     0.22747   0.81937   0.06096   0.00000  Uiso   1.00
C15    C     0.26545   0.80916   0.13127   0.00000  Uiso   1.00
C16    C     0.23211   0.79601   0.17024   0.00000  Uiso   1.00
C17    C     0.27633   0.78826   0.23321   0.00000  Uiso   1.00
C18    C     0.29647   0.76593   0.05372   0.00000  Uiso   1.00
C19    C     0.28920   0.71645   0.02749   0.00000  Uiso   1.00
C20    C     0.35952   0.67231   0.02517   0.00000  Uiso   1.00
C21    C     0.21494   0.88960   0.02703   0.00000  Uiso   1.00
C22    C     0.13914   0.94408   0.97835   0.00000  Uiso   1.00
C23    C     0.14083   0.00406   0.95354   0.00000  Uiso   1.00
H24    H     0.42355   0.83304   0.12146   0.00000  Uiso   1.00
H25    H     0.44250   0.81068   0.23515   0.00000  Uiso   1.00
H26    H     0.49957   0.73114   0.09241   0.00000  Uiso   1.00
H27    H     0.34954   0.95874   0.04328   0.00000  Uiso   1.00
H28    H     0.43052   0.78356   0.35100   0.00000  Uiso   1.00
H29    H     0.55084   0.61586   0.05002   0.00000  Uiso   1.00
H30    H     0.23447   0.09580   0.94641   0.00000  Uiso   1.00
H31    H     0.16920   0.81530   0.04298   0.00000  Uiso   1.00
H32    H     0.17419   0.79197   0.15236   0.00000  Uiso   1.00
H33    H     0.23126   0.71243   0.00962   0.00000  Uiso   1.00
H34    H     0.08123   0.94003   0.96049   0.00000  Uiso   1.00
H35    H     0.21275   0.76837   0.28381   0.00000  Uiso   1.00
H36    H     0.33308   0.60067   0.98282   0.00000  Uiso   1.00
H37    H     0.01670   0.08061   0.87921   0.00000  Uiso   1.00
O38    O     0.32952   0.76091   0.39078   0.00000  Uiso   1.00
O39    O     0.48738   0.54091   0.99588   0.00000  Uiso   1.00
O40    O     0.07231   0.17058   0.85996   0.00000  Uiso   1.00
N41    N     0.37857   0.78320   0.32018   0.00000  Uiso   1.00
N42    N     0.49108   0.62641   0.03878   0.00000  Uiso   1.00
N43    N     0.19530   0.07510   0.94190   0.00000  Uiso   1.00
N44    N     0.26139   0.77503   0.28402   0.00000  Uiso   1.00
N45    N     0.37390   0.61823   0.00262   0.00000  Uiso   1.00
N46    N     0.07812   0.06693   0.90575   0.00000  Uiso   1.00
C47    C     0.26066   0.86755   0.72518   0.00000  Uiso   1.00
C48    C     0.34287   0.82888   0.78801   0.00000  Uiso   1.00
C49    C     0.42351   0.80854   0.79534   0.00000  Uiso   1.00
C50    C     0.49056   0.77369   0.85676   0.00000  Uiso   1.00
C51    C     0.62022   0.71573   0.94638   0.00000  Uiso   1.00
C52    C     0.21608   0.82325   0.72194   0.00000  Uiso   1.00
C53    C     0.19011   0.79819   0.67373   0.00000  Uiso   1.00
C54    C     0.15042   0.75861   0.67953   0.00000  Uiso   1.00
C55    C     0.08319   0.69197   0.66656   0.00000  Uiso   1.00
C56    C     0.20637   0.93289   0.73140   0.00000  Uiso   1.00
C57    C     0.17221   0.00001   0.69113   0.00000  Uiso   1.00
C58    C     0.12433   0.05274   0.70489   0.00000  Uiso   1.00
C59    C     0.04201   0.15633   0.70661   0.00000  Uiso   1.00
C60    C     0.23635   0.84184   0.82122   0.00000  Uiso   1.00
C61    C     0.32966   0.81491   0.84017   0.00000  Uiso   1.00
C62    C     0.39661   0.78009   0.90160   0.00000  Uiso   1.00
C63    C     0.47733   0.75970   0.90902   0.00000  Uiso   1.00
C64    C     0.20288   0.80929   0.77411   0.00000  Uiso   1.00
C65    C     0.16321   0.76974   0.77998   0.00000  Uiso   1.00
C66    C     0.13719   0.74462   0.73179   0.00000  Uiso   1.00
C67    C     0.19317   0.91893   0.78357   0.00000  Uiso   1.00
C68    C     0.14532   0.97156   0.79739   0.00000  Uiso   1.00
C69    C     0.11109   0.03875   0.75715   0.00000  Uiso   1.00
H70    H     0.27094   0.87842   0.68457   0.00000  Uiso   1.00
H71    H     0.43370   0.81935   0.75496   0.00000  Uiso   1.00
H72    H     0.20033   0.80901   0.63336   0.00000  Uiso   1.00
H73    H     0.18244   0.01080   0.65077   0.00000  Uiso   1.00
H74    H     0.60833   0.74767   0.85600   0.00000  Uiso   1.00
H75    H     0.11623   0.72590   0.59960   0.00000  Uiso   1.00
H76    H     0.07850   0.15141   0.63630   0.00000  Uiso   1.00
H77    H     0.22606   0.83096   0.86183   0.00000  Uiso   1.00
H78    H     0.38637   0.76928   0.94196   0.00000  Uiso   1.00
H79    H     0.15300   0.75895   0.82036   0.00000  Uiso   1.00
H80    H     0.13511   0.96073   0.83776   0.00000  Uiso   1.00
H81    H     0.56991   0.70703   0.00778   0.00000  Uiso   1.00
H82    H     0.07781   0.68526   0.75137   0.00000  Uiso   1.00
H83    H     0.04009   0.11077   0.78808   0.00000  Uiso   1.00
O84    O     0.69539   0.68762   0.98139   0.00000  Uiso   1.00
O85    O     0.04976   0.65906   0.64499   0.00000  Uiso   1.00
O86    O     0.00027   0.21732   0.69315   0.00000  Uiso   1.00
N87    N     0.57729   0.74659   0.88073   0.00000  Uiso   1.00
N88    N     0.11722   0.72622   0.64101   0.00000  Uiso   1.00
N89    N     0.08193   0.12403   0.67531   0.00000  Uiso   1.00
N90    N     0.55662   0.72472   0.96240   0.00000  Uiso   1.00
N91    N     0.09655   0.70435   0.72268   0.00000  Uiso   1.00
N92    N     0.06126   0.10217   0.75698   0.00000  Uiso   1.00
C93    C     0.77733   0.87192   0.74661   0.00000  Uiso   1.00
C94    C     0.77943   0.83793   0.69762   0.00000  Uiso   1.00
C95    C     0.71748   0.82275   0.66148   0.00000  Uiso   1.00
C96    C     0.73120   0.79161   0.61930   0.00000  Uiso   1.00
C97    C     0.72336   0.74114   0.54413   0.00000  Uiso   1.00
C98    C     0.85812   0.82253   0.80850   0.00000  Uiso   1.00
C99    C     0.86233   0.79442   0.86558   0.00000  Uiso   1.00
C100   C     0.94229   0.75033   0.91674   0.00000  Uiso   1.00
C101   C     0.05662   0.67599   0.01372   0.00000  Uiso   1.00
C102   C     0.78664   0.93588   0.72643   0.00000  Uiso   1.00
C103   C     0.73076   0.00308   0.71453   0.00000  Uiso   1.00
C104   C     0.75056   0.05442   0.69660   0.00000  Uiso   1.00
C105   C     0.75391   0.15608   0.66616   0.00000  Uiso   1.00
C106   C     0.91186   0.84360   0.73598   0.00000  Uiso   1.00
C107   C     0.85250   0.82254   0.69185   0.00000  Uiso   1.00
C108   C     0.86632   0.79142   0.64971   0.00000  Uiso   1.00
C109   C     0.80440   0.77620   0.61350   0.00000  Uiso   1.00
C110   C     0.93119   0.80715   0.80272   0.00000  Uiso   1.00
C111   C     0.01117   0.76309   0.85381   0.00000  Uiso   1.00
C112   C     0.01549   0.73492   0.91095   0.00000  Uiso   1.00
C113   C     0.85971   0.92050   0.72065   0.00000  Uiso   1.00
C114   C     0.87960   0.97175   0.70275   0.00000  Uiso   1.00
C115   C     0.82376   0.03901   0.69082   0.00000  Uiso   1.00
H116   H     0.72045   0.88389   0.75112   0.00000  Uiso   1.00
H117   H     0.66094   0.83466   0.66597   0.00000  Uiso   1.00
H118   H     0.80577   0.80634   0.87004   0.00000  Uiso   1.00
H119   H     0.67423   0.01497   0.71900   0.00000  Uiso   1.00
H120   H     0.62721   0.77327   0.56903   0.00000  Uiso   1.00
H121   H     0.93259   0.71357   0.99933   0.00000  Uiso   1.00
H122   H     0.65520   0.15350   0.68085   0.00000  Uiso   1.00
H123   H     0.96875   0.83162   0.73148   0.00000  Uiso   1.00
H124   H     0.92287   0.77952   0.64525   0.00000  Uiso   1.00
H125   H     0.06770   0.75120   0.84932   0.00000  Uiso   1.00
H126   H     0.93615   0.95983   0.69829   0.00000  Uiso   1.00
H127   H     0.83980   0.72852   0.55222   0.00000  Uiso   1.00
H128   H     0.14518   0.66882   0.98252   0.00000  Uiso   1.00
H129   H     0.86779   0.10875   0.66403   0.00000  Uiso   1.00
O130   O     0.69885   0.71754   0.50427   0.00000  Uiso   1.00
O131   O     0.09950   0.63923   0.06881   0.00000  Uiso   1.00
O132   O     0.73557   0.21641   0.65096   0.00000  Uiso   1.00
N133   N     0.68353   0.76990   0.57690   0.00000  Uiso   1.00
N134   N     0.96904   0.71408   0.97920   0.00000  Uiso   1.00
N135   N     0.70972   0.12537   0.68146   0.00000  Uiso   1.00
N136   N     0.79792   0.74582   0.56785   0.00000  Uiso   1.00
N137   N     0.08343   0.69000   0.97015   0.00000  Uiso   1.00
N138   N     0.82411   0.10129   0.67241   0.00000  Uiso   1.00
C139   C     0.53709   0.24462   0.37833   0.00000  Uiso   1.00
C140   C     0.55306   0.22210   0.32684   0.00000  Uiso   1.00
C141   C     0.62180   0.21428   0.31780   0.00000  Uiso   1.00
C142   C     0.62489   0.19322   0.26803   0.00000  Uiso   1.00
C143   C     0.65936   0.16016   0.19407   0.00000  Uiso   1.00
C144   C     0.52816   0.18770   0.41466   0.00000  Uiso   1.00
C145   C     0.57595   0.15097   0.47947   0.00000  Uiso   1.00
C146   C     0.55805   0.10096   0.50364   0.00000  Uiso   1.00
C147   C     0.55381   0.01454   0.56604   0.00000  Uiso   1.00
C148   C     0.45005   0.30796   0.34394   0.00000  Uiso   1.00
C149   C     0.43215   0.37234   0.34929   0.00000  Uiso   1.00
C150   C     0.34849   0.42358   0.31393   0.00000  Uiso   1.00
C151   C     0.22298   0.52387   0.26652   0.00000  Uiso   1.00
C152   C     0.42033   0.22114   0.30602   0.00000  Uiso   1.00
C153   C     0.48965   0.20935   0.28756   0.00000  Uiso   1.00
C154   C     0.49263   0.18830   0.23780   0.00000  Uiso   1.00
C155   C     0.56136   0.18045   0.22869   0.00000  Uiso   1.00
C156   C     0.46474   0.17495   0.37539   0.00000  Uiso   1.00
C157   C     0.44677   0.12499   0.39947   0.00000  Uiso   1.00
C158   C     0.49452   0.08819   0.46430   0.00000  Uiso   1.00
C159   C     0.38663   0.29521   0.30466   0.00000  Uiso   1.00
C160   C     0.30298   0.34636   0.26929   0.00000  Uiso   1.00
C161   C     0.28496   0.41080   0.27458   0.00000  Uiso   1.00
H162   H     0.58646   0.25455   0.40891   0.00000  Uiso   1.00
H163   H     0.67087   0.22415   0.34820   0.00000  Uiso   1.00
H164   H     0.62501   0.16085   0.50985   0.00000  Uiso   1.00
H165   H     0.48124   0.38219   0.37969   0.00000  Uiso   1.00
H166   H     0.73650   0.18479   0.26360   0.00000  Uiso   1.00
H167   H     0.63979   0.05135   0.60444   0.00000  Uiso   1.00
H168   H     0.33662   0.51808   0.32997   0.00000  Uiso   1.00
H169   H     0.37096   0.21121   0.27545   0.00000  Uiso   1.00
H170   H     0.44354   0.17844   0.20741   0.00000  Uiso   1.00
H171   H     0.39769   0.11514   0.36907   0.00000  Uiso   1.00
H172   H     0.25392   0.33647   0.23890   0.00000  Uiso   1.00
H173   H     0.55200   0.14769   0.14933   0.00000  Uiso   1.00
H174   H     0.45528   0.01425   0.49018   0.00000  Uiso   1.00
H175   H     0.15212   0.48097   0.21570   0.00000  Uiso   1.00
O176   O     0.69590   0.14544   0.16413   0.00000  Uiso   1.00
O177   O     0.56900   0.97038   0.61131   0.00000  Uiso   1.00
O178   O     0.17126   0.58271   0.25121   0.00000  Uiso   1.00
N179   N     0.68311   0.18057   0.24603   0.00000  Uiso   1.00
N180   N     0.59270   0.05581   0.56470   0.00000  Uiso   1.00
N181   N     0.30926   0.49215   0.30811   0.00000  Uiso   1.00
N182   N     0.58383   0.16061   0.18455   0.00000  Uiso   1.00
N183   N     0.49341   0.03584   0.50321   0.00000  Uiso   1.00
N184   N     0.20998   0.47218   0.24662   0.00000  Uiso   1.00
C185   C     0.18196   0.17022   0.58685   0.00000  Uiso   1.00
C186   C     0.26798   0.10642   0.61671   0.00000  Uiso   1.00
C187   C     0.30918   0.05723   0.67695   0.00000  Uiso   1.00
C188   C     0.38743   0.00267   0.69550   0.00000  Uiso   1.00
C189   C     0.51555   0.90436   0.74799   0.00000  Uiso   1.00
C190   C     0.12702   0.16590   0.52496   0.00000  Uiso   1.00
C191   C     0.04970   0.16673   0.50805   0.00000  Uiso   1.00
C192   C     0.00928   0.16225   0.44936   0.00000  Uiso   1.00
C193   C     0.91853   0.15633   0.35938   0.00000  Uiso   1.00
C194   C     0.19590   0.23190   0.56804   0.00000  Uiso   1.00
C195   C     0.17647   0.28823   0.58734   0.00000  Uiso   1.00
C196   C     0.19402   0.33933   0.56490   0.00000  Uiso   1.00
C197   C     0.21021   0.43588   0.54181   0.00000  Uiso   1.00
C198   C     0.24766   0.16081   0.51267   0.00000  Uiso   1.00
C199   C     0.30366   0.10131   0.57642   0.00000  Uiso   1.00
C200   C     0.38187   0.04681   0.59489   0.00000  Uiso   1.00
C201   C     0.42318   0.99755   0.65514   0.00000  Uiso   1.00
C202   C     0.16271   0.16078   0.48467   0.00000  Uiso   1.00
C203   C     0.12239   0.15631   0.42599   0.00000  Uiso   1.00
C204   C     0.04503   0.15713   0.40900   0.00000  Uiso   1.00
C205   C     0.23159   0.22678   0.52775   0.00000  Uiso   1.00
C206   C     0.24917   0.27781   0.50528   0.00000  Uiso   1.00
C207   C     0.22977   0.33420   0.52454   0.00000  Uiso   1.00
H208   H     0.15418   0.17421   0.61821   0.00000  Uiso   1.00
H209   H     0.28154   0.06120   0.70811   0.00000  Uiso   1.00
H210   H     0.02210   0.17069   0.53924   0.00000  Uiso   1.00
H211   H     0.14886   0.29217   0.61851   0.00000  Uiso   1.00
H212   H     0.43847   0.93364   0.79001   0.00000  Uiso   1.00
H213   H     0.89141   0.16454   0.43392   0.00000  Uiso   1.00
H214   H     0.15870   0.42070   0.60109   0.00000  Uiso   1.00
H215   H     0.27544   0.15683   0.48131   0.00000  Uiso   1.00
H216   H     0.40947   0.04286   0.56370   0.00000  Uiso   1.00
H217   H     0.15002   0.15236   0.39482   0.00000  Uiso   1.00
H218   H     0.27678   0.27383   0.47410   0.00000  Uiso   1.00
H219   H     0.54230   0.91876   0.67280   0.00000  Uiso   1.00
H220   H     0.99523   0.14966   0.31671   0.00000  Uiso   1.00
H221   H     0.26253   0.40581   0.48388   0.00000  Uiso   1.00
O222   O     0.57635   0.85154   0.78807   0.00000  Uiso   1.00
O223   O     0.85862   0.15447   0.32089   0.00000  Uiso   1.00
O224   O     0.20930   0.49054   0.54021   0.00000  Uiso   1.00
N225   N     0.44452   0.94579   0.75112   0.00000  Uiso   1.00
N226   N     0.93306   0.16165   0.41820   0.00000  Uiso   1.00
N227   N     0.18293   0.40115   0.57448   0.00000  Uiso   1.00
N228   N     0.50039   0.93778   0.68805   0.00000  Uiso   1.00
N229   N     0.98893   0.15364   0.35513   0.00000  Uiso   1.00
N230   N     0.23880   0.39314   0.51141   0.00000  Uiso   1.00
C231   C     0.87704   0.36516   0.05272   0.00000  Uiso   1.00
C232   C     0.82805   0.32546   0.05490   0.00000  Uiso   1.00
C233   C     0.76644   0.32434   0.00268   0.00000  Uiso   1.00
C234   C     0.72904   0.28485   0.01464   0.00000  Uiso   1.00
C235   C     0.64945   0.22880   0.00859   0.00000  Uiso   1.00
C236   C     0.97035   0.31180   0.09062   0.00000  Uiso   1.00
C237   C     0.02837   0.29922   0.06843   0.00000  Uiso   1.00
C238   C     0.11076   0.24825   0.11048   0.00000  Uiso   1.00
C239   C     0.25210   0.17104   0.15990   0.00000  Uiso   1.00
C240   C     0.86229   0.41152   0.09086   0.00000  Uiso   1.00
C241   C     0.82947   0.48278   0.06887   0.00000  Uiso   1.00
C242   C     0.82090   0.51576   0.11111   0.00000  Uiso   1.00
C243   C     0.79445   0.59337   0.16090   0.00000  Uiso   1.00
C244   C     0.92018   0.29702   0.16685   0.00000  Uiso   1.00
C245   C     0.85149   0.28844   0.11689   0.00000  Uiso   1.00
C246   C     0.81417   0.24895   0.12894   0.00000  Uiso   1.00
C247   C     0.75251   0.24778   0.07674   0.00000  Uiso   1.00
C248   C     0.99378   0.27479   0.15261   0.00000  Uiso   1.00
C249   C     0.07611   0.22383   0.19470   0.00000  Uiso   1.00
C250   C     0.13424   0.21117   0.17258   0.00000  Uiso   1.00
C251   C     0.88572   0.37451   0.15284   0.00000  Uiso   1.00
C252   C     0.87720   0.40739   0.19513   0.00000  Uiso   1.00
C253   C     0.84438   0.47868   0.17321   0.00000  Uiso   1.00
H254   H     0.85880   0.39397   0.00447   0.00000  Uiso   1.00
H255   H     0.74833   0.35299   0.95471   0.00000  Uiso   1.00
H256   H     0.01022   0.32787   0.02047   0.00000  Uiso   1.00
H257   H     0.81135   0.51140   0.02090   0.00000  Uiso   1.00
H258   H     0.63621   0.29120   0.92689   0.00000  Uiso   1.00
H259   H     0.18843   0.23827   0.06553   0.00000  Uiso   1.00
H260   H     0.76907   0.62527   0.06645   0.00000  Uiso   1.00
H261   H     0.93843   0.26820   0.21511   0.00000  Uiso   1.00
H262   H     0.83232   0.22031   0.17691   0.00000  Uiso   1.00
H263   H     0.09422   0.19520   0.24266   0.00000  Uiso   1.00
H264   H     0.89534   0.37873   0.24309   0.00000  Uiso   1.00
H265   H     0.70438   0.18351   0.10723   0.00000  Uiso   1.00
H266   H     0.25661   0.13058   0.24588   0.00000  Uiso   1.00
H267   H     0.83724   0.51759   0.24679   0.00000  Uiso   1.00
O268   O     0.59908   0.20810   0.98813   0.00000  Uiso   1.00
O269   O     0.32358   0.13867   0.17003   0.00000  Uiso   1.00
O270   O     0.77338   0.64641   0.17123   0.00000  Uiso   1.00
N271   N     0.66680   0.27244   0.97457   0.00000  Uiso   1.00
N272   N     0.18310   0.22294   0.10420   0.00000  Uiso   1.00
N273   N     0.79105   0.58476   0.10505   0.00000  Uiso   1.00
N274   N     0.70348   0.21450   0.07161   0.00000  Uiso   1.00
N275   N     0.21978   0.16500   0.20124   0.00000  Uiso   1.00
N276   N     0.82773   0.52682   0.20210   0.00000  Uiso   1.00
C277   C     0.54234   0.52216   0.42700   0.00000  Uiso   1.00
C278   C     0.56507   0.56620   0.38936   0.00000  Uiso   1.00
C279   C     0.52695   0.59380   0.32376   0.00000  Uiso   1.00
C280   C     0.55680   0.63265   0.29843   0.00000  Uiso   1.00
C281   C     0.58209   0.69941   0.23406   0.00000  Uiso   1.00
C282   C     0.52085   0.55895   0.47006   0.00000  Uiso   1.00
C283   C     0.44554   0.58044   0.47231   0.00000  Uiso   1.00
C284   C     0.43817   0.61318   0.51493   0.00000  Uiso   1.00
C285   C     0.39481   0.66864   0.57587   0.00000  Uiso   1.00
C286   C     0.62390   0.45500   0.47071   0.00000  Uiso   1.00
C287   C     0.63524   0.38908   0.47352   0.00000  Uiso   1.00
C288   C     0.71464   0.33430   0.51670   0.00000  Uiso   1.00
C289   C     0.83129   0.22836   0.57866   0.00000  Uiso   1.00
C290   C     0.66317   0.54209   0.49868   0.00000  Uiso   1.00
C291   C     0.63070   0.57702   0.42829   0.00000  Uiso   1.00
C292   C     0.66063   0.61584   0.40306   0.00000  Uiso   1.00
C293   C     0.62255   0.64349   0.33743   0.00000  Uiso   1.00
C294   C     0.58647   0.56977   0.50899   0.00000  Uiso   1.00
C295   C     0.57922   0.60249   0.55162   0.00000  Uiso   1.00
C296   C     0.50391   0.62403   0.55393   0.00000  Uiso   1.00
C297   C     0.68953   0.46582   0.50964   0.00000  Uiso   1.00
C298   C     0.76892   0.41113   0.55283   0.00000  Uiso   1.00
C299   C     0.78038   0.34514   0.55570   0.00000  Uiso   1.00
H300   H     0.49125   0.51374   0.39669   0.00000  Uiso   1.00
H301   H     0.47615   0.58541   0.29364   0.00000  Uiso   1.00
H302   H     0.39476   0.57205   0.44218   0.00000  Uiso   1.00
H303   H     0.58444   0.38073   0.44339   0.00000  Uiso   1.00
H304   H     0.48834   0.66967   0.19656   0.00000  Uiso   1.00
H305   H     0.31674   0.64148   0.50978   0.00000  Uiso   1.00
H306   H     0.71670   0.23803   0.51233   0.00000  Uiso   1.00
H307   H     0.71426   0.55051   0.52900   0.00000  Uiso   1.00
H308   H     0.71141   0.62420   0.43320   0.00000  Uiso   1.00
H309   H     0.63002   0.61085   0.58174   0.00000  Uiso   1.00
H310   H     0.81969   0.41952   0.58295   0.00000  Uiso   1.00
H311   H     0.67928   0.70116   0.30983   0.00000  Uiso   1.00
H312   H     0.50768   0.67297   0.62305   0.00000  Uiso   1.00
H313   H     0.90764   0.26952   0.62560   0.00000  Uiso   1.00
O314   O     0.57790   0.73325   0.18780   0.00000  Uiso   1.00
O315   O     0.35276   0.69625   0.59873   0.00000  Uiso   1.00
O316   O     0.87751   0.16694   0.60207   0.00000  Uiso   1.00
N317   N     0.53369   0.66696   0.23637   0.00000  Uiso   1.00
N318   N     0.37324   0.64061   0.52920   0.00000  Uiso   1.00
N319   N     0.74716   0.26342   0.53159   0.00000  Uiso   1.00
N320   N     0.63643   0.68390   0.29732   0.00000  Uiso   1.00
N321   N     0.47598   0.65756   0.59015   0.00000  Uiso   1.00
N322   N     0.84991   0.28036   0.59254   0.00000  Uiso   1.00
C323   C     0.76060   0.45132   0.87167   0.00000  Uiso   1.00
C324   C     0.66548   0.48879   0.84730   0.00000  Uiso   1.00
C325   C     0.62640   0.49903   0.88457   0.00000  Uiso   1.00
C326   C     0.53866   0.53457   0.85323   0.00000  Uiso   1.00
C327   C     0.39810   0.58906   0.82546   0.00000  Uiso   1.00
C328   C     0.78075   0.50233   0.83938   0.00000  Uiso   1.00
C329   C     0.83860   0.52395   0.86998   0.00000  Uiso   1.00
C330   C     0.84789   0.57088   0.83196   0.00000  Uiso   1.00
C331   C     0.88634   0.64636   0.79188   0.00000  Uiso   1.00
C332   C     0.77640   0.39362   0.84478   0.00000  Uiso   1.00
C333   C     0.83061   0.32384   0.87992   0.00000  Uiso   1.00
C334   C     0.83626   0.27925   0.84645   0.00000  Uiso   1.00
C335   C     0.86795   0.18594   0.81477   0.00000  Uiso   1.00
C336   C     0.67426   0.49621   0.74974   0.00000  Uiso   1.00
C337   C     0.61859   0.51317   0.78107   0.00000  Uiso   1.00
C338   C     0.53088   0.54870   0.74966   0.00000  Uiso   1.00
C339   C     0.49168   0.55899   0.78688   0.00000  Uiso   1.00
C340   C     0.73386   0.52671   0.77315   0.00000  Uiso   1.00
C341   C     0.74308   0.57362   0.73507   0.00000  Uiso   1.00
C342   C     0.80092   0.59531   0.76561   0.00000  Uiso   1.00
C343   C     0.72950   0.41800   0.77855   0.00000  Uiso   1.00
C344   C     0.73508   0.37351   0.74502   0.00000  Uiso   1.00
C345   C     0.78928   0.30368   0.78010   0.00000  Uiso   1.00
H346   H     0.79711   0.43235   0.92324   0.00000  Uiso   1.00
H347   H     0.66272   0.48016   0.93582   0.00000  Uiso   1.00
H348   H     0.87488   0.50507   0.92123   0.00000  Uiso   1.00
H349   H     0.86688   0.30500   0.93117   0.00000  Uiso   1.00
H350   H     0.49304   0.54395   0.92057   0.00000  Uiso   1.00
H351   H     0.94042   0.59646   0.88980   0.00000  Uiso   1.00
H352   H     0.92356   0.17455   0.91077   0.00000  Uiso   1.00
H353   H     0.63775   0.51520   0.69817   0.00000  Uiso   1.00
H354   H     0.49461   0.56756   0.69841   0.00000  Uiso   1.00
H355   H     0.70678   0.59247   0.68382   0.00000  Uiso   1.00
H356   H     0.69878   0.39240   0.69376   0.00000  Uiso   1.00
H357   H     0.35659   0.61489   0.72788   0.00000  Uiso   1.00
H358   H     0.80399   0.66740   0.69711   0.00000  Uiso   1.00
H359   H     0.78712   0.24549   0.71808   0.00000  Uiso   1.00
O360   O     0.33353   0.61239   0.82844   0.00000  Uiso   1.00
O361   O     0.92049   0.68127   0.78808   0.00000  Uiso   1.00
O362   O     0.89837   0.12774   0.81559   0.00000  Uiso   1.00
N363   N     0.48057   0.55344   0.87519   0.00000  Uiso   1.00
N364   N     0.89884   0.60255   0.84642   0.00000  Uiso   1.00
N365   N     0.88309   0.20811   0.86603   0.00000  Uiso   1.00
N366   N     0.40715   0.59162   0.77150   0.00000  Uiso   1.00
N367   N     0.82542   0.64072   0.74274   0.00000  Uiso   1.00
N368   N     0.80968   0.24628   0.76234   0.00000  Uiso   1.00
C369   C     0.16593   0.46593   0.70990   0.00000  Uiso   1.00
C370   C     0.16131   0.49782   0.75980   0.00000  Uiso   1.00
C371   C     0.21711   0.51974   0.79336   0.00000  Uiso   1.00
C372   C     0.20203   0.54752   0.83694   0.00000  Uiso   1.00
C373   C     0.20526   0.59621   0.91293   0.00000  Uiso   1.00
C374   C     0.08091   0.51082   0.64993   0.00000  Uiso   1.00
C375   C     0.06911   0.54367   0.59112   0.00000  Uiso   1.00
C376   C     0.98633   0.58238   0.54220   0.00000  Uiso   1.00
C377   C     0.86473   0.65121   0.44761   0.00000  Uiso   1.00
C378   C     0.16920   0.39625   0.73210   0.00000  Uiso   1.00
C379   C     0.23163   0.33276   0.74236   0.00000  Uiso   1.00
C380   C     0.22319   0.27501   0.76261   0.00000  Uiso   1.00
C381   C     0.23868   0.16596   0.79560   0.00000  Uiso   1.00
C382   C     0.03992   0.47628   0.72761   0.00000  Uiso   1.00
C383   C     0.09287   0.50344   0.76942   0.00000  Uiso   1.00
C384   C     0.07770   0.53119   0.81296   0.00000  Uiso   1.00
C385   C     0.13347   0.55315   0.84658   0.00000  Uiso   1.00
C386   C     0.01246   0.51645   0.65955   0.00000  Uiso   1.00
C387   C     0.92969   0.55511   0.61071   0.00000  Uiso   1.00
C388   C     0.91776   0.58801   0.55184   0.00000  Uiso   1.00
C389   C     0.10076   0.40187   0.74172   0.00000  Uiso   1.00
C390   C     0.09222   0.34421   0.76196   0.00000  Uiso   1.00
C391   C     0.15462   0.28064   0.77225   0.00000  Uiso   1.00
H392   H     0.21921   0.46156   0.70241   0.00000  Uiso   1.00
H393   H     0.27007   0.51539   0.78590   0.00000  Uiso   1.00
H394   H     0.12208   0.53930   0.58368   0.00000  Uiso   1.00
H395   H     0.28459   0.32843   0.73491   0.00000  Uiso   1.00
H396   H     0.29626   0.57757   0.88269   0.00000  Uiso   1.00
H397   H     0.98422   0.62797   0.45630   0.00000  Uiso   1.00
H398   H     0.32689   0.18331   0.77519   0.00000  Uiso   1.00
H399   H     0.98662   0.48066   0.73510   0.00000  Uiso   1.00
H400   H     0.02473   0.53553   0.82039   0.00000  Uiso   1.00
H401   H     0.87674   0.55945   0.61817   0.00000  Uiso   1.00
H402   H     0.03924   0.34858   0.76940   0.00000  Uiso   1.00
H403   H     0.09712   0.59392   0.91068   0.00000  Uiso   1.00
H404   H     0.78509   0.64433   0.48429   0.00000  Uiso   1.00
H405   H     0.12776   0.19966   0.80318   0.00000  Uiso   1.00
O406   O     0.22593   0.62152   0.95219   0.00000  Uiso   1.00
O407   O     0.81656   0.68764   0.39278   0.00000  Uiso   1.00
O408   O     0.26613   0.10425   0.81115   0.00000  Uiso   1.00
N409   N     0.24417   0.57387   0.87758   0.00000  Uiso   1.00
N410   N     0.95244   0.62101   0.47894   0.00000  Uiso   1.00
N411   N     0.27279   0.20529   0.77705   0.00000  Uiso   1.00
N412   N     0.13702   0.58267   0.89265   0.00000  Uiso   1.00
N413   N     0.84529   0.62981   0.49400   0.00000  Uiso   1.00
N414   N     0.16564   0.21409   0.79211   0.00000  Uiso   1.00
C415   C     0.56343   0.90470   0.14284   0.00000  Uiso   1.00
C416   C     0.52967   0.93722   0.18341   0.00000  Uiso   1.00
C417   C     0.46752   0.93130   0.19528   0.00000  Uiso   1.00
C418   C     0.44542   0.96493   0.23360   0.00000  Uiso   1.00
C419   C     0.38709   0.00965   0.29270   0.00000  Uiso   1.00
C420   C     0.55068   0.96403   0.09201   0.00000  Uiso   1.00
C421   C     0.50621   0.98064   0.02702   0.00000  Uiso   1.00
C422   C     0.50181   0.03683   0.98839   0.00000  Uiso   1.00
C423   C     0.47615   0.12314   0.90558   0.00000  Uiso   1.00
C424   C     0.65876   0.86098   0.18527   0.00000  Uiso   1.00
C425   C     0.70517   0.79096   0.19868   0.00000  Uiso   1.00
C426   C     0.79177   0.76040   0.23857   0.00000  Uiso   1.00
C427   C     0.93392   0.68672   0.30056   0.00000  Uiso   1.00
C428   C     0.63470   0.97493   0.18980   0.00000  Uiso   1.00
C429   C     0.56839   0.97537   0.20892   0.00000  Uiso   1.00
C430   C     0.54638   0.00901   0.24723   0.00000  Uiso   1.00
C431   C     0.48421   0.00314   0.25916   0.00000  Uiso   1.00
C432   C     0.58940   0.00218   0.11751   0.00000  Uiso   1.00
C433   C     0.58507   0.05835   0.07897   0.00000  Uiso   1.00
C434   C     0.54059   0.07505   0.01395   0.00000  Uiso   1.00
C435   C     0.69748   0.89913   0.21078   0.00000  Uiso   1.00
C436   C     0.78403   0.86867   0.25064   0.00000  Uiso   1.00
C437   C     0.83056   0.79861   0.26412   0.00000  Uiso   1.00
H438   H     0.53328   0.87500   0.12297   0.00000  Uiso   1.00
H439   H     0.43757   0.90178   0.17552   0.00000  Uiso   1.00
H440   H     0.47626   0.95111   0.00729   0.00000  Uiso   1.00
H441   H     0.67519   0.76146   0.17893   0.00000  Uiso   1.00
H442   H     0.34850   0.94831   0.24502   0.00000  Uiso   1.00
H443   H     0.43011   0.05231   0.89029   0.00000  Uiso   1.00
H444   H     0.84959   0.65239   0.25223   0.00000  Uiso   1.00
H445   H     0.66484   0.00464   0.20965   0.00000  Uiso   1.00
H446   H     0.57635   0.03853   0.26697   0.00000  Uiso   1.00
H447   H     0.61504   0.08786   0.09873   0.00000  Uiso   1.00
H448   H     0.81397   0.89821   0.27037   0.00000  Uiso   1.00
H449   H     0.46114   0.05931   0.31923   0.00000  Uiso   1.00
H450   H     0.54275   0.16330   0.96450   0.00000  Uiso   1.00
H451   H     0.96223   0.76339   0.32644   0.00000  Uiso   1.00
O452   O     0.34421   0.02379   0.31824   0.00000  Uiso   1.00
O453   O     0.45130   0.16022   0.85286   0.00000  Uiso   1.00
O454   O     0.00164   0.63554   0.32771   0.00000  Uiso   1.00
N455   N     0.38717   0.96977   0.25463   0.00000  Uiso   1.00
N456   N     0.46346   0.06701   0.92298   0.00000  Uiso   1.00
N457   N     0.85564   0.69313   0.26135   0.00000  Uiso   1.00
N458   N     0.44778   0.02950   0.29456   0.00000  Uiso   1.00
N459   N     0.52407   0.12674   0.96291   0.00000  Uiso   1.00
N460   N     0.91625   0.75285   0.30128   0.00000  Uiso   1.00
C461   C     0.94037   0.93873   0.05125   0.00000  Uiso   1.00
C462   C     0.85715   0.98726   0.99078   0.00000  Uiso   1.00
C463   C     0.84837   0.01227   0.93122   0.00000  Uiso   1.00
C464   C     0.76684   0.05610   0.88196   0.00000  Uiso   1.00
C465   C     0.64830   0.12873   0.78655   0.00000  Uiso   1.00
C466   C     0.94427   0.97545   0.09888   0.00000  Uiso   1.00
C467   C     0.00874   0.99052   0.13021   0.00000  Uiso   1.00
C468   C     0.00055   0.02440   0.17195   0.00000  Uiso   1.00
C469   C     0.01729   0.07865   0.24440   0.00000  Uiso   1.00
C470   C     0.93117   0.87634   0.07670   0.00000  Uiso   1.00
C471   C     0.98464   0.80807   0.08940   0.00000  Uiso   1.00
C472   C     0.96543   0.75850   0.11248   0.00000  Uiso   1.00
C473   C     0.96182   0.65887   0.15049   0.00000  Uiso   1.00
C474   C     0.81119   0.97208   0.06965   0.00000  Uiso   1.00
C475   C     0.78698   0.00538   0.00078   0.00000  Uiso   1.00
C476   C     0.70544   0.04918   0.95159   0.00000  Uiso   1.00
C477   C     0.69655   0.07425   0.89197   0.00000  Uiso   1.00
C478   C     0.87410   0.99357   0.10887   0.00000  Uiso   1.00
C479   C     0.86581   0.02742   0.15057   0.00000  Uiso   1.00
C480   C     0.93026   0.04255   0.18196   0.00000  Uiso   1.00
C481   C     0.86100   0.89445   0.08669   0.00000  Uiso   1.00
C482   C     0.84170   0.84498   0.10976   0.00000  Uiso   1.00
C483   C     0.89513   0.77665   0.12249   0.00000  Uiso   1.00
H484   H     0.99500   0.92462   0.04347   0.00000  Uiso   1.00
H485   H     0.90269   0.99825   0.92351   0.00000  Uiso   1.00
H486   H     0.06304   0.97649   0.12247   0.00000  Uiso   1.00
H487   H     0.03893   0.79407   0.08166   0.00000  Uiso   1.00
H488   H     0.76941   0.08788   0.79493   0.00000  Uiso   1.00
H489   H     0.10752   0.04198   0.21446   0.00000  Uiso   1.00
H490   H     0.05669   0.65732   0.12841   0.00000  Uiso   1.00
H491   H     0.75656   0.98619   0.07743   0.00000  Uiso   1.00
H492   H     0.65115   0.06319   0.95934   0.00000  Uiso   1.00
H493   H     0.81151   0.04143   0.15830   0.00000  Uiso   1.00
H494   H     0.78740   0.85902   0.11749   0.00000  Uiso   1.00
H495   H     0.56525   0.14059   0.82401   0.00000  Uiso   1.00
H496   H     0.90337   0.09469   0.24355   0.00000  Uiso   1.00
H497   H     0.85254   0.71003   0.15749   0.00000  Uiso   1.00
O498   O     0.60230   0.16380   0.73117   0.00000  Uiso   1.00
O499   O     0.04590   0.10357   0.28160   0.00000  Uiso   1.00
O500   O     0.97921   0.59891   0.16869   0.00000  Uiso   1.00
N501   N     0.73582   0.08971   0.81798   0.00000  Uiso   1.00
N502   N     0.05193   0.04681   0.21021   0.00000  Uiso   1.00
N503   N     0.00443   0.68718   0.12977   0.00000  Uiso   1.00
N504   N     0.62597   0.11807   0.83362   0.00000  Uiso   1.00
N505   N     0.94208   0.07517   0.22586   0.00000  Uiso   1.00
N506   N     0.89457   0.71554   0.14542   0.00000  Uiso   1.00
C507   C     0.13063   0.81292   0.47437   0.00000  Uiso   1.00
C508   C     0.17708   0.85049   0.46016   0.00000  Uiso   1.00
C509   C     0.24066   0.85798   0.50487   0.00000  Uiso   1.00
C510   C     0.27516   0.89414   0.48229   0.00000  Uiso   1.00
C511   C     0.35153   0.94829   0.47011   0.00000  Uiso   1.00
C512   C     0.03688   0.86521   0.43687   0.00000  Uiso   1.00
C513   C     0.98259   0.88507   0.46200   0.00000  Uiso   1.00
C514   C     0.89906   0.93361   0.41981   0.00000  Uiso   1.00
C515   C     0.75776   0.01059   0.37147   0.00000  Uiso   1.00
C516   C     0.14243   0.75795   0.44411   0.00000  Uiso   1.00
C517   C     0.17685   0.68761   0.47531   0.00000  Uiso   1.00
C518   C     0.18217   0.64585   0.43920   0.00000  Uiso   1.00
C519   C     0.20474   0.55628   0.40209   0.00000  Uiso   1.00
C520   C     0.07883   0.86381   0.35476   0.00000  Uiso   1.00
C521   C     0.14894   0.87813   0.39520   0.00000  Uiso   1.00
C522   C     0.18335   0.91429   0.37254   0.00000  Uiso   1.00
C523   C     0.24697   0.92183   0.41721   0.00000  Uiso   1.00
C524   C     0.00874   0.89285   0.37191   0.00000  Uiso   1.00
C525   C     0.92527   0.94138   0.32967   0.00000  Uiso   1.00
C526   C     0.87087   0.96130   0.35473   0.00000  Uiso   1.00
C527   C     0.11429   0.78559   0.37914   0.00000  Uiso   1.00
C528   C     0.11954   0.74392   0.34298   0.00000  Uiso   1.00
C529   C     0.15398   0.67354   0.37412   0.00000  Uiso   1.00
H530   H     0.15253   0.79140   0.52494   0.00000  Uiso   1.00
H531   H     0.26241   0.83658   0.55514   0.00000  Uiso   1.00
H532   H     0.00438   0.86366   0.51227   0.00000  Uiso   1.00
H533   H     0.19862   0.66624   0.52558   0.00000  Uiso   1.00
H534   H     0.37181   0.89889   0.55997   0.00000  Uiso   1.00
H535   H     0.82772   0.95597   0.46958   0.00000  Uiso   1.00
H536   H     0.23731   0.53967   0.49764   0.00000  Uiso   1.00
H537   H     0.05692   0.88534   0.30418   0.00000  Uiso   1.00
H538   H     0.16156   0.93567   0.32226   0.00000  Uiso   1.00
H539   H     0.90352   0.96275   0.27940   0.00000  Uiso   1.00
H540   H     0.09776   0.76533   0.29271   0.00000  Uiso   1.00
H541   H     0.28995   0.97932   0.37096   0.00000  Uiso   1.00
H542   H     0.74586   0.03639   0.28057   0.00000  Uiso   1.00
H543   H     0.15545   0.62009   0.30863   0.00000  Uiso   1.00
O544   O     0.40142   0.97054   0.48134   0.00000  Uiso   1.00
O545   O     0.68759   0.04541   0.36276   0.00000  Uiso   1.00
O546   O     0.22498   0.49924   0.39957   0.00000  Uiso   1.00
N547   N     0.33819   0.91090   0.51300   0.00000  Uiso   1.00
N548   N     0.82951   0.96427   0.42850   0.00000  Uiso   1.00
N549   N     0.21242   0.57507   0.45473   0.00000  Uiso   1.00
N550   N     0.29415   0.95417   0.41130   0.00000  Uiso   1.00
N551   N     0.78546   0.00755   0.32679   0.00000  Uiso   1.00
N552   N     0.16837   0.61834   0.35303   0.00000  Uiso   1.00
