data_job_02903
_audit_creation_date              2018-12-19
_audit_creation_method            'Materials Studio'
_symmetry_space_group_name_H-M    'P1'
_symmetry_Int_Tables_number       1
_symmetry_cell_setting            triclinic
loop_
_symmetry_equiv_pos_as_xyz
  x,y,z
_cell_length_a                    11.9888
_cell_length_b                    12.1683
_cell_length_c                    14.9629
_cell_angle_alpha                 82.6282
_cell_angle_beta                  78.1090
_cell_angle_gamma                 97.9531
loop_
_atom_site_label
_atom_site_type_symbol
_atom_site_fract_x
_atom_site_fract_y
_atom_site_fract_z
_atom_site_U_iso_or_equiv
_atom_site_adp_type
_atom_site_occupancy
C1     C     0.98829   0.31718   0.81829   0.00000  Uiso   1.00
C2     C     0.03046   0.24702   0.74478   0.00000  Uiso   1.00
C3     C     0.98213   0.13744   0.74198   0.00000  Uiso   1.00
C4     C     0.03332   0.08787   0.66902   0.00000  Uiso   1.00
C5     C     0.08415   0.97013   0.56515   0.00000  Uiso   1.00
C6     C     0.96364   0.42406   0.76630   0.00000  Uiso   1.00
C7     C     0.85913   0.46333   0.78161   0.00000  Uiso   1.00
C8     C     0.85408   0.56280   0.72678   0.00000  Uiso   1.00
C9     C     0.80120   0.71995   0.65636   0.00000  Uiso   1.00
C10    C     0.09196   0.35366   0.85840   0.00000  Uiso   1.00
C11    C     0.09535   0.33378   0.95115   0.00000  Uiso   1.00
C12    C     0.19834   0.37400   0.97386   0.00000  Uiso   1.00
C13    C     0.34470   0.42185   0.04644   0.00000  Uiso   1.00
C14    C     0.16515   0.42400   0.69369   0.00000  Uiso   1.00
C15    C     0.12652   0.30504   0.67710   0.00000  Uiso   1.00
C16    C     0.17781   0.25562   0.60413   0.00000  Uiso   1.00
C17    C     0.12956   0.14599   0.60122   0.00000  Uiso   1.00
C18    C     0.05970   0.48208   0.69862   0.00000  Uiso   1.00
C19    C     0.05481   0.58151   0.64375   0.00000  Uiso   1.00
C20    C     0.95032   0.62093   0.65897   0.00000  Uiso   1.00
C21    C     0.18803   0.41168   0.79072   0.00000  Uiso   1.00
C22    C     0.29103   0.45195   0.81329   0.00000  Uiso   1.00
C23    C     0.29457   0.43213   0.90606   0.00000  Uiso   1.00
H24    H     0.91349   0.27201   0.87098   0.00000  Uiso   1.00
H25    H     0.90778   0.09257   0.79437   0.00000  Uiso   1.00
H26    H     0.78481   0.41842   0.83400   0.00000  Uiso   1.00
H27    H     0.02099   0.28887   0.00351   0.00000  Uiso   1.00
H28    H     0.94378   0.91923   0.67957   0.00000  Uiso   1.00
H29    H     0.68450   0.60632   0.76315   0.00000  Uiso   1.00
H30    H     0.18254   0.33315   0.12059   0.00000  Uiso   1.00
H31    H     0.23994   0.46917   0.64099   0.00000  Uiso   1.00
H32    H     0.25215   0.30054   0.55176   0.00000  Uiso   1.00
H33    H     0.12917   0.62639   0.59139   0.00000  Uiso   1.00
H34    H     0.36535   0.49685   0.76090   0.00000  Uiso   1.00
H35    H     0.22328   0.08803   0.48265   0.00000  Uiso   1.00
H36    H     0.96399   0.77512   0.56624   0.00000  Uiso   1.00
H37    H     0.46204   0.50195   0.92368   0.00000  Uiso   1.00
O38    O     0.08564   0.88916   0.52654   0.00000  Uiso   1.00
O39    O     0.74548   0.79060   0.63621   0.00000  Uiso   1.00
O40    O     0.39890   0.43220   0.10516   0.00000  Uiso   1.00
N41    N     0.00790   0.98209   0.64548   0.00000  Uiso   1.00
N42    N     0.76548   0.62447   0.72361   0.00000  Uiso   1.00
N43    N     0.23109   0.36911   0.05780   0.00000  Uiso   1.00
N44    N     0.15830   0.07292   0.53952   0.00000  Uiso   1.00
N45    N     0.91588   0.71530   0.61766   0.00000  Uiso   1.00
N46    N     0.38149   0.45993   0.95184   0.00000  Uiso   1.00
C47    C     0.01171   0.68282   0.18171   0.00000  Uiso   1.00
C48    C     0.96954   0.75298   0.25522   0.00000  Uiso   1.00
C49    C     0.01787   0.86256   0.25802   0.00000  Uiso   1.00
C50    C     0.96668   0.91213   0.33098   0.00000  Uiso   1.00
C51    C     0.91585   0.02987   0.43485   0.00000  Uiso   1.00
C52    C     0.03636   0.57594   0.23370   0.00000  Uiso   1.00
C53    C     0.14087   0.53667   0.21839   0.00000  Uiso   1.00
C54    C     0.14592   0.43720   0.27322   0.00000  Uiso   1.00
C55    C     0.19880   0.28005   0.34364   0.00000  Uiso   1.00
C56    C     0.90804   0.64634   0.14160   0.00000  Uiso   1.00
C57    C     0.90465   0.66622   0.04885   0.00000  Uiso   1.00
C58    C     0.80166   0.62600   0.02614   0.00000  Uiso   1.00
C59    C     0.65530   0.57815   0.95356   0.00000  Uiso   1.00
C60    C     0.83485   0.57600   0.30631   0.00000  Uiso   1.00
C61    C     0.87348   0.69496   0.32290   0.00000  Uiso   1.00
C62    C     0.82219   0.74438   0.39587   0.00000  Uiso   1.00
C63    C     0.87044   0.85401   0.39878   0.00000  Uiso   1.00
C64    C     0.94030   0.51792   0.30138   0.00000  Uiso   1.00
C65    C     0.94519   0.41849   0.35625   0.00000  Uiso   1.00
C66    C     0.04968   0.37907   0.34103   0.00000  Uiso   1.00
C67    C     0.81197   0.58832   0.20928   0.00000  Uiso   1.00
C68    C     0.70897   0.54805   0.18671   0.00000  Uiso   1.00
C69    C     0.70543   0.56787   0.09394   0.00000  Uiso   1.00
H70    H     0.08651   0.72799   0.12902   0.00000  Uiso   1.00
H71    H     0.09222   0.90743   0.20563   0.00000  Uiso   1.00
H72    H     0.21519   0.58158   0.16600   0.00000  Uiso   1.00
H73    H     0.97901   0.71113   0.99649   0.00000  Uiso   1.00
H74    H     0.05622   0.08077   0.32043   0.00000  Uiso   1.00
H75    H     0.31550   0.39368   0.23685   0.00000  Uiso   1.00
H76    H     0.81746   0.66685   0.87941   0.00000  Uiso   1.00
H77    H     0.76006   0.53083   0.35901   0.00000  Uiso   1.00
H78    H     0.74785   0.69946   0.44824   0.00000  Uiso   1.00
H79    H     0.87083   0.37361   0.40861   0.00000  Uiso   1.00
H80    H     0.63465   0.50315   0.23910   0.00000  Uiso   1.00
H81    H     0.77672   0.91197   0.51735   0.00000  Uiso   1.00
H82    H     0.03601   0.22488   0.43376   0.00000  Uiso   1.00
H83    H     0.53796   0.49805   0.07632   0.00000  Uiso   1.00
O84    O     0.91436   0.11084   0.47346   0.00000  Uiso   1.00
O85    O     0.25452   0.20940   0.36379   0.00000  Uiso   1.00
O86    O     0.60110   0.56780   0.89484   0.00000  Uiso   1.00
N87    N     0.99210   0.01791   0.35452   0.00000  Uiso   1.00
N88    N     0.23452   0.37553   0.27639   0.00000  Uiso   1.00
N89    N     0.76891   0.63089   0.94220   0.00000  Uiso   1.00
N90    N     0.84170   0.92708   0.46048   0.00000  Uiso   1.00
N91    N     0.08412   0.28470   0.38234   0.00000  Uiso   1.00
N92    N     0.61851   0.54007   0.04816   0.00000  Uiso   1.00
