data_job_01278
_audit_creation_date              2018-12-19
_audit_creation_method            'Materials Studio'
_symmetry_space_group_name_H-M    'P1'
_symmetry_Int_Tables_number       1
_symmetry_cell_setting            triclinic
loop_
_symmetry_equiv_pos_as_xyz
  x,y,z
_cell_length_a                    37.0707
_cell_length_b                    11.9818
_cell_length_c                    12.9701
_cell_angle_alpha                 90.0000
_cell_angle_beta                  90.0000
_cell_angle_gamma                 90.0000
loop_
_atom_site_label
_atom_site_type_symbol
_atom_site_fract_x
_atom_site_fract_y
_atom_site_fract_z
_atom_site_U_iso_or_equiv
_atom_site_adp_type
_atom_site_occupancy
C1     C     0.87393   0.23554   0.18955   0.00000  Uiso   1.00
C2     C     0.84048   0.16844   0.16058   0.00000  Uiso   1.00
C3     C     0.83541   0.11070   0.06897   0.00000  Uiso   1.00
C4     C     0.80292   0.05448   0.05718   0.00000  Uiso   1.00
C5     C     0.75499   0.95011   0.00045   0.00000  Uiso   1.00
C6     C     0.86068   0.35308   0.21403   0.00000  Uiso   1.00
C7     C     0.87260   0.45057   0.16736   0.00000  Uiso   1.00
C8     C     0.85712   0.54978   0.20058   0.00000  Uiso   1.00
C9     C     0.84058   0.73206   0.22687   0.00000  Uiso   1.00
C10    C     0.88728   0.18705   0.29133   0.00000  Uiso   1.00
C11    C     0.92157   0.14497   0.30968   0.00000  Uiso   1.00
C12    C     0.92849   0.10441   0.40799   0.00000  Uiso   1.00
C13    C     0.95324   0.02890   0.55432   0.00000  Uiso   1.00
C14    C     0.82526   0.23837   0.33153   0.00000  Uiso   1.00
C15    C     0.81404   0.16998   0.23770   0.00000  Uiso   1.00
C16    C     0.78156   0.11383   0.22605   0.00000  Uiso   1.00
C17    C     0.77643   0.05602   0.13444   0.00000  Uiso   1.00
C18    C     0.83425   0.35462   0.29114   0.00000  Uiso   1.00
C19    C     0.81875   0.45370   0.32444   0.00000  Uiso   1.00
C20    C     0.83064   0.55132   0.27783   0.00000  Uiso   1.00
C21    C     0.86085   0.18858   0.36845   0.00000  Uiso   1.00
C22    C     0.86772   0.14809   0.46676   0.00000  Uiso   1.00
C23    C     0.90200   0.10595   0.48525   0.00000  Uiso   1.00
H24    H     0.89452   0.23435   0.12951   0.00000  Uiso   1.00
H25    H     0.85587   0.10954   0.00930   0.00000  Uiso   1.00
H26    H     0.89306   0.44936   0.10769   0.00000  Uiso   1.00
H27    H     0.94202   0.14379   0.24998   0.00000  Uiso   1.00
H28    H     0.80136   0.97188   0.91002   0.00000  Uiso   1.00
H29    H     0.87979   0.68841   0.11750   0.00000  Uiso   1.00
H30    H     0.98302   0.04406   0.41755   0.00000  Uiso   1.00
H31    H     0.80468   0.23957   0.39157   0.00000  Uiso   1.00
H32    H     0.76110   0.11504   0.28574   0.00000  Uiso   1.00
H33    H     0.79829   0.45486   0.38413   0.00000  Uiso   1.00
H34    H     0.84725   0.14929   0.52642   0.00000  Uiso   1.00
H35    H     0.72444   0.97635   0.13439   0.00000  Uiso   1.00
H36    H     0.80287   0.69287   0.34187   0.00000  Uiso   1.00
H37    H     0.90611   0.04853   0.64192   0.00000  Uiso   1.00
O38    O     0.73585   0.89214   0.94785   0.00000  Uiso   1.00
O39    O     0.83875   0.83218   0.22006   0.00000  Uiso   1.00
O40    O     0.97419   0.98682   0.61372   0.00000  Uiso   1.00
N41    N     0.78924   0.99001   0.97736   0.00000  Uiso   1.00
N42    N     0.86256   0.65991   0.17133   0.00000  Uiso   1.00
N43    N     0.95908   0.05753   0.45186   0.00000  Uiso   1.00
N44    N     0.74785   0.99241   0.09809   0.00000  Uiso   1.00
N45    N     0.82117   0.66231   0.29206   0.00000  Uiso   1.00
N46    N     0.91769   0.05993   0.57259   0.00000  Uiso   1.00
C47    C     0.62607   0.26446   0.68955   0.00000  Uiso   1.00
C48    C     0.65952   0.33156   0.66058   0.00000  Uiso   1.00
C49    C     0.66459   0.38930   0.56897   0.00000  Uiso   1.00
C50    C     0.69708   0.44552   0.55718   0.00000  Uiso   1.00
C51    C     0.74501   0.54989   0.50045   0.00000  Uiso   1.00
C52    C     0.63932   0.14692   0.71403   0.00000  Uiso   1.00
C53    C     0.62740   0.04943   0.66736   0.00000  Uiso   1.00
C54    C     0.64288   0.95022   0.70058   0.00000  Uiso   1.00
C55    C     0.65942   0.76794   0.72687   0.00000  Uiso   1.00
C56    C     0.61272   0.31295   0.79133   0.00000  Uiso   1.00
C57    C     0.57843   0.35503   0.80968   0.00000  Uiso   1.00
C58    C     0.57151   0.39559   0.90799   0.00000  Uiso   1.00
C59    C     0.54676   0.47110   0.05432   0.00000  Uiso   1.00
C60    C     0.67474   0.26163   0.83153   0.00000  Uiso   1.00
C61    C     0.68596   0.33002   0.73770   0.00000  Uiso   1.00
C62    C     0.71844   0.38617   0.72605   0.00000  Uiso   1.00
C63    C     0.72357   0.44398   0.63444   0.00000  Uiso   1.00
C64    C     0.66575   0.14538   0.79114   0.00000  Uiso   1.00
C65    C     0.68125   0.04630   0.82444   0.00000  Uiso   1.00
C66    C     0.66936   0.94868   0.77783   0.00000  Uiso   1.00
C67    C     0.63915   0.31142   0.86845   0.00000  Uiso   1.00
C68    C     0.63228   0.35191   0.96676   0.00000  Uiso   1.00
C69    C     0.59800   0.39405   0.98525   0.00000  Uiso   1.00
H70    H     0.60548   0.26565   0.62951   0.00000  Uiso   1.00
H71    H     0.64413   0.39046   0.50930   0.00000  Uiso   1.00
H72    H     0.60694   0.05064   0.60769   0.00000  Uiso   1.00
H73    H     0.55798   0.35621   0.74998   0.00000  Uiso   1.00
H74    H     0.69864   0.52812   0.41002   0.00000  Uiso   1.00
H75    H     0.62021   0.81159   0.61750   0.00000  Uiso   1.00
H76    H     0.51698   0.45594   0.91755   0.00000  Uiso   1.00
H77    H     0.69532   0.26043   0.89157   0.00000  Uiso   1.00
H78    H     0.73890   0.38496   0.78574   0.00000  Uiso   1.00
H79    H     0.70171   0.04514   0.88413   0.00000  Uiso   1.00
H80    H     0.65275   0.35071   0.02642   0.00000  Uiso   1.00
H81    H     0.77556   0.52365   0.63439   0.00000  Uiso   1.00
H82    H     0.69713   0.80713   0.84187   0.00000  Uiso   1.00
H83    H     0.59389   0.45147   0.14192   0.00000  Uiso   1.00
O84    O     0.76415   0.60786   0.44785   0.00000  Uiso   1.00
O85    O     0.66125   0.66782   0.72006   0.00000  Uiso   1.00
O86    O     0.52581   0.51318   0.11372   0.00000  Uiso   1.00
N87    N     0.71076   0.50999   0.47736   0.00000  Uiso   1.00
N88    N     0.63744   0.84009   0.67133   0.00000  Uiso   1.00
N89    N     0.54092   0.44247   0.95186   0.00000  Uiso   1.00
N90    N     0.75215   0.50759   0.59809   0.00000  Uiso   1.00
N91    N     0.67883   0.83769   0.79206   0.00000  Uiso   1.00
N92    N     0.58231   0.44007   0.07259   0.00000  Uiso   1.00
C93    C     0.12607   0.23554   0.31045   0.00000  Uiso   1.00
C94    C     0.15952   0.16844   0.33942   0.00000  Uiso   1.00
C95    C     0.16459   0.11070   0.43103   0.00000  Uiso   1.00
C96    C     0.19708   0.05448   0.44282   0.00000  Uiso   1.00
C97    C     0.24501   0.95011   0.49955   0.00000  Uiso   1.00
C98    C     0.13932   0.35308   0.28597   0.00000  Uiso   1.00
C99    C     0.12740   0.45057   0.33264   0.00000  Uiso   1.00
C100   C     0.14288   0.54978   0.29942   0.00000  Uiso   1.00
C101   C     0.15942   0.73206   0.27313   0.00000  Uiso   1.00
C102   C     0.11272   0.18705   0.20867   0.00000  Uiso   1.00
C103   C     0.07843   0.14497   0.19032   0.00000  Uiso   1.00
C104   C     0.07151   0.10441   0.09201   0.00000  Uiso   1.00
C105   C     0.04676   0.02890   0.94568   0.00000  Uiso   1.00
C106   C     0.17474   0.23837   0.16847   0.00000  Uiso   1.00
C107   C     0.18596   0.16998   0.26230   0.00000  Uiso   1.00
C108   C     0.21844   0.11383   0.27395   0.00000  Uiso   1.00
C109   C     0.22357   0.05602   0.36556   0.00000  Uiso   1.00
C110   C     0.16575   0.35462   0.20886   0.00000  Uiso   1.00
C111   C     0.18125   0.45370   0.17556   0.00000  Uiso   1.00
C112   C     0.16936   0.55132   0.22217   0.00000  Uiso   1.00
C113   C     0.13915   0.18858   0.13155   0.00000  Uiso   1.00
C114   C     0.13228   0.14809   0.03324   0.00000  Uiso   1.00
C115   C     0.09800   0.10595   0.01475   0.00000  Uiso   1.00
H116   H     0.10548   0.23435   0.37049   0.00000  Uiso   1.00
H117   H     0.14413   0.10954   0.49070   0.00000  Uiso   1.00
H118   H     0.10694   0.44936   0.39231   0.00000  Uiso   1.00
H119   H     0.05798   0.14379   0.25002   0.00000  Uiso   1.00
H120   H     0.19864   0.97188   0.58998   0.00000  Uiso   1.00
H121   H     0.12021   0.68841   0.38250   0.00000  Uiso   1.00
H122   H     0.01698   0.04406   0.08245   0.00000  Uiso   1.00
H123   H     0.19532   0.23957   0.10843   0.00000  Uiso   1.00
H124   H     0.23890   0.11504   0.21426   0.00000  Uiso   1.00
H125   H     0.20171   0.45486   0.11587   0.00000  Uiso   1.00
H126   H     0.15275   0.14929   0.97358   0.00000  Uiso   1.00
H127   H     0.27556   0.97635   0.36561   0.00000  Uiso   1.00
H128   H     0.19713   0.69287   0.15813   0.00000  Uiso   1.00
H129   H     0.09389   0.04853   0.85808   0.00000  Uiso   1.00
O130   O     0.26415   0.89214   0.55215   0.00000  Uiso   1.00
O131   O     0.16125   0.83218   0.27994   0.00000  Uiso   1.00
O132   O     0.02581   0.98682   0.88628   0.00000  Uiso   1.00
N133   N     0.21076   0.99001   0.52264   0.00000  Uiso   1.00
N134   N     0.13744   0.65991   0.32867   0.00000  Uiso   1.00
N135   N     0.04092   0.05753   0.04814   0.00000  Uiso   1.00
N136   N     0.25215   0.99241   0.40191   0.00000  Uiso   1.00
N137   N     0.17883   0.66231   0.20794   0.00000  Uiso   1.00
N138   N     0.08231   0.05993   0.92741   0.00000  Uiso   1.00
C139   C     0.37393   0.26446   0.81045   0.00000  Uiso   1.00
C140   C     0.34048   0.33156   0.83942   0.00000  Uiso   1.00
C141   C     0.33541   0.38930   0.93103   0.00000  Uiso   1.00
C142   C     0.30292   0.44552   0.94282   0.00000  Uiso   1.00
C143   C     0.25499   0.54989   0.99955   0.00000  Uiso   1.00
C144   C     0.36068   0.14692   0.78597   0.00000  Uiso   1.00
C145   C     0.37260   0.04943   0.83264   0.00000  Uiso   1.00
C146   C     0.35712   0.95022   0.79942   0.00000  Uiso   1.00
C147   C     0.34058   0.76794   0.77313   0.00000  Uiso   1.00
C148   C     0.38728   0.31295   0.70867   0.00000  Uiso   1.00
C149   C     0.42157   0.35503   0.69032   0.00000  Uiso   1.00
C150   C     0.42849   0.39559   0.59201   0.00000  Uiso   1.00
C151   C     0.45324   0.47110   0.44568   0.00000  Uiso   1.00
C152   C     0.32526   0.26163   0.66847   0.00000  Uiso   1.00
C153   C     0.31404   0.33002   0.76230   0.00000  Uiso   1.00
C154   C     0.28156   0.38617   0.77395   0.00000  Uiso   1.00
C155   C     0.27643   0.44398   0.86556   0.00000  Uiso   1.00
C156   C     0.33425   0.14538   0.70886   0.00000  Uiso   1.00
C157   C     0.31875   0.04630   0.67556   0.00000  Uiso   1.00
C158   C     0.33064   0.94868   0.72217   0.00000  Uiso   1.00
C159   C     0.36085   0.31142   0.63155   0.00000  Uiso   1.00
C160   C     0.36772   0.35191   0.53324   0.00000  Uiso   1.00
C161   C     0.40200   0.39405   0.51475   0.00000  Uiso   1.00
H162   H     0.39452   0.26565   0.87049   0.00000  Uiso   1.00
H163   H     0.35587   0.39046   0.99070   0.00000  Uiso   1.00
H164   H     0.39306   0.05064   0.89231   0.00000  Uiso   1.00
H165   H     0.44202   0.35621   0.75002   0.00000  Uiso   1.00
H166   H     0.30136   0.52812   0.08998   0.00000  Uiso   1.00
H167   H     0.37979   0.81159   0.88250   0.00000  Uiso   1.00
H168   H     0.48302   0.45594   0.58245   0.00000  Uiso   1.00
H169   H     0.30468   0.26043   0.60843   0.00000  Uiso   1.00
H170   H     0.26110   0.38496   0.71426   0.00000  Uiso   1.00
H171   H     0.29829   0.04514   0.61587   0.00000  Uiso   1.00
H172   H     0.34725   0.35071   0.47358   0.00000  Uiso   1.00
H173   H     0.22444   0.52365   0.86561   0.00000  Uiso   1.00
H174   H     0.30287   0.80713   0.65813   0.00000  Uiso   1.00
H175   H     0.40611   0.45147   0.35808   0.00000  Uiso   1.00
O176   O     0.23585   0.60786   0.05215   0.00000  Uiso   1.00
O177   O     0.33875   0.66782   0.77994   0.00000  Uiso   1.00
O178   O     0.47419   0.51318   0.38628   0.00000  Uiso   1.00
N179   N     0.28924   0.50999   0.02264   0.00000  Uiso   1.00
N180   N     0.36256   0.84009   0.82867   0.00000  Uiso   1.00
N181   N     0.45908   0.44247   0.54814   0.00000  Uiso   1.00
N182   N     0.24785   0.50759   0.90191   0.00000  Uiso   1.00
N183   N     0.32117   0.83769   0.70794   0.00000  Uiso   1.00
N184   N     0.41769   0.44007   0.42741   0.00000  Uiso   1.00
C185   C     0.12607   0.76446   0.81045   0.00000  Uiso   1.00
C186   C     0.15952   0.83156   0.83942   0.00000  Uiso   1.00
C187   C     0.16459   0.88930   0.93103   0.00000  Uiso   1.00
C188   C     0.19708   0.94552   0.94282   0.00000  Uiso   1.00
C189   C     0.24501   0.04989   0.99955   0.00000  Uiso   1.00
C190   C     0.13932   0.64692   0.78597   0.00000  Uiso   1.00
C191   C     0.12740   0.54943   0.83264   0.00000  Uiso   1.00
C192   C     0.14288   0.45022   0.79942   0.00000  Uiso   1.00
C193   C     0.15942   0.26794   0.77313   0.00000  Uiso   1.00
C194   C     0.11272   0.81295   0.70867   0.00000  Uiso   1.00
C195   C     0.07843   0.85503   0.69032   0.00000  Uiso   1.00
C196   C     0.07151   0.89559   0.59201   0.00000  Uiso   1.00
C197   C     0.04676   0.97110   0.44568   0.00000  Uiso   1.00
C198   C     0.17474   0.76163   0.66847   0.00000  Uiso   1.00
C199   C     0.18596   0.83002   0.76230   0.00000  Uiso   1.00
C200   C     0.21844   0.88617   0.77395   0.00000  Uiso   1.00
C201   C     0.22357   0.94398   0.86556   0.00000  Uiso   1.00
C202   C     0.16575   0.64538   0.70886   0.00000  Uiso   1.00
C203   C     0.18125   0.54630   0.67556   0.00000  Uiso   1.00
C204   C     0.16936   0.44868   0.72217   0.00000  Uiso   1.00
C205   C     0.13915   0.81142   0.63155   0.00000  Uiso   1.00
C206   C     0.13228   0.85191   0.53324   0.00000  Uiso   1.00
C207   C     0.09800   0.89405   0.51475   0.00000  Uiso   1.00
H208   H     0.10548   0.76565   0.87049   0.00000  Uiso   1.00
H209   H     0.14413   0.89046   0.99070   0.00000  Uiso   1.00
H210   H     0.10694   0.55064   0.89231   0.00000  Uiso   1.00
H211   H     0.05798   0.85621   0.75002   0.00000  Uiso   1.00
H212   H     0.19864   0.02812   0.08998   0.00000  Uiso   1.00
H213   H     0.12021   0.31159   0.88250   0.00000  Uiso   1.00
H214   H     0.01698   0.95594   0.58245   0.00000  Uiso   1.00
H215   H     0.19532   0.76043   0.60843   0.00000  Uiso   1.00
H216   H     0.23890   0.88496   0.71426   0.00000  Uiso   1.00
H217   H     0.20171   0.54514   0.61587   0.00000  Uiso   1.00
H218   H     0.15275   0.85071   0.47358   0.00000  Uiso   1.00
H219   H     0.27556   0.02365   0.86561   0.00000  Uiso   1.00
H220   H     0.19713   0.30713   0.65813   0.00000  Uiso   1.00
H221   H     0.09389   0.95147   0.35808   0.00000  Uiso   1.00
O222   O     0.26415   0.10786   0.05215   0.00000  Uiso   1.00
O223   O     0.16125   0.16782   0.77994   0.00000  Uiso   1.00
O224   O     0.02581   0.01318   0.38628   0.00000  Uiso   1.00
N225   N     0.21076   0.00999   0.02264   0.00000  Uiso   1.00
N226   N     0.13744   0.34009   0.82867   0.00000  Uiso   1.00
N227   N     0.04092   0.94247   0.54814   0.00000  Uiso   1.00
N228   N     0.25215   0.00759   0.90191   0.00000  Uiso   1.00
N229   N     0.17883   0.33769   0.70794   0.00000  Uiso   1.00
N230   N     0.08231   0.94007   0.42741   0.00000  Uiso   1.00
C231   C     0.37393   0.73554   0.31045   0.00000  Uiso   1.00
C232   C     0.34048   0.66844   0.33942   0.00000  Uiso   1.00
C233   C     0.33541   0.61070   0.43103   0.00000  Uiso   1.00
C234   C     0.30292   0.55448   0.44282   0.00000  Uiso   1.00
C235   C     0.25499   0.45011   0.49955   0.00000  Uiso   1.00
C236   C     0.36068   0.85308   0.28597   0.00000  Uiso   1.00
C237   C     0.37260   0.95057   0.33264   0.00000  Uiso   1.00
C238   C     0.35712   0.04978   0.29942   0.00000  Uiso   1.00
C239   C     0.34058   0.23206   0.27313   0.00000  Uiso   1.00
C240   C     0.38728   0.68705   0.20867   0.00000  Uiso   1.00
C241   C     0.42157   0.64497   0.19032   0.00000  Uiso   1.00
C242   C     0.42849   0.60441   0.09201   0.00000  Uiso   1.00
C243   C     0.45324   0.52890   0.94568   0.00000  Uiso   1.00
C244   C     0.32526   0.73837   0.16847   0.00000  Uiso   1.00
C245   C     0.31404   0.66998   0.26230   0.00000  Uiso   1.00
C246   C     0.28156   0.61383   0.27395   0.00000  Uiso   1.00
C247   C     0.27643   0.55602   0.36556   0.00000  Uiso   1.00
C248   C     0.33425   0.85462   0.20886   0.00000  Uiso   1.00
C249   C     0.31875   0.95370   0.17556   0.00000  Uiso   1.00
C250   C     0.33064   0.05132   0.22217   0.00000  Uiso   1.00
C251   C     0.36085   0.68858   0.13155   0.00000  Uiso   1.00
C252   C     0.36772   0.64809   0.03324   0.00000  Uiso   1.00
C253   C     0.40200   0.60595   0.01475   0.00000  Uiso   1.00
H254   H     0.39452   0.73435   0.37049   0.00000  Uiso   1.00
H255   H     0.35587   0.60954   0.49070   0.00000  Uiso   1.00
H256   H     0.39306   0.94936   0.39231   0.00000  Uiso   1.00
H257   H     0.44202   0.64379   0.25002   0.00000  Uiso   1.00
H258   H     0.30136   0.47188   0.58998   0.00000  Uiso   1.00
H259   H     0.37979   0.18841   0.38250   0.00000  Uiso   1.00
H260   H     0.48302   0.54406   0.08245   0.00000  Uiso   1.00
H261   H     0.30468   0.73957   0.10843   0.00000  Uiso   1.00
H262   H     0.26110   0.61504   0.21426   0.00000  Uiso   1.00
H263   H     0.29829   0.95486   0.11587   0.00000  Uiso   1.00
H264   H     0.34725   0.64929   0.97358   0.00000  Uiso   1.00
H265   H     0.22444   0.47635   0.36561   0.00000  Uiso   1.00
H266   H     0.30287   0.19287   0.15813   0.00000  Uiso   1.00
H267   H     0.40611   0.54853   0.85808   0.00000  Uiso   1.00
O268   O     0.23585   0.39214   0.55215   0.00000  Uiso   1.00
O269   O     0.33875   0.33218   0.27994   0.00000  Uiso   1.00
O270   O     0.47419   0.48682   0.88628   0.00000  Uiso   1.00
N271   N     0.28924   0.49001   0.52264   0.00000  Uiso   1.00
N272   N     0.36256   0.15991   0.32867   0.00000  Uiso   1.00
N273   N     0.45908   0.55753   0.04814   0.00000  Uiso   1.00
N274   N     0.24785   0.49241   0.40191   0.00000  Uiso   1.00
N275   N     0.32117   0.16231   0.20794   0.00000  Uiso   1.00
N276   N     0.41769   0.55993   0.92741   0.00000  Uiso   1.00
C277   C     0.87393   0.76446   0.68955   0.00000  Uiso   1.00
C278   C     0.84048   0.83156   0.66058   0.00000  Uiso   1.00
C279   C     0.83541   0.88930   0.56897   0.00000  Uiso   1.00
C280   C     0.80292   0.94552   0.55718   0.00000  Uiso   1.00
C281   C     0.75499   0.04989   0.50045   0.00000  Uiso   1.00
C282   C     0.86068   0.64692   0.71403   0.00000  Uiso   1.00
C283   C     0.87260   0.54943   0.66736   0.00000  Uiso   1.00
C284   C     0.85712   0.45022   0.70058   0.00000  Uiso   1.00
C285   C     0.84058   0.26794   0.72687   0.00000  Uiso   1.00
C286   C     0.88728   0.81295   0.79133   0.00000  Uiso   1.00
C287   C     0.92157   0.85503   0.80968   0.00000  Uiso   1.00
C288   C     0.92849   0.89559   0.90799   0.00000  Uiso   1.00
C289   C     0.95324   0.97110   0.05432   0.00000  Uiso   1.00
C290   C     0.82526   0.76163   0.83153   0.00000  Uiso   1.00
C291   C     0.81404   0.83002   0.73770   0.00000  Uiso   1.00
C292   C     0.78156   0.88617   0.72605   0.00000  Uiso   1.00
C293   C     0.77643   0.94398   0.63444   0.00000  Uiso   1.00
C294   C     0.83425   0.64538   0.79114   0.00000  Uiso   1.00
C295   C     0.81875   0.54630   0.82444   0.00000  Uiso   1.00
C296   C     0.83064   0.44868   0.77783   0.00000  Uiso   1.00
C297   C     0.86085   0.81142   0.86845   0.00000  Uiso   1.00
C298   C     0.86772   0.85191   0.96676   0.00000  Uiso   1.00
C299   C     0.90200   0.89405   0.98525   0.00000  Uiso   1.00
H300   H     0.89452   0.76565   0.62951   0.00000  Uiso   1.00
H301   H     0.85587   0.89046   0.50930   0.00000  Uiso   1.00
H302   H     0.89306   0.55064   0.60769   0.00000  Uiso   1.00
H303   H     0.94202   0.85621   0.74998   0.00000  Uiso   1.00
H304   H     0.80136   0.02812   0.41002   0.00000  Uiso   1.00
H305   H     0.87979   0.31159   0.61750   0.00000  Uiso   1.00
H306   H     0.98302   0.95594   0.91755   0.00000  Uiso   1.00
H307   H     0.80468   0.76043   0.89157   0.00000  Uiso   1.00
H308   H     0.76110   0.88496   0.78574   0.00000  Uiso   1.00
H309   H     0.79829   0.54514   0.88413   0.00000  Uiso   1.00
H310   H     0.84725   0.85071   0.02642   0.00000  Uiso   1.00
H311   H     0.72444   0.02365   0.63439   0.00000  Uiso   1.00
H312   H     0.80287   0.30713   0.84187   0.00000  Uiso   1.00
H313   H     0.90611   0.95147   0.14192   0.00000  Uiso   1.00
O314   O     0.73585   0.10786   0.44785   0.00000  Uiso   1.00
O315   O     0.83875   0.16782   0.72006   0.00000  Uiso   1.00
O316   O     0.97419   0.01318   0.11372   0.00000  Uiso   1.00
N317   N     0.78924   0.00999   0.47736   0.00000  Uiso   1.00
N318   N     0.86256   0.34009   0.67133   0.00000  Uiso   1.00
N319   N     0.95908   0.94247   0.95186   0.00000  Uiso   1.00
N320   N     0.74785   0.00759   0.59809   0.00000  Uiso   1.00
N321   N     0.82117   0.33769   0.79206   0.00000  Uiso   1.00
N322   N     0.91769   0.94007   0.07259   0.00000  Uiso   1.00
C323   C     0.62607   0.73554   0.18955   0.00000  Uiso   1.00
C324   C     0.65952   0.66844   0.16058   0.00000  Uiso   1.00
C325   C     0.66459   0.61070   0.06897   0.00000  Uiso   1.00
C326   C     0.69708   0.55448   0.05718   0.00000  Uiso   1.00
C327   C     0.74501   0.45011   0.00045   0.00000  Uiso   1.00
C328   C     0.63932   0.85308   0.21403   0.00000  Uiso   1.00
C329   C     0.62740   0.95057   0.16736   0.00000  Uiso   1.00
C330   C     0.64288   0.04978   0.20058   0.00000  Uiso   1.00
C331   C     0.65942   0.23206   0.22687   0.00000  Uiso   1.00
C332   C     0.61272   0.68705   0.29133   0.00000  Uiso   1.00
C333   C     0.57843   0.64497   0.30968   0.00000  Uiso   1.00
C334   C     0.57151   0.60441   0.40799   0.00000  Uiso   1.00
C335   C     0.54676   0.52890   0.55432   0.00000  Uiso   1.00
C336   C     0.67474   0.73837   0.33153   0.00000  Uiso   1.00
C337   C     0.68596   0.66998   0.23770   0.00000  Uiso   1.00
C338   C     0.71844   0.61383   0.22605   0.00000  Uiso   1.00
C339   C     0.72357   0.55602   0.13444   0.00000  Uiso   1.00
C340   C     0.66575   0.85462   0.29114   0.00000  Uiso   1.00
C341   C     0.68125   0.95370   0.32444   0.00000  Uiso   1.00
C342   C     0.66936   0.05132   0.27783   0.00000  Uiso   1.00
C343   C     0.63915   0.68858   0.36845   0.00000  Uiso   1.00
C344   C     0.63228   0.64809   0.46676   0.00000  Uiso   1.00
C345   C     0.59800   0.60595   0.48525   0.00000  Uiso   1.00
H346   H     0.60548   0.73435   0.12951   0.00000  Uiso   1.00
H347   H     0.64413   0.60954   0.00930   0.00000  Uiso   1.00
H348   H     0.60694   0.94936   0.10769   0.00000  Uiso   1.00
H349   H     0.55798   0.64379   0.24998   0.00000  Uiso   1.00
H350   H     0.69864   0.47188   0.91002   0.00000  Uiso   1.00
H351   H     0.62021   0.18841   0.11750   0.00000  Uiso   1.00
H352   H     0.51698   0.54406   0.41755   0.00000  Uiso   1.00
H353   H     0.69532   0.73957   0.39157   0.00000  Uiso   1.00
H354   H     0.73890   0.61504   0.28574   0.00000  Uiso   1.00
H355   H     0.70171   0.95486   0.38413   0.00000  Uiso   1.00
H356   H     0.65275   0.64929   0.52642   0.00000  Uiso   1.00
H357   H     0.77556   0.47635   0.13439   0.00000  Uiso   1.00
H358   H     0.69713   0.19287   0.34187   0.00000  Uiso   1.00
H359   H     0.59389   0.54853   0.64192   0.00000  Uiso   1.00
O360   O     0.76415   0.39214   0.94785   0.00000  Uiso   1.00
O361   O     0.66125   0.33218   0.22006   0.00000  Uiso   1.00
O362   O     0.52581   0.48682   0.61372   0.00000  Uiso   1.00
N363   N     0.71076   0.49001   0.97736   0.00000  Uiso   1.00
N364   N     0.63744   0.15991   0.17133   0.00000  Uiso   1.00
N365   N     0.54092   0.55753   0.45186   0.00000  Uiso   1.00
N366   N     0.75215   0.49241   0.09809   0.00000  Uiso   1.00
N367   N     0.67883   0.16231   0.29206   0.00000  Uiso   1.00
N368   N     0.58231   0.55993   0.57259   0.00000  Uiso   1.00
