data_job_03471
_audit_creation_date              2018-12-19
_audit_creation_method            'Materials Studio'
_symmetry_space_group_name_H-M    'P1'
_symmetry_Int_Tables_number       1
_symmetry_cell_setting            triclinic
loop_
_symmetry_equiv_pos_as_xyz
  x,y,z
_cell_length_a                    9.7712
_cell_length_b                    11.8385
_cell_length_c                    15.1933
_cell_angle_alpha                 110.4544
_cell_angle_beta                  87.1926
_cell_angle_gamma                 67.9407
loop_
_atom_site_label
_atom_site_type_symbol
_atom_site_fract_x
_atom_site_fract_y
_atom_site_fract_z
_atom_site_U_iso_or_equiv
_atom_site_adp_type
_atom_site_occupancy
C1     C     0.71535   0.69131   0.66113   0.00000  Uiso   1.00
C2     C     0.76698   0.80324   0.69470   0.00000  Uiso   1.00
C3     C     0.91569   0.78741   0.68898   0.00000  Uiso   1.00
C4     C     0.93942   0.90225   0.72362   0.00000  Uiso   1.00
C5     C     0.03796   0.05686   0.76986   0.00000  Uiso   1.00
C6     C     0.61009   0.71150   0.74819   0.00000  Uiso   1.00
C7     C     0.62688   0.61853   0.78742   0.00000  Uiso   1.00
C8     C     0.51852   0.65614   0.86708   0.00000  Uiso   1.00
C9     C     0.37342   0.66829   0.99631   0.00000  Uiso   1.00
C10    C     0.61663   0.71824   0.58965   0.00000  Uiso   1.00
C11    C     0.63889   0.63093   0.49560   0.00000  Uiso   1.00
C12    C     0.53601   0.67421   0.44179   0.00000  Uiso   1.00
C13    C     0.40106   0.69683   0.32488   0.00000  Uiso   1.00
C14    C     0.49304   0.92340   0.73282   0.00000  Uiso   1.00
C15    C     0.64622   0.92929   0.73364   0.00000  Uiso   1.00
C16    C     0.66973   0.04419   0.76830   0.00000  Uiso   1.00
C17    C     0.81846   0.02853   0.76262   0.00000  Uiso   1.00
C18    C     0.48934   0.83755   0.78713   0.00000  Uiso   1.00
C19    C     0.38092   0.87530   0.86674   0.00000  Uiso   1.00
C20    C     0.39755   0.78242   0.90609   0.00000  Uiso   1.00
C21    C     0.49588   0.84430   0.62859   0.00000  Uiso   1.00
C22    C     0.39293   0.88771   0.57492   0.00000  Uiso   1.00
C23    C     0.41504   0.80049   0.48080   0.00000  Uiso   1.00
H24    H     0.80935   0.59316   0.63082   0.00000  Uiso   1.00
H25    H     0.00911   0.68983   0.65885   0.00000  Uiso   1.00
H26    H     0.72032   0.52098   0.75727   0.00000  Uiso   1.00
H27    H     0.73234   0.53339   0.46549   0.00000  Uiso   1.00
H28    H     0.17732   0.85260   0.70713   0.00000  Uiso   1.00
H29    H     0.56839   0.49654   0.91463   0.00000  Uiso   1.00
H30    H     0.59372   0.52270   0.29936   0.00000  Uiso   1.00
H31    H     0.39902   0.02154   0.76314   0.00000  Uiso   1.00
H32    H     0.57627   0.14173   0.79843   0.00000  Uiso   1.00
H33    H     0.28749   0.97286   0.89685   0.00000  Uiso   1.00
H34    H     0.29950   0.98527   0.60507   0.00000  Uiso   1.00
H35    H     0.82602   0.21938   0.82042   0.00000  Uiso   1.00
H36    H     0.21707   0.86331   0.02792   0.00000  Uiso   1.00
H37    H     0.24241   0.88947   0.41265   0.00000  Uiso   1.00
O38    O     0.12567   0.10732   0.78462   0.00000  Uiso   1.00
O39    O     0.32675   0.64017   0.05684   0.00000  Uiso   1.00
O40    O     0.36000   0.67449   0.24963   0.00000  Uiso   1.00
N41    N     0.07032   0.92243   0.72893   0.00000  Uiso   1.00
N42    N     0.50101   0.58954   0.92294   0.00000  Uiso   1.00
N43    N     0.52467   0.61399   0.34772   0.00000  Uiso   1.00
N44    N     0.88128   0.11979   0.78989   0.00000  Uiso   1.00
N45    N     0.31198   0.78690   0.98390   0.00000  Uiso   1.00
N46    N     0.33564   0.81134   0.40868   0.00000  Uiso   1.00
C47    C     0.28465   0.30869   0.33887   0.00000  Uiso   1.00
C48    C     0.23302   0.19676   0.30530   0.00000  Uiso   1.00
C49    C     0.08431   0.21259   0.31102   0.00000  Uiso   1.00
C50    C     0.06058   0.09775   0.27638   0.00000  Uiso   1.00
C51    C     0.96204   0.94314   0.23014   0.00000  Uiso   1.00
C52    C     0.38991   0.28850   0.25181   0.00000  Uiso   1.00
C53    C     0.37312   0.38147   0.21258   0.00000  Uiso   1.00
C54    C     0.48148   0.34386   0.13292   0.00000  Uiso   1.00
C55    C     0.62658   0.33171   0.00369   0.00000  Uiso   1.00
C56    C     0.38337   0.28176   0.41035   0.00000  Uiso   1.00
C57    C     0.36111   0.36907   0.50440   0.00000  Uiso   1.00
C58    C     0.46399   0.32579   0.55821   0.00000  Uiso   1.00
C59    C     0.59894   0.30317   0.67512   0.00000  Uiso   1.00
C60    C     0.50696   0.07660   0.26718   0.00000  Uiso   1.00
C61    C     0.35378   0.07071   0.26636   0.00000  Uiso   1.00
C62    C     0.33027   0.95581   0.23170   0.00000  Uiso   1.00
C63    C     0.18154   0.97147   0.23738   0.00000  Uiso   1.00
C64    C     0.51066   0.16245   0.21287   0.00000  Uiso   1.00
C65    C     0.61908   0.12470   0.13326   0.00000  Uiso   1.00
C66    C     0.60245   0.21758   0.09391   0.00000  Uiso   1.00
C67    C     0.50412   0.15570   0.37141   0.00000  Uiso   1.00
C68    C     0.60707   0.11229   0.42508   0.00000  Uiso   1.00
C69    C     0.58496   0.19951   0.51920   0.00000  Uiso   1.00
H70    H     0.19065   0.40684   0.36918   0.00000  Uiso   1.00
H71    H     0.99089   0.31017   0.34115   0.00000  Uiso   1.00
H72    H     0.27968   0.47902   0.24273   0.00000  Uiso   1.00
H73    H     0.26766   0.46661   0.53451   0.00000  Uiso   1.00
H74    H     0.82268   0.14740   0.29287   0.00000  Uiso   1.00
H75    H     0.43161   0.50346   0.08537   0.00000  Uiso   1.00
H76    H     0.40628   0.47730   0.70064   0.00000  Uiso   1.00
H77    H     0.60098   0.97846   0.23686   0.00000  Uiso   1.00
H78    H     0.42373   0.85827   0.20157   0.00000  Uiso   1.00
H79    H     0.71251   0.02714   0.10315   0.00000  Uiso   1.00
H80    H     0.70050   0.01473   0.39493   0.00000  Uiso   1.00
H81    H     0.17398   0.78062   0.17958   0.00000  Uiso   1.00
H82    H     0.78293   0.13669   0.97208   0.00000  Uiso   1.00
H83    H     0.75759   0.11053   0.58735   0.00000  Uiso   1.00
O84    O     0.87433   0.89268   0.21538   0.00000  Uiso   1.00
O85    O     0.67325   0.35983   0.94316   0.00000  Uiso   1.00
O86    O     0.64000   0.32551   0.75037   0.00000  Uiso   1.00
N87    N     0.92968   0.07757   0.27107   0.00000  Uiso   1.00
N88    N     0.49899   0.41046   0.07706   0.00000  Uiso   1.00
N89    N     0.47533   0.38601   0.65228   0.00000  Uiso   1.00
N90    N     0.11872   0.88021   0.21011   0.00000  Uiso   1.00
N91    N     0.68802   0.21310   0.01610   0.00000  Uiso   1.00
N92    N     0.66436   0.18866   0.59132   0.00000  Uiso   1.00
