data_job_03295
_audit_creation_date              2018-12-19
_audit_creation_method            'Materials Studio'
_symmetry_space_group_name_H-M    'P1'
_symmetry_Int_Tables_number       1
_symmetry_cell_setting            triclinic
loop_
_symmetry_equiv_pos_as_xyz
  x,y,z
_cell_length_a                    30.4119
_cell_length_b                    11.9840
_cell_length_c                    22.7128
_cell_angle_alpha                 90.0000
_cell_angle_beta                  61.9621
_cell_angle_gamma                 90.0000
loop_
_atom_site_label
_atom_site_type_symbol
_atom_site_fract_x
_atom_site_fract_y
_atom_site_fract_z
_atom_site_U_iso_or_equiv
_atom_site_adp_type
_atom_site_occupancy
C1     C     0.36546   0.21724   0.51933   0.00000  Uiso   1.00
C2     C     0.41123   0.25075   0.52617   0.00000  Uiso   1.00
C3     C     0.42184   0.21686   0.57655   0.00000  Uiso   1.00
C4     C     0.46559   0.25672   0.57394   0.00000  Uiso   1.00
C5     C     0.53177   0.29797   0.59236   0.00000  Uiso   1.00
C6     C     0.34030   0.32595   0.51690   0.00000  Uiso   1.00
C7     C     0.29128   0.35528   0.55950   0.00000  Uiso   1.00
C8     C     0.27532   0.45844   0.54908   0.00000  Uiso   1.00
C9     C     0.23139   0.61640   0.55309   0.00000  Uiso   1.00
C10    C     0.38517   0.16484   0.45036   0.00000  Uiso   1.00
C11    C     0.37386   0.05872   0.43699   0.00000  Uiso   1.00
C12    C     0.39566   0.02625   0.37054   0.00000  Uiso   1.00
C13    C     0.42139   0.93406   0.27122   0.00000  Uiso   1.00
C14    C     0.42428   0.34829   0.42510   0.00000  Uiso   1.00
C15    C     0.44317   0.32193   0.47498   0.00000  Uiso   1.00
C16    C     0.48692   0.36185   0.47230   0.00000  Uiso   1.00
C17    C     0.49759   0.32802   0.52267   0.00000  Uiso   1.00
C18    C     0.37225   0.39713   0.46572   0.00000  Uiso   1.00
C19    C     0.35636   0.50027   0.45524   0.00000  Uiso   1.00
C20    C     0.30733   0.52975   0.49781   0.00000  Uiso   1.00
C21    C     0.41712   0.23602   0.39917   0.00000  Uiso   1.00
C22    C     0.43894   0.20371   0.33274   0.00000  Uiso   1.00
C23    C     0.42767   0.09756   0.31927   0.00000  Uiso   1.00
H24    H     0.34059   0.16183   0.55918   0.00000  Uiso   1.00
H25    H     0.39710   0.16178   0.61615   0.00000  Uiso   1.00
H26    H     0.26657   0.30017   0.59909   0.00000  Uiso   1.00
H27    H     0.34913   0.00366   0.47661   0.00000  Uiso   1.00
H28    H     0.47384   0.19315   0.65676   0.00000  Uiso   1.00
H29    H     0.19859   0.48494   0.62078   0.00000  Uiso   1.00
H30    H     0.37270   0.85968   0.36249   0.00000  Uiso   1.00
H31    H     0.44916   0.40371   0.38525   0.00000  Uiso   1.00
H32    H     0.51163   0.41693   0.43269   0.00000  Uiso   1.00
H33    H     0.38109   0.55533   0.41563   0.00000  Uiso   1.00
H34    H     0.46366   0.25881   0.29314   0.00000  Uiso   1.00
H35    H     0.56680   0.40025   0.50786   0.00000  Uiso   1.00
H36    H     0.29154   0.69204   0.47187   0.00000  Uiso   1.00
H37    H     0.46565   0.06678   0.21358   0.00000  Uiso   1.00
O38    O     0.55945   0.30106   0.61666   0.00000  Uiso   1.00
O39    O     0.19833   0.68387   0.56944   0.00000  Uiso   1.00
O40    O     0.42675   0.86355   0.23058   0.00000  Uiso   1.00
N41    N     0.48715   0.24006   0.61520   0.00000  Uiso   1.00
N42    N     0.22981   0.51288   0.58157   0.00000  Uiso   1.00
N43    N     0.39257   0.92832   0.34009   0.00000  Uiso   1.00
N44    N     0.53717   0.35149   0.53508   0.00000  Uiso   1.00
N45    N     0.27983   0.62431   0.50144   0.00000  Uiso   1.00
N46    N     0.44259   0.03975   0.25996   0.00000  Uiso   1.00
C47    C     0.86546   0.71724   0.51933   0.00000  Uiso   1.00
C48    C     0.91123   0.75075   0.52617   0.00000  Uiso   1.00
C49    C     0.92184   0.71686   0.57655   0.00000  Uiso   1.00
C50    C     0.96559   0.75672   0.57394   0.00000  Uiso   1.00
C51    C     0.03177   0.79797   0.59236   0.00000  Uiso   1.00
C52    C     0.84030   0.82595   0.51690   0.00000  Uiso   1.00
C53    C     0.79128   0.85528   0.55950   0.00000  Uiso   1.00
C54    C     0.77532   0.95844   0.54908   0.00000  Uiso   1.00
C55    C     0.73139   0.11640   0.55309   0.00000  Uiso   1.00
C56    C     0.88517   0.66484   0.45036   0.00000  Uiso   1.00
C57    C     0.87386   0.55872   0.43699   0.00000  Uiso   1.00
C58    C     0.89566   0.52625   0.37054   0.00000  Uiso   1.00
C59    C     0.92139   0.43406   0.27122   0.00000  Uiso   1.00
C60    C     0.92428   0.84829   0.42510   0.00000  Uiso   1.00
C61    C     0.94317   0.82193   0.47498   0.00000  Uiso   1.00
C62    C     0.98692   0.86185   0.47230   0.00000  Uiso   1.00
C63    C     0.99759   0.82802   0.52267   0.00000  Uiso   1.00
C64    C     0.87225   0.89713   0.46572   0.00000  Uiso   1.00
C65    C     0.85636   0.00027   0.45524   0.00000  Uiso   1.00
C66    C     0.80733   0.02975   0.49781   0.00000  Uiso   1.00
C67    C     0.91712   0.73602   0.39917   0.00000  Uiso   1.00
C68    C     0.93894   0.70371   0.33274   0.00000  Uiso   1.00
C69    C     0.92767   0.59756   0.31927   0.00000  Uiso   1.00
H70    H     0.84059   0.66183   0.55918   0.00000  Uiso   1.00
H71    H     0.89710   0.66178   0.61615   0.00000  Uiso   1.00
H72    H     0.76657   0.80017   0.59909   0.00000  Uiso   1.00
H73    H     0.84913   0.50366   0.47661   0.00000  Uiso   1.00
H74    H     0.97384   0.69315   0.65676   0.00000  Uiso   1.00
H75    H     0.69859   0.98494   0.62078   0.00000  Uiso   1.00
H76    H     0.87270   0.35968   0.36249   0.00000  Uiso   1.00
H77    H     0.94916   0.90371   0.38525   0.00000  Uiso   1.00
H78    H     0.01163   0.91693   0.43269   0.00000  Uiso   1.00
H79    H     0.88109   0.05533   0.41563   0.00000  Uiso   1.00
H80    H     0.96366   0.75881   0.29314   0.00000  Uiso   1.00
H81    H     0.06680   0.90025   0.50786   0.00000  Uiso   1.00
H82    H     0.79154   0.19204   0.47187   0.00000  Uiso   1.00
H83    H     0.96565   0.56678   0.21358   0.00000  Uiso   1.00
O84    O     0.05945   0.80106   0.61666   0.00000  Uiso   1.00
O85    O     0.69833   0.18387   0.56944   0.00000  Uiso   1.00
O86    O     0.92675   0.36355   0.23058   0.00000  Uiso   1.00
N87    N     0.98715   0.74006   0.61520   0.00000  Uiso   1.00
N88    N     0.72981   0.01288   0.58157   0.00000  Uiso   1.00
N89    N     0.89257   0.42832   0.34009   0.00000  Uiso   1.00
N90    N     0.03717   0.85149   0.53508   0.00000  Uiso   1.00
N91    N     0.77983   0.12431   0.50144   0.00000  Uiso   1.00
N92    N     0.94259   0.53975   0.25996   0.00000  Uiso   1.00
C93    C     0.63454   0.21724   0.98067   0.00000  Uiso   1.00
C94    C     0.58877   0.25075   0.97383   0.00000  Uiso   1.00
C95    C     0.57816   0.21686   0.92345   0.00000  Uiso   1.00
C96    C     0.53441   0.25672   0.92606   0.00000  Uiso   1.00
C97    C     0.46823   0.29797   0.90764   0.00000  Uiso   1.00
C98    C     0.65970   0.32595   0.98310   0.00000  Uiso   1.00
C99    C     0.70872   0.35528   0.94050   0.00000  Uiso   1.00
C100   C     0.72468   0.45844   0.95092   0.00000  Uiso   1.00
C101   C     0.76861   0.61640   0.94691   0.00000  Uiso   1.00
C102   C     0.61483   0.16484   0.04964   0.00000  Uiso   1.00
C103   C     0.62614   0.05872   0.06301   0.00000  Uiso   1.00
C104   C     0.60434   0.02625   0.12946   0.00000  Uiso   1.00
C105   C     0.57861   0.93406   0.22878   0.00000  Uiso   1.00
C106   C     0.57572   0.34829   0.07490   0.00000  Uiso   1.00
C107   C     0.55683   0.32193   0.02502   0.00000  Uiso   1.00
C108   C     0.51308   0.36185   0.02770   0.00000  Uiso   1.00
C109   C     0.50241   0.32802   0.97733   0.00000  Uiso   1.00
C110   C     0.62775   0.39713   0.03428   0.00000  Uiso   1.00
C111   C     0.64364   0.50027   0.04476   0.00000  Uiso   1.00
C112   C     0.69267   0.52975   0.00219   0.00000  Uiso   1.00
C113   C     0.58288   0.23602   0.10083   0.00000  Uiso   1.00
C114   C     0.56106   0.20371   0.16726   0.00000  Uiso   1.00
C115   C     0.57233   0.09756   0.18073   0.00000  Uiso   1.00
H116   H     0.65941   0.16183   0.94082   0.00000  Uiso   1.00
H117   H     0.60290   0.16178   0.88385   0.00000  Uiso   1.00
H118   H     0.73343   0.30017   0.90091   0.00000  Uiso   1.00
H119   H     0.65087   0.00366   0.02339   0.00000  Uiso   1.00
H120   H     0.52616   0.19315   0.84324   0.00000  Uiso   1.00
H121   H     0.80141   0.48494   0.87922   0.00000  Uiso   1.00
H122   H     0.62730   0.85968   0.13751   0.00000  Uiso   1.00
H123   H     0.55084   0.40371   0.11475   0.00000  Uiso   1.00
H124   H     0.48837   0.41693   0.06731   0.00000  Uiso   1.00
H125   H     0.61891   0.55533   0.08437   0.00000  Uiso   1.00
H126   H     0.53634   0.25881   0.20686   0.00000  Uiso   1.00
H127   H     0.43320   0.40025   0.99214   0.00000  Uiso   1.00
H128   H     0.70846   0.69204   0.02813   0.00000  Uiso   1.00
H129   H     0.53435   0.06678   0.28642   0.00000  Uiso   1.00
O130   O     0.44055   0.30106   0.88334   0.00000  Uiso   1.00
O131   O     0.80167   0.68387   0.93056   0.00000  Uiso   1.00
O132   O     0.57325   0.86355   0.26942   0.00000  Uiso   1.00
N133   N     0.51285   0.24006   0.88480   0.00000  Uiso   1.00
N134   N     0.77019   0.51288   0.91843   0.00000  Uiso   1.00
N135   N     0.60743   0.92832   0.15991   0.00000  Uiso   1.00
N136   N     0.46283   0.35149   0.96492   0.00000  Uiso   1.00
N137   N     0.72017   0.62431   0.99856   0.00000  Uiso   1.00
N138   N     0.55741   0.03975   0.24004   0.00000  Uiso   1.00
C139   C     0.13454   0.71724   0.98067   0.00000  Uiso   1.00
C140   C     0.08877   0.75075   0.97383   0.00000  Uiso   1.00
C141   C     0.07816   0.71686   0.92345   0.00000  Uiso   1.00
C142   C     0.03441   0.75672   0.92606   0.00000  Uiso   1.00
C143   C     0.96823   0.79797   0.90764   0.00000  Uiso   1.00
C144   C     0.15970   0.82595   0.98310   0.00000  Uiso   1.00
C145   C     0.20872   0.85528   0.94050   0.00000  Uiso   1.00
C146   C     0.22468   0.95844   0.95092   0.00000  Uiso   1.00
C147   C     0.26861   0.11640   0.94691   0.00000  Uiso   1.00
C148   C     0.11483   0.66484   0.04964   0.00000  Uiso   1.00
C149   C     0.12614   0.55872   0.06301   0.00000  Uiso   1.00
C150   C     0.10434   0.52625   0.12946   0.00000  Uiso   1.00
C151   C     0.07861   0.43406   0.22878   0.00000  Uiso   1.00
C152   C     0.07572   0.84829   0.07490   0.00000  Uiso   1.00
C153   C     0.05683   0.82193   0.02502   0.00000  Uiso   1.00
C154   C     0.01308   0.86185   0.02770   0.00000  Uiso   1.00
C155   C     0.00241   0.82802   0.97733   0.00000  Uiso   1.00
C156   C     0.12775   0.89713   0.03428   0.00000  Uiso   1.00
C157   C     0.14364   0.00027   0.04476   0.00000  Uiso   1.00
C158   C     0.19267   0.02975   0.00219   0.00000  Uiso   1.00
C159   C     0.08288   0.73602   0.10083   0.00000  Uiso   1.00
C160   C     0.06106   0.70371   0.16726   0.00000  Uiso   1.00
C161   C     0.07233   0.59756   0.18073   0.00000  Uiso   1.00
H162   H     0.15941   0.66183   0.94082   0.00000  Uiso   1.00
H163   H     0.10290   0.66178   0.88385   0.00000  Uiso   1.00
H164   H     0.23343   0.80017   0.90091   0.00000  Uiso   1.00
H165   H     0.15087   0.50366   0.02339   0.00000  Uiso   1.00
H166   H     0.02616   0.69315   0.84324   0.00000  Uiso   1.00
H167   H     0.30141   0.98494   0.87922   0.00000  Uiso   1.00
H168   H     0.12730   0.35968   0.13751   0.00000  Uiso   1.00
H169   H     0.05084   0.90371   0.11475   0.00000  Uiso   1.00
H170   H     0.98837   0.91693   0.06731   0.00000  Uiso   1.00
H171   H     0.11891   0.05533   0.08437   0.00000  Uiso   1.00
H172   H     0.03634   0.75881   0.20686   0.00000  Uiso   1.00
H173   H     0.93320   0.90025   0.99214   0.00000  Uiso   1.00
H174   H     0.20846   0.19204   0.02813   0.00000  Uiso   1.00
H175   H     0.03435   0.56678   0.28642   0.00000  Uiso   1.00
O176   O     0.94055   0.80106   0.88334   0.00000  Uiso   1.00
O177   O     0.30167   0.18387   0.93056   0.00000  Uiso   1.00
O178   O     0.07325   0.36355   0.26942   0.00000  Uiso   1.00
N179   N     0.01285   0.74006   0.88480   0.00000  Uiso   1.00
N180   N     0.27019   0.01288   0.91843   0.00000  Uiso   1.00
N181   N     0.10743   0.42832   0.15991   0.00000  Uiso   1.00
N182   N     0.96283   0.85149   0.96492   0.00000  Uiso   1.00
N183   N     0.22017   0.12431   0.99856   0.00000  Uiso   1.00
N184   N     0.05741   0.53975   0.24004   0.00000  Uiso   1.00
C185   C     0.63454   0.78276   0.48067   0.00000  Uiso   1.00
C186   C     0.58877   0.74925   0.47383   0.00000  Uiso   1.00
C187   C     0.57816   0.78314   0.42345   0.00000  Uiso   1.00
C188   C     0.53441   0.74328   0.42606   0.00000  Uiso   1.00
C189   C     0.46823   0.70203   0.40764   0.00000  Uiso   1.00
C190   C     0.65970   0.67405   0.48310   0.00000  Uiso   1.00
C191   C     0.70872   0.64472   0.44050   0.00000  Uiso   1.00
C192   C     0.72468   0.54156   0.45092   0.00000  Uiso   1.00
C193   C     0.76861   0.38360   0.44691   0.00000  Uiso   1.00
C194   C     0.61483   0.83516   0.54964   0.00000  Uiso   1.00
C195   C     0.62614   0.94128   0.56301   0.00000  Uiso   1.00
C196   C     0.60434   0.97375   0.62946   0.00000  Uiso   1.00
C197   C     0.57861   0.06594   0.72878   0.00000  Uiso   1.00
C198   C     0.57572   0.65171   0.57490   0.00000  Uiso   1.00
C199   C     0.55683   0.67807   0.52502   0.00000  Uiso   1.00
C200   C     0.51308   0.63815   0.52770   0.00000  Uiso   1.00
C201   C     0.50241   0.67198   0.47733   0.00000  Uiso   1.00
C202   C     0.62775   0.60287   0.53428   0.00000  Uiso   1.00
C203   C     0.64364   0.49973   0.54476   0.00000  Uiso   1.00
C204   C     0.69267   0.47025   0.50219   0.00000  Uiso   1.00
C205   C     0.58288   0.76398   0.60083   0.00000  Uiso   1.00
C206   C     0.56106   0.79629   0.66726   0.00000  Uiso   1.00
C207   C     0.57233   0.90244   0.68073   0.00000  Uiso   1.00
H208   H     0.65941   0.83817   0.44082   0.00000  Uiso   1.00
H209   H     0.60290   0.83822   0.38385   0.00000  Uiso   1.00
H210   H     0.73343   0.69983   0.40091   0.00000  Uiso   1.00
H211   H     0.65087   0.99634   0.52339   0.00000  Uiso   1.00
H212   H     0.52616   0.80685   0.34324   0.00000  Uiso   1.00
H213   H     0.80141   0.51506   0.37922   0.00000  Uiso   1.00
H214   H     0.62730   0.14032   0.63751   0.00000  Uiso   1.00
H215   H     0.55084   0.59629   0.61475   0.00000  Uiso   1.00
H216   H     0.48837   0.58307   0.56731   0.00000  Uiso   1.00
H217   H     0.61891   0.44467   0.58437   0.00000  Uiso   1.00
H218   H     0.53634   0.74119   0.70686   0.00000  Uiso   1.00
H219   H     0.43320   0.59975   0.49214   0.00000  Uiso   1.00
H220   H     0.70846   0.30796   0.52813   0.00000  Uiso   1.00
H221   H     0.53435   0.93322   0.78642   0.00000  Uiso   1.00
O222   O     0.44055   0.69894   0.38334   0.00000  Uiso   1.00
O223   O     0.80167   0.31613   0.43056   0.00000  Uiso   1.00
O224   O     0.57325   0.13645   0.76942   0.00000  Uiso   1.00
N225   N     0.51285   0.75994   0.38480   0.00000  Uiso   1.00
N226   N     0.77019   0.48712   0.41843   0.00000  Uiso   1.00
N227   N     0.60743   0.07168   0.65991   0.00000  Uiso   1.00
N228   N     0.46283   0.64851   0.46492   0.00000  Uiso   1.00
N229   N     0.72017   0.37569   0.49856   0.00000  Uiso   1.00
N230   N     0.55741   0.96025   0.74004   0.00000  Uiso   1.00
C231   C     0.13454   0.28276   0.48067   0.00000  Uiso   1.00
C232   C     0.08877   0.24925   0.47383   0.00000  Uiso   1.00
C233   C     0.07816   0.28314   0.42345   0.00000  Uiso   1.00
C234   C     0.03441   0.24328   0.42606   0.00000  Uiso   1.00
C235   C     0.96823   0.20203   0.40764   0.00000  Uiso   1.00
C236   C     0.15970   0.17405   0.48310   0.00000  Uiso   1.00
C237   C     0.20872   0.14472   0.44050   0.00000  Uiso   1.00
C238   C     0.22468   0.04156   0.45092   0.00000  Uiso   1.00
C239   C     0.26861   0.88360   0.44691   0.00000  Uiso   1.00
C240   C     0.11483   0.33516   0.54964   0.00000  Uiso   1.00
C241   C     0.12614   0.44128   0.56301   0.00000  Uiso   1.00
C242   C     0.10434   0.47375   0.62946   0.00000  Uiso   1.00
C243   C     0.07861   0.56594   0.72878   0.00000  Uiso   1.00
C244   C     0.07572   0.15171   0.57490   0.00000  Uiso   1.00
C245   C     0.05683   0.17807   0.52502   0.00000  Uiso   1.00
C246   C     0.01308   0.13815   0.52770   0.00000  Uiso   1.00
C247   C     0.00241   0.17198   0.47733   0.00000  Uiso   1.00
C248   C     0.12775   0.10287   0.53428   0.00000  Uiso   1.00
C249   C     0.14364   0.99973   0.54476   0.00000  Uiso   1.00
C250   C     0.19267   0.97025   0.50219   0.00000  Uiso   1.00
C251   C     0.08288   0.26398   0.60083   0.00000  Uiso   1.00
C252   C     0.06106   0.29629   0.66726   0.00000  Uiso   1.00
C253   C     0.07233   0.40244   0.68073   0.00000  Uiso   1.00
H254   H     0.15941   0.33817   0.44082   0.00000  Uiso   1.00
H255   H     0.10290   0.33822   0.38385   0.00000  Uiso   1.00
H256   H     0.23343   0.19983   0.40091   0.00000  Uiso   1.00
H257   H     0.15087   0.49634   0.52339   0.00000  Uiso   1.00
H258   H     0.02616   0.30685   0.34324   0.00000  Uiso   1.00
H259   H     0.30141   0.01506   0.37922   0.00000  Uiso   1.00
H260   H     0.12730   0.64032   0.63751   0.00000  Uiso   1.00
H261   H     0.05084   0.09629   0.61475   0.00000  Uiso   1.00
H262   H     0.98837   0.08307   0.56731   0.00000  Uiso   1.00
H263   H     0.11891   0.94467   0.58437   0.00000  Uiso   1.00
H264   H     0.03634   0.24119   0.70686   0.00000  Uiso   1.00
H265   H     0.93320   0.09975   0.49214   0.00000  Uiso   1.00
H266   H     0.20846   0.80796   0.52813   0.00000  Uiso   1.00
H267   H     0.03435   0.43322   0.78642   0.00000  Uiso   1.00
O268   O     0.94055   0.19894   0.38334   0.00000  Uiso   1.00
O269   O     0.30167   0.81613   0.43056   0.00000  Uiso   1.00
O270   O     0.07325   0.63645   0.76942   0.00000  Uiso   1.00
N271   N     0.01285   0.25994   0.38480   0.00000  Uiso   1.00
N272   N     0.27019   0.98712   0.41843   0.00000  Uiso   1.00
N273   N     0.10743   0.57168   0.65991   0.00000  Uiso   1.00
N274   N     0.96283   0.14851   0.46492   0.00000  Uiso   1.00
N275   N     0.22017   0.87569   0.49856   0.00000  Uiso   1.00
N276   N     0.05741   0.46025   0.74004   0.00000  Uiso   1.00
C277   C     0.36546   0.78276   0.01933   0.00000  Uiso   1.00
C278   C     0.41123   0.74925   0.02617   0.00000  Uiso   1.00
C279   C     0.42184   0.78314   0.07655   0.00000  Uiso   1.00
C280   C     0.46559   0.74328   0.07394   0.00000  Uiso   1.00
C281   C     0.53177   0.70203   0.09236   0.00000  Uiso   1.00
C282   C     0.34030   0.67405   0.01690   0.00000  Uiso   1.00
C283   C     0.29128   0.64472   0.05950   0.00000  Uiso   1.00
C284   C     0.27532   0.54156   0.04908   0.00000  Uiso   1.00
C285   C     0.23139   0.38360   0.05309   0.00000  Uiso   1.00
C286   C     0.38517   0.83516   0.95036   0.00000  Uiso   1.00
C287   C     0.37386   0.94128   0.93699   0.00000  Uiso   1.00
C288   C     0.39566   0.97375   0.87054   0.00000  Uiso   1.00
C289   C     0.42139   0.06594   0.77122   0.00000  Uiso   1.00
C290   C     0.42428   0.65171   0.92510   0.00000  Uiso   1.00
C291   C     0.44317   0.67807   0.97498   0.00000  Uiso   1.00
C292   C     0.48692   0.63815   0.97230   0.00000  Uiso   1.00
C293   C     0.49759   0.67198   0.02267   0.00000  Uiso   1.00
C294   C     0.37225   0.60287   0.96572   0.00000  Uiso   1.00
C295   C     0.35636   0.49973   0.95524   0.00000  Uiso   1.00
C296   C     0.30733   0.47025   0.99781   0.00000  Uiso   1.00
C297   C     0.41712   0.76398   0.89917   0.00000  Uiso   1.00
C298   C     0.43894   0.79629   0.83274   0.00000  Uiso   1.00
C299   C     0.42767   0.90244   0.81927   0.00000  Uiso   1.00
H300   H     0.34059   0.83817   0.05918   0.00000  Uiso   1.00
H301   H     0.39710   0.83822   0.11615   0.00000  Uiso   1.00
H302   H     0.26657   0.69983   0.09909   0.00000  Uiso   1.00
H303   H     0.34913   0.99634   0.97661   0.00000  Uiso   1.00
H304   H     0.47384   0.80685   0.15676   0.00000  Uiso   1.00
H305   H     0.19859   0.51506   0.12078   0.00000  Uiso   1.00
H306   H     0.37270   0.14032   0.86249   0.00000  Uiso   1.00
H307   H     0.44916   0.59629   0.88525   0.00000  Uiso   1.00
H308   H     0.51163   0.58307   0.93269   0.00000  Uiso   1.00
H309   H     0.38109   0.44467   0.91563   0.00000  Uiso   1.00
H310   H     0.46366   0.74119   0.79314   0.00000  Uiso   1.00
H311   H     0.56680   0.59975   0.00786   0.00000  Uiso   1.00
H312   H     0.29154   0.30796   0.97187   0.00000  Uiso   1.00
H313   H     0.46565   0.93322   0.71358   0.00000  Uiso   1.00
O314   O     0.55945   0.69894   0.11666   0.00000  Uiso   1.00
O315   O     0.19833   0.31613   0.06944   0.00000  Uiso   1.00
O316   O     0.42675   0.13645   0.73058   0.00000  Uiso   1.00
N317   N     0.48715   0.75994   0.11520   0.00000  Uiso   1.00
N318   N     0.22981   0.48712   0.08157   0.00000  Uiso   1.00
N319   N     0.39257   0.07168   0.84009   0.00000  Uiso   1.00
N320   N     0.53717   0.64851   0.03508   0.00000  Uiso   1.00
N321   N     0.27983   0.37569   0.00144   0.00000  Uiso   1.00
N322   N     0.44259   0.96025   0.75996   0.00000  Uiso   1.00
C323   C     0.86546   0.28276   0.01933   0.00000  Uiso   1.00
C324   C     0.91123   0.24925   0.02617   0.00000  Uiso   1.00
C325   C     0.92184   0.28314   0.07655   0.00000  Uiso   1.00
C326   C     0.96559   0.24328   0.07394   0.00000  Uiso   1.00
C327   C     0.03177   0.20203   0.09236   0.00000  Uiso   1.00
C328   C     0.84030   0.17405   0.01690   0.00000  Uiso   1.00
C329   C     0.79128   0.14472   0.05950   0.00000  Uiso   1.00
C330   C     0.77532   0.04156   0.04908   0.00000  Uiso   1.00
C331   C     0.73139   0.88360   0.05309   0.00000  Uiso   1.00
C332   C     0.88517   0.33516   0.95036   0.00000  Uiso   1.00
C333   C     0.87386   0.44128   0.93699   0.00000  Uiso   1.00
C334   C     0.89566   0.47375   0.87054   0.00000  Uiso   1.00
C335   C     0.92139   0.56594   0.77122   0.00000  Uiso   1.00
C336   C     0.92428   0.15171   0.92510   0.00000  Uiso   1.00
C337   C     0.94317   0.17807   0.97498   0.00000  Uiso   1.00
C338   C     0.98692   0.13815   0.97230   0.00000  Uiso   1.00
C339   C     0.99759   0.17198   0.02267   0.00000  Uiso   1.00
C340   C     0.87225   0.10287   0.96572   0.00000  Uiso   1.00
C341   C     0.85636   0.99973   0.95524   0.00000  Uiso   1.00
C342   C     0.80733   0.97025   0.99781   0.00000  Uiso   1.00
C343   C     0.91712   0.26398   0.89917   0.00000  Uiso   1.00
C344   C     0.93894   0.29629   0.83274   0.00000  Uiso   1.00
C345   C     0.92767   0.40244   0.81927   0.00000  Uiso   1.00
H346   H     0.84059   0.33817   0.05918   0.00000  Uiso   1.00
H347   H     0.89710   0.33822   0.11615   0.00000  Uiso   1.00
H348   H     0.76657   0.19983   0.09909   0.00000  Uiso   1.00
H349   H     0.84913   0.49634   0.97661   0.00000  Uiso   1.00
H350   H     0.97384   0.30685   0.15676   0.00000  Uiso   1.00
H351   H     0.69859   0.01506   0.12078   0.00000  Uiso   1.00
H352   H     0.87270   0.64032   0.86249   0.00000  Uiso   1.00
H353   H     0.94916   0.09629   0.88525   0.00000  Uiso   1.00
H354   H     0.01163   0.08307   0.93269   0.00000  Uiso   1.00
H355   H     0.88109   0.94467   0.91563   0.00000  Uiso   1.00
H356   H     0.96366   0.24119   0.79314   0.00000  Uiso   1.00
H357   H     0.06680   0.09975   0.00786   0.00000  Uiso   1.00
H358   H     0.79154   0.80796   0.97187   0.00000  Uiso   1.00
H359   H     0.96565   0.43322   0.71358   0.00000  Uiso   1.00
O360   O     0.05945   0.19894   0.11666   0.00000  Uiso   1.00
O361   O     0.69833   0.81613   0.06944   0.00000  Uiso   1.00
O362   O     0.92675   0.63645   0.73058   0.00000  Uiso   1.00
N363   N     0.98715   0.25994   0.11520   0.00000  Uiso   1.00
N364   N     0.72981   0.98712   0.08157   0.00000  Uiso   1.00
N365   N     0.89257   0.57168   0.84009   0.00000  Uiso   1.00
N366   N     0.03717   0.14851   0.03508   0.00000  Uiso   1.00
N367   N     0.77983   0.87569   0.00144   0.00000  Uiso   1.00
N368   N     0.94259   0.46025   0.75996   0.00000  Uiso   1.00
