data_job_05964
_audit_creation_date              2018-12-19
_audit_creation_method            'Materials Studio'
_symmetry_space_group_name_H-M    'P1'
_symmetry_Int_Tables_number       1
_symmetry_cell_setting            triclinic
loop_
_symmetry_equiv_pos_as_xyz
  x,y,z
_cell_length_a                    12.2484
_cell_length_b                    22.0973
_cell_length_c                    22.1683
_cell_angle_alpha                 62.4790
_cell_angle_beta                  81.6745
_cell_angle_gamma                 98.3052
loop_
_atom_site_label
_atom_site_type_symbol
_atom_site_fract_x
_atom_site_fract_y
_atom_site_fract_z
_atom_site_U_iso_or_equiv
_atom_site_adp_type
_atom_site_occupancy
C1     C     0.77197   0.50569   0.21553   0.00000  Uiso   1.00
C2     C     0.90121   0.52168   0.19319   0.00000  Uiso   1.00
C3     C     0.97746   0.55657   0.21403   0.00000  Uiso   1.00
C4     C     0.09234   0.56602   0.18779   0.00000  Uiso   1.00
C5     C     0.28736   0.59462   0.15999   0.00000  Uiso   1.00
C6     C     0.73162   0.53809   0.14797   0.00000  Uiso   1.00
C7     C     0.66527   0.58677   0.13079   0.00000  Uiso   1.00
C8     C     0.63739   0.61004   0.06648   0.00000  Uiso   1.00
C9     C     0.56905   0.66408   0.96849   0.00000  Uiso   1.00
C10    C     0.72997   0.42629   0.24809   0.00000  Uiso   1.00
C11    C     0.66221   0.38097   0.31508   0.00000  Uiso   1.00
C12    C     0.63291   0.31010   0.33506   0.00000  Uiso   1.00
C13    C     0.56201   0.19055   0.39253   0.00000  Uiso   1.00
C14    C     0.84040   0.46043   0.13187   0.00000  Uiso   1.00
C15    C     0.93838   0.49710   0.14775   0.00000  Uiso   1.00
C16    C     0.05317   0.50650   0.12147   0.00000  Uiso   1.00
C17    C     0.12958   0.54139   0.14227   0.00000  Uiso   1.00
C18    C     0.76879   0.51351   0.10253   0.00000  Uiso   1.00
C19    C     0.74099   0.53670   0.03823   0.00000  Uiso   1.00
C20    C     0.67462   0.58541   0.02096   0.00000  Uiso   1.00
C21    C     0.76714   0.40171   0.20265   0.00000  Uiso   1.00
C22    C     0.73793   0.33090   0.22253   0.00000  Uiso   1.00
C23    C     0.67014   0.28548   0.28954   0.00000  Uiso   1.00
H24    H     0.74303   0.52483   0.25090   0.00000  Uiso   1.00
H25    H     0.94866   0.57559   0.24919   0.00000  Uiso   1.00
H26    H     0.63651   0.60578   0.16596   0.00000  Uiso   1.00
H27    H     0.63346   0.40001   0.35023   0.00000  Uiso   1.00
H28    H     0.19303   0.62104   0.22723   0.00000  Uiso   1.00
H29    H     0.53482   0.68469   0.05176   0.00000  Uiso   1.00
H30    H     0.52837   0.25078   0.44033   0.00000  Uiso   1.00
H31    H     0.86934   0.44130   0.09649   0.00000  Uiso   1.00
H32    H     0.08191   0.48747   0.08631   0.00000  Uiso   1.00
H33    H     0.76977   0.51767   0.00308   0.00000  Uiso   1.00
H34    H     0.76671   0.31190   0.18735   0.00000  Uiso   1.00
H35    H     0.30119   0.54953   0.09503   0.00000  Uiso   1.00
H36    H     0.64297   0.61318   0.91956   0.00000  Uiso   1.00
H37    H     0.63653   0.17927   0.30813   0.00000  Uiso   1.00
O38    O     0.38466   0.61719   0.15720   0.00000  Uiso   1.00
O39    O     0.52110   0.70068   0.92699   0.00000  Uiso   1.00
O40    O     0.51265   0.13140   0.43678   0.00000  Uiso   1.00
N41    N     0.18931   0.59786   0.19753   0.00000  Uiso   1.00
N42    N     0.57394   0.65738   0.03346   0.00000  Uiso   1.00
N43    N     0.56789   0.25171   0.39674   0.00000  Uiso   1.00
N44    N     0.24751   0.55938   0.12639   0.00000  Uiso   1.00
N45    N     0.63214   0.61890   0.96233   0.00000  Uiso   1.00
N46    N     0.62609   0.21323   0.32560   0.00000  Uiso   1.00
C47    C     0.26624   0.27837   0.50555   0.00000  Uiso   1.00
C48    C     0.38038   0.28313   0.52500   0.00000  Uiso   1.00
C49    C     0.42625   0.22671   0.56149   0.00000  Uiso   1.00
C50    C     0.53172   0.24205   0.57411   0.00000  Uiso   1.00
C51    C     0.70019   0.23890   0.60785   0.00000  Uiso   1.00
C52    C     0.19898   0.31472   0.53636   0.00000  Uiso   1.00
C53    C     0.09231   0.28486   0.58239   0.00000  Uiso   1.00
C54    C     0.04508   0.32679   0.60455   0.00000  Uiso   1.00
C55    C     0.93188   0.37270   0.65589   0.00000  Uiso   1.00
C56    C     0.29183   0.32467   0.42617   0.00000  Uiso   1.00
C57    C     0.26322   0.30319   0.37956   0.00000  Uiso   1.00
C58    C     0.29414   0.35350   0.30895   0.00000  Uiso   1.00
C59    C     0.32511   0.41486   0.18921   0.00000  Uiso   1.00
C60    C     0.37201   0.40592   0.46305   0.00000  Uiso   1.00
C61    C     0.43783   0.35241   0.50192   0.00000  Uiso   1.00
C62    C     0.54327   0.36783   0.51448   0.00000  Uiso   1.00
C63    C     0.58928   0.31145   0.55098   0.00000  Uiso   1.00
C64    C     0.25642   0.38399   0.51328   0.00000  Uiso   1.00
C65    C     0.20933   0.42598   0.53537   0.00000  Uiso   1.00
C66    C     0.10263   0.39619   0.58143   0.00000  Uiso   1.00
C67    C     0.34928   0.39395   0.40309   0.00000  Uiso   1.00
C68    C     0.38024   0.44431   0.33254   0.00000  Uiso   1.00
C69    C     0.35169   0.42291   0.28583   0.00000  Uiso   1.00
H70    H     0.22151   0.22443   0.52352   0.00000  Uiso   1.00
H71    H     0.38176   0.17310   0.57936   0.00000  Uiso   1.00
H72    H     0.04788   0.23125   0.60024   0.00000  Uiso   1.00
H73    H     0.21876   0.24957   0.39744   0.00000  Uiso   1.00
H74    H     0.58474   0.14675   0.63110   0.00000  Uiso   1.00
H75    H     0.88071   0.26935   0.67512   0.00000  Uiso   1.00
H76    H     0.24105   0.30799   0.24748   0.00000  Uiso   1.00
H77    H     0.41673   0.45986   0.44508   0.00000  Uiso   1.00
H78    H     0.58770   0.42145   0.49661   0.00000  Uiso   1.00
H79    H     0.25381   0.47959   0.51750   0.00000  Uiso   1.00
H80    H     0.42470   0.49791   0.31470   0.00000  Uiso   1.00
H81    H     0.75189   0.34832   0.56394   0.00000  Uiso   1.00
H82    H     0.04785   0.47092   0.60796   0.00000  Uiso   1.00
H83    H     0.40820   0.50956   0.18032   0.00000  Uiso   1.00
O84    O     0.77724   0.21802   0.63285   0.00000  Uiso   1.00
O85    O     0.85357   0.37887   0.69059   0.00000  Uiso   1.00
O86    O     0.32634   0.42956   0.12954   0.00000  Uiso   1.00
N87    N     0.60062   0.19946   0.60821   0.00000  Uiso   1.00
N88    N     0.94241   0.31408   0.64937   0.00000  Uiso   1.00
N89    N     0.27927   0.35021   0.24957   0.00000  Uiso   1.00
N90    N     0.69057   0.30792   0.57207   0.00000  Uiso   1.00
N91    N     0.03235   0.42254   0.61324   0.00000  Uiso   1.00
N92    N     0.36921   0.45867   0.21343   0.00000  Uiso   1.00
C93    C     0.96512   0.21414   0.28071   0.00000  Uiso   1.00
C94    C     0.07385   0.18830   0.28863   0.00000  Uiso   1.00
C95    C     0.16683   0.20672   0.23438   0.00000  Uiso   1.00
C96    C     0.25807   0.17743   0.25247   0.00000  Uiso   1.00
C97    C     0.42716   0.14428   0.25415   0.00000  Uiso   1.00
C98    C     0.86800   0.14835   0.31453   0.00000  Uiso   1.00
C99    C     0.78788   0.13319   0.28205   0.00000  Uiso   1.00
C100   C     0.70583   0.07027   0.32194   0.00000  Uiso   1.00
C101   C     0.55527   0.97513   0.36383   0.00000  Uiso   1.00
C102   C     0.95124   0.24768   0.32709   0.00000  Uiso   1.00
C103   C     0.94109   0.31603   0.30518   0.00000  Uiso   1.00
C104   C     0.92909   0.33673   0.35566   0.00000  Uiso   1.00
C105   C     0.90779   0.39580   0.41705   0.00000  Uiso   1.00
C106   C     0.96184   0.12938   0.40931   0.00000  Uiso   1.00
C107   C     0.07207   0.14226   0.35848   0.00000  Uiso   1.00
C108   C     0.16320   0.11293   0.37666   0.00000  Uiso   1.00
C109   C     0.25629   0.13130   0.32245   0.00000  Uiso   1.00
C110   C     0.86622   0.10231   0.38437   0.00000  Uiso   1.00
C111   C     0.78426   0.03941   0.42433   0.00000  Uiso   1.00
C112   C     0.70404   0.02415   0.39192   0.00000  Uiso   1.00
C113   C     0.94946   0.20164   0.39694   0.00000  Uiso   1.00
C114   C     0.93747   0.22224   0.44746   0.00000  Uiso   1.00
C115   C     0.92731   0.29060   0.42563   0.00000  Uiso   1.00
H116   H     0.96649   0.24999   0.22633   0.00000  Uiso   1.00
H117   H     0.16817   0.24235   0.18033   0.00000  Uiso   1.00
H118   H     0.78927   0.16883   0.22799   0.00000  Uiso   1.00
H119   H     0.94247   0.35164   0.25112   0.00000  Uiso   1.00
H120   H     0.39096   0.21355   0.16014   0.00000  Uiso   1.00
H121   H     0.59202   0.05856   0.26064   0.00000  Uiso   1.00
H122   H     0.91505   0.44404   0.30941   0.00000  Uiso   1.00
H123   H     0.96045   0.09353   0.46369   0.00000  Uiso   1.00
H124   H     0.16180   0.07730   0.43072   0.00000  Uiso   1.00
H125   H     0.78290   0.00379   0.47838   0.00000  Uiso   1.00
H126   H     0.93610   0.18660   0.50151   0.00000  Uiso   1.00
H127   H     0.38578   0.07959   0.36337   0.00000  Uiso   1.00
H128   H     0.58684   0.92460   0.46387   0.00000  Uiso   1.00
H129   H     0.90988   0.31008   0.51264   0.00000  Uiso   1.00
O130   O     0.52092   0.13870   0.23578   0.00000  Uiso   1.00
O131   O     0.47273   0.93537   0.36764   0.00000  Uiso   1.00
O132   O     0.89655   0.44111   0.43162   0.00000  Uiso   1.00
N133   N     0.36212   0.18426   0.21250   0.00000  Uiso   1.00
N134   N     0.61517   0.03935   0.30645   0.00000  Uiso   1.00
N135   N     0.91714   0.39973   0.35206   0.00000  Uiso   1.00
N136   N     0.35933   0.11218   0.32185   0.00000  Uiso   1.00
N137   N     0.61239   0.96727   0.41581   0.00000  Uiso   1.00
N138   N     0.91436   0.32765   0.46141   0.00000  Uiso   1.00
C139   C     0.22803   0.49431   0.78447   0.00000  Uiso   1.00
C140   C     0.09879   0.47832   0.80681   0.00000  Uiso   1.00
C141   C     0.02254   0.44343   0.78597   0.00000  Uiso   1.00
C142   C     0.90766   0.43398   0.81221   0.00000  Uiso   1.00
C143   C     0.71264   0.40538   0.84001   0.00000  Uiso   1.00
C144   C     0.26838   0.46191   0.85203   0.00000  Uiso   1.00
C145   C     0.33473   0.41323   0.86921   0.00000  Uiso   1.00
C146   C     0.36261   0.38996   0.93352   0.00000  Uiso   1.00
C147   C     0.43095   0.33592   0.03151   0.00000  Uiso   1.00
C148   C     0.27003   0.57371   0.75191   0.00000  Uiso   1.00
C149   C     0.33779   0.61903   0.68492   0.00000  Uiso   1.00
C150   C     0.36709   0.68990   0.66494   0.00000  Uiso   1.00
C151   C     0.43799   0.80945   0.60747   0.00000  Uiso   1.00
C152   C     0.15960   0.53957   0.86813   0.00000  Uiso   1.00
C153   C     0.06162   0.50290   0.85225   0.00000  Uiso   1.00
C154   C     0.94683   0.49350   0.87853   0.00000  Uiso   1.00
C155   C     0.87042   0.45861   0.85773   0.00000  Uiso   1.00
C156   C     0.23121   0.48649   0.89747   0.00000  Uiso   1.00
C157   C     0.25901   0.46330   0.96177   0.00000  Uiso   1.00
C158   C     0.32538   0.41459   0.97904   0.00000  Uiso   1.00
C159   C     0.23285   0.59829   0.79735   0.00000  Uiso   1.00
C160   C     0.26207   0.66910   0.77747   0.00000  Uiso   1.00
C161   C     0.32986   0.71452   0.71046   0.00000  Uiso   1.00
H162   H     0.25697   0.47517   0.74910   0.00000  Uiso   1.00
H163   H     0.05134   0.42441   0.75081   0.00000  Uiso   1.00
H164   H     0.36349   0.39422   0.83404   0.00000  Uiso   1.00
H165   H     0.36654   0.59999   0.64977   0.00000  Uiso   1.00
H166   H     0.80697   0.37896   0.77277   0.00000  Uiso   1.00
H167   H     0.46518   0.31531   0.94824   0.00000  Uiso   1.00
H168   H     0.47163   0.74922   0.55967   0.00000  Uiso   1.00
H169   H     0.13066   0.55870   0.90351   0.00000  Uiso   1.00
H170   H     0.91809   0.51253   0.91369   0.00000  Uiso   1.00
H171   H     0.23023   0.48233   0.99692   0.00000  Uiso   1.00
H172   H     0.23329   0.68810   0.81265   0.00000  Uiso   1.00
H173   H     0.69881   0.45047   0.90497   0.00000  Uiso   1.00
H174   H     0.35703   0.38682   0.08044   0.00000  Uiso   1.00
H175   H     0.36347   0.82073   0.69187   0.00000  Uiso   1.00
O176   O     0.61534   0.38281   0.84280   0.00000  Uiso   1.00
O177   O     0.47890   0.29932   0.07301   0.00000  Uiso   1.00
O178   O     0.48735   0.86860   0.56322   0.00000  Uiso   1.00
N179   N     0.81069   0.40213   0.80247   0.00000  Uiso   1.00
N180   N     0.42606   0.34262   0.96654   0.00000  Uiso   1.00
N181   N     0.43211   0.74829   0.60326   0.00000  Uiso   1.00
N182   N     0.75249   0.44062   0.87361   0.00000  Uiso   1.00
N183   N     0.36786   0.38110   0.03767   0.00000  Uiso   1.00
N184   N     0.37391   0.78677   0.67440   0.00000  Uiso   1.00
C185   C     0.73376   0.72163   0.49445   0.00000  Uiso   1.00
C186   C     0.61962   0.71687   0.47500   0.00000  Uiso   1.00
C187   C     0.57375   0.77329   0.43851   0.00000  Uiso   1.00
C188   C     0.46828   0.75795   0.42589   0.00000  Uiso   1.00
C189   C     0.29981   0.76110   0.39215   0.00000  Uiso   1.00
C190   C     0.80102   0.68528   0.46364   0.00000  Uiso   1.00
C191   C     0.90769   0.71514   0.41761   0.00000  Uiso   1.00
C192   C     0.95492   0.67321   0.39545   0.00000  Uiso   1.00
C193   C     0.06812   0.62730   0.34411   0.00000  Uiso   1.00
C194   C     0.70817   0.67533   0.57383   0.00000  Uiso   1.00
C195   C     0.73678   0.69681   0.62044   0.00000  Uiso   1.00
C196   C     0.70586   0.64650   0.69105   0.00000  Uiso   1.00
C197   C     0.67489   0.58514   0.81079   0.00000  Uiso   1.00
C198   C     0.62799   0.59408   0.53695   0.00000  Uiso   1.00
C199   C     0.56217   0.64759   0.49808   0.00000  Uiso   1.00
C200   C     0.45673   0.63217   0.48552   0.00000  Uiso   1.00
C201   C     0.41072   0.68855   0.44902   0.00000  Uiso   1.00
C202   C     0.74358   0.61601   0.48672   0.00000  Uiso   1.00
C203   C     0.79067   0.57402   0.46463   0.00000  Uiso   1.00
C204   C     0.89737   0.60381   0.41857   0.00000  Uiso   1.00
C205   C     0.65072   0.60605   0.59691   0.00000  Uiso   1.00
C206   C     0.61976   0.55569   0.66746   0.00000  Uiso   1.00
C207   C     0.64831   0.57709   0.71417   0.00000  Uiso   1.00
H208   H     0.77849   0.77557   0.47648   0.00000  Uiso   1.00
H209   H     0.61824   0.82690   0.42064   0.00000  Uiso   1.00
H210   H     0.95212   0.76875   0.39976   0.00000  Uiso   1.00
H211   H     0.78124   0.75043   0.60256   0.00000  Uiso   1.00
H212   H     0.41526   0.85325   0.36890   0.00000  Uiso   1.00
H213   H     0.11929   0.73065   0.32488   0.00000  Uiso   1.00
H214   H     0.75895   0.69201   0.75252   0.00000  Uiso   1.00
H215   H     0.58327   0.54014   0.55492   0.00000  Uiso   1.00
H216   H     0.41230   0.57855   0.50339   0.00000  Uiso   1.00
H217   H     0.74619   0.52041   0.48250   0.00000  Uiso   1.00
H218   H     0.57530   0.50209   0.68530   0.00000  Uiso   1.00
H219   H     0.24811   0.65168   0.43606   0.00000  Uiso   1.00
H220   H     0.95215   0.52908   0.39204   0.00000  Uiso   1.00
H221   H     0.59180   0.49044   0.81968   0.00000  Uiso   1.00
O222   O     0.22276   0.78198   0.36715   0.00000  Uiso   1.00
O223   O     0.14643   0.62113   0.30941   0.00000  Uiso   1.00
O224   O     0.67366   0.57044   0.87046   0.00000  Uiso   1.00
N225   N     0.39937   0.80054   0.39179   0.00000  Uiso   1.00
N226   N     0.05759   0.68592   0.35063   0.00000  Uiso   1.00
N227   N     0.72073   0.64979   0.75043   0.00000  Uiso   1.00
N228   N     0.30943   0.69208   0.42793   0.00000  Uiso   1.00
N229   N     0.96765   0.57745   0.38676   0.00000  Uiso   1.00
N230   N     0.63079   0.54133   0.78657   0.00000  Uiso   1.00
C231   C     0.03488   0.78586   0.71929   0.00000  Uiso   1.00
C232   C     0.92615   0.81170   0.71137   0.00000  Uiso   1.00
C233   C     0.83317   0.79328   0.76562   0.00000  Uiso   1.00
C234   C     0.74193   0.82257   0.74753   0.00000  Uiso   1.00
C235   C     0.57284   0.85572   0.74585   0.00000  Uiso   1.00
C236   C     0.13200   0.85165   0.68547   0.00000  Uiso   1.00
C237   C     0.21212   0.86681   0.71795   0.00000  Uiso   1.00
C238   C     0.29417   0.92973   0.67806   0.00000  Uiso   1.00
C239   C     0.44473   0.02487   0.63617   0.00000  Uiso   1.00
C240   C     0.04876   0.75232   0.67291   0.00000  Uiso   1.00
C241   C     0.05891   0.68397   0.69482   0.00000  Uiso   1.00
C242   C     0.07091   0.66327   0.64434   0.00000  Uiso   1.00
C243   C     0.09221   0.60420   0.58295   0.00000  Uiso   1.00
C244   C     0.03816   0.87062   0.59069   0.00000  Uiso   1.00
C245   C     0.92793   0.85774   0.64152   0.00000  Uiso   1.00
C246   C     0.83680   0.88707   0.62334   0.00000  Uiso   1.00
C247   C     0.74371   0.86870   0.67755   0.00000  Uiso   1.00
C248   C     0.13378   0.89769   0.61563   0.00000  Uiso   1.00
C249   C     0.21574   0.96059   0.57567   0.00000  Uiso   1.00
C250   C     0.29596   0.97585   0.60808   0.00000  Uiso   1.00
C251   C     0.05054   0.79836   0.60306   0.00000  Uiso   1.00
C252   C     0.06253   0.77776   0.55254   0.00000  Uiso   1.00
C253   C     0.07269   0.70940   0.57437   0.00000  Uiso   1.00
H254   H     0.03351   0.75001   0.77367   0.00000  Uiso   1.00
H255   H     0.83183   0.75765   0.81967   0.00000  Uiso   1.00
H256   H     0.21072   0.83117   0.77201   0.00000  Uiso   1.00
H257   H     0.05753   0.64836   0.74888   0.00000  Uiso   1.00
H258   H     0.60904   0.78645   0.83986   0.00000  Uiso   1.00
H259   H     0.40798   0.94144   0.73936   0.00000  Uiso   1.00
H260   H     0.08495   0.55596   0.69059   0.00000  Uiso   1.00
H261   H     0.03955   0.90647   0.53631   0.00000  Uiso   1.00
H262   H     0.83820   0.92270   0.56928   0.00000  Uiso   1.00
H263   H     0.21710   0.99621   0.52162   0.00000  Uiso   1.00
H264   H     0.06390   0.81340   0.49849   0.00000  Uiso   1.00
H265   H     0.61422   0.92041   0.63663   0.00000  Uiso   1.00
H266   H     0.41316   0.07540   0.53613   0.00000  Uiso   1.00
H267   H     0.09012   0.68992   0.48736   0.00000  Uiso   1.00
O268   O     0.47908   0.86130   0.76422   0.00000  Uiso   1.00
O269   O     0.52727   0.06463   0.63236   0.00000  Uiso   1.00
O270   O     0.10345   0.55889   0.56838   0.00000  Uiso   1.00
N271   N     0.63788   0.81574   0.78750   0.00000  Uiso   1.00
N272   N     0.38483   0.96065   0.69355   0.00000  Uiso   1.00
N273   N     0.08286   0.60027   0.64794   0.00000  Uiso   1.00
N274   N     0.64067   0.88782   0.67815   0.00000  Uiso   1.00
N275   N     0.38761   0.03273   0.58419   0.00000  Uiso   1.00
N276   N     0.08564   0.67235   0.53859   0.00000  Uiso   1.00
