data_job_02925
_audit_creation_date              2018-12-19
_audit_creation_method            'Materials Studio'
_symmetry_space_group_name_H-M    'P1'
_symmetry_Int_Tables_number       1
_symmetry_cell_setting            triclinic
loop_
_symmetry_equiv_pos_as_xyz
  x,y,z
_cell_length_a                    20.9343
_cell_length_b                    17.8208
_cell_length_c                    7.0563
_cell_angle_alpha                 90.0000
_cell_angle_beta                  90.0000
_cell_angle_gamma                 90.0000
loop_
_atom_site_label
_atom_site_type_symbol
_atom_site_fract_x
_atom_site_fract_y
_atom_site_fract_z
_atom_site_U_iso_or_equiv
_atom_site_adp_type
_atom_site_occupancy
C1     C     0.82319   0.56057   0.78651   0.00000  Uiso   1.00
C2     C     0.85643   0.50795   0.64751   0.00000  Uiso   1.00
C3     C     0.88477   0.43988   0.69292   0.00000  Uiso   1.00
C4     C     0.91269   0.40006   0.54549   0.00000  Uiso   1.00
C5     C     0.96439   0.31421   0.35799   0.00000  Uiso   1.00
C6     C     0.85678   0.63613   0.76757   0.00000  Uiso   1.00
C7     C     0.88540   0.67583   0.91392   0.00000  Uiso   1.00
C8     C     0.91361   0.74391   0.86754   0.00000  Uiso   1.00
C9     C     0.96582   0.85710   0.86645   0.00000  Uiso   1.00
C10    C     0.75583   0.57211   0.70969   0.00000  Uiso   1.00
C11    C     0.69955   0.55801   0.80739   0.00000  Uiso   1.00
C12    C     0.64276   0.57221   0.71230   0.00000  Uiso   1.00
C13    C     0.53821   0.58600   0.62134   0.00000  Uiso   1.00
C14    C     0.82239   0.61088   0.44394   0.00000  Uiso   1.00
C15    C     0.85600   0.53528   0.46144   0.00000  Uiso   1.00
C16    C     0.88388   0.49555   0.31390   0.00000  Uiso   1.00
C17    C     0.91225   0.42743   0.35908   0.00000  Uiso   1.00
C18    C     0.85635   0.66346   0.58150   0.00000  Uiso   1.00
C19    C     0.88452   0.73150   0.53490   0.00000  Uiso   1.00
C20    C     0.91317   0.77129   0.68114   0.00000  Uiso   1.00
C21    C     0.75539   0.59944   0.52361   0.00000  Uiso   1.00
C22    C     0.69867   0.61367   0.42836   0.00000  Uiso   1.00
C23    C     0.64232   0.59959   0.52589   0.00000  Uiso   1.00
H24    H     0.82354   0.53930   0.93137   0.00000  Uiso   1.00
H25    H     0.88510   0.41876   0.83694   0.00000  Uiso   1.00
H26    H     0.88573   0.65467   0.05790   0.00000  Uiso   1.00
H27    H     0.69991   0.53686   0.95138   0.00000  Uiso   1.00
H28    H     0.95318   0.29718   0.65019   0.00000  Uiso   1.00
H29    H     0.95449   0.79464   0.11611   0.00000  Uiso   1.00
H30    H     0.56266   0.54621   0.89150   0.00000  Uiso   1.00
H31    H     0.82205   0.63216   0.29907   0.00000  Uiso   1.00
H32    H     0.88354   0.51671   0.16993   0.00000  Uiso   1.00
H33    H     0.88417   0.75263   0.39090   0.00000  Uiso   1.00
H34    H     0.69835   0.63482   0.28437   0.00000  Uiso   1.00
H35    H     0.95192   0.37668   0.10882   0.00000  Uiso   1.00
H36    H     0.95322   0.87414   0.57475   0.00000  Uiso   1.00
H37    H     0.56139   0.62572   0.35013   0.00000  Uiso   1.00
O38    O     0.99304   0.25932   0.30597   0.00000  Uiso   1.00
O39    O     0.99474   0.91197   0.91726   0.00000  Uiso   1.00
O40    O     0.48067   0.58604   0.62256   0.00000  Uiso   1.00
N41    N     0.94444   0.33173   0.54050   0.00000  Uiso   1.00
N42    N     0.94566   0.79681   0.97610   0.00000  Uiso   1.00
N43    N     0.57933   0.56458   0.76612   0.00000  Uiso   1.00
N44    N     0.94376   0.37451   0.24919   0.00000  Uiso   1.00
N45    N     0.94498   0.83959   0.68480   0.00000  Uiso   1.00
N46    N     0.57865   0.60736   0.47482   0.00000  Uiso   1.00
C47    C     0.17681   0.43943   0.78651   0.00000  Uiso   1.00
C48    C     0.14357   0.49205   0.64751   0.00000  Uiso   1.00
C49    C     0.11523   0.56012   0.69292   0.00000  Uiso   1.00
C50    C     0.08731   0.59994   0.54549   0.00000  Uiso   1.00
C51    C     0.03561   0.68579   0.35799   0.00000  Uiso   1.00
C52    C     0.14322   0.36387   0.76757   0.00000  Uiso   1.00
C53    C     0.11460   0.32417   0.91392   0.00000  Uiso   1.00
C54    C     0.08639   0.25609   0.86754   0.00000  Uiso   1.00
C55    C     0.03418   0.14290   0.86645   0.00000  Uiso   1.00
C56    C     0.24417   0.42789   0.70969   0.00000  Uiso   1.00
C57    C     0.30045   0.44199   0.80739   0.00000  Uiso   1.00
C58    C     0.35724   0.42779   0.71230   0.00000  Uiso   1.00
C59    C     0.46179   0.41400   0.62134   0.00000  Uiso   1.00
C60    C     0.17761   0.38912   0.44394   0.00000  Uiso   1.00
C61    C     0.14400   0.46472   0.46144   0.00000  Uiso   1.00
C62    C     0.11612   0.50445   0.31390   0.00000  Uiso   1.00
C63    C     0.08775   0.57257   0.35908   0.00000  Uiso   1.00
C64    C     0.14365   0.33654   0.58150   0.00000  Uiso   1.00
C65    C     0.11548   0.26850   0.53490   0.00000  Uiso   1.00
C66    C     0.08683   0.22871   0.68114   0.00000  Uiso   1.00
C67    C     0.24461   0.40056   0.52361   0.00000  Uiso   1.00
C68    C     0.30133   0.38633   0.42836   0.00000  Uiso   1.00
C69    C     0.35768   0.40041   0.52589   0.00000  Uiso   1.00
H70    H     0.17646   0.46070   0.93137   0.00000  Uiso   1.00
H71    H     0.11490   0.58124   0.83694   0.00000  Uiso   1.00
H72    H     0.11427   0.34533   0.05790   0.00000  Uiso   1.00
H73    H     0.30009   0.46314   0.95138   0.00000  Uiso   1.00
H74    H     0.04682   0.70282   0.65019   0.00000  Uiso   1.00
H75    H     0.04551   0.20536   0.11611   0.00000  Uiso   1.00
H76    H     0.43734   0.45379   0.89150   0.00000  Uiso   1.00
H77    H     0.17795   0.36784   0.29907   0.00000  Uiso   1.00
H78    H     0.11646   0.48329   0.16993   0.00000  Uiso   1.00
H79    H     0.11583   0.24737   0.39090   0.00000  Uiso   1.00
H80    H     0.30165   0.36518   0.28437   0.00000  Uiso   1.00
H81    H     0.04808   0.62332   0.10882   0.00000  Uiso   1.00
H82    H     0.04678   0.12586   0.57475   0.00000  Uiso   1.00
H83    H     0.43861   0.37428   0.35013   0.00000  Uiso   1.00
O84    O     0.00696   0.74068   0.30597   0.00000  Uiso   1.00
O85    O     0.00526   0.08803   0.91726   0.00000  Uiso   1.00
O86    O     0.51933   0.41396   0.62256   0.00000  Uiso   1.00
N87    N     0.05556   0.66827   0.54050   0.00000  Uiso   1.00
N88    N     0.05434   0.20319   0.97610   0.00000  Uiso   1.00
N89    N     0.42067   0.43542   0.76612   0.00000  Uiso   1.00
N90    N     0.05624   0.62549   0.24919   0.00000  Uiso   1.00
N91    N     0.05502   0.16041   0.68480   0.00000  Uiso   1.00
N92    N     0.42135   0.39264   0.47482   0.00000  Uiso   1.00
C93    C     0.67681   0.06057   0.21349   0.00000  Uiso   1.00
C94    C     0.64357   0.00795   0.35249   0.00000  Uiso   1.00
C95    C     0.61523   0.93988   0.30708   0.00000  Uiso   1.00
C96    C     0.58731   0.90006   0.45451   0.00000  Uiso   1.00
C97    C     0.53561   0.81421   0.64201   0.00000  Uiso   1.00
C98    C     0.64322   0.13613   0.23243   0.00000  Uiso   1.00
C99    C     0.61460   0.17583   0.08608   0.00000  Uiso   1.00
C100   C     0.58639   0.24391   0.13246   0.00000  Uiso   1.00
C101   C     0.53418   0.35710   0.13355   0.00000  Uiso   1.00
C102   C     0.74417   0.07211   0.29031   0.00000  Uiso   1.00
C103   C     0.80045   0.05801   0.19261   0.00000  Uiso   1.00
C104   C     0.85724   0.07221   0.28770   0.00000  Uiso   1.00
C105   C     0.96179   0.08600   0.37866   0.00000  Uiso   1.00
C106   C     0.67761   0.11088   0.55606   0.00000  Uiso   1.00
C107   C     0.64400   0.03528   0.53856   0.00000  Uiso   1.00
C108   C     0.61612   0.99555   0.68610   0.00000  Uiso   1.00
C109   C     0.58775   0.92743   0.64092   0.00000  Uiso   1.00
C110   C     0.64365   0.16346   0.41850   0.00000  Uiso   1.00
C111   C     0.61548   0.23150   0.46510   0.00000  Uiso   1.00
C112   C     0.58683   0.27129   0.31886   0.00000  Uiso   1.00
C113   C     0.74461   0.09944   0.47639   0.00000  Uiso   1.00
C114   C     0.80133   0.11367   0.57164   0.00000  Uiso   1.00
C115   C     0.85768   0.09959   0.47411   0.00000  Uiso   1.00
H116   H     0.67646   0.03930   0.06863   0.00000  Uiso   1.00
H117   H     0.61490   0.91876   0.16306   0.00000  Uiso   1.00
H118   H     0.61427   0.15467   0.94210   0.00000  Uiso   1.00
H119   H     0.80009   0.03686   0.04862   0.00000  Uiso   1.00
H120   H     0.54682   0.79718   0.34981   0.00000  Uiso   1.00
H121   H     0.54551   0.29464   0.88389   0.00000  Uiso   1.00
H122   H     0.93734   0.04621   0.10850   0.00000  Uiso   1.00
H123   H     0.67795   0.13216   0.70093   0.00000  Uiso   1.00
H124   H     0.61646   0.01671   0.83007   0.00000  Uiso   1.00
H125   H     0.61583   0.25263   0.60910   0.00000  Uiso   1.00
H126   H     0.80165   0.13482   0.71563   0.00000  Uiso   1.00
H127   H     0.54808   0.87668   0.89118   0.00000  Uiso   1.00
H128   H     0.54678   0.37414   0.42525   0.00000  Uiso   1.00
H129   H     0.93861   0.12572   0.64987   0.00000  Uiso   1.00
O130   O     0.50696   0.75932   0.69403   0.00000  Uiso   1.00
O131   O     0.50526   0.41197   0.08274   0.00000  Uiso   1.00
O132   O     0.01933   0.08604   0.37744   0.00000  Uiso   1.00
N133   N     0.55556   0.83173   0.45950   0.00000  Uiso   1.00
N134   N     0.55434   0.29681   0.02390   0.00000  Uiso   1.00
N135   N     0.92067   0.06458   0.23388   0.00000  Uiso   1.00
N136   N     0.55624   0.87451   0.75081   0.00000  Uiso   1.00
N137   N     0.55502   0.33959   0.31520   0.00000  Uiso   1.00
N138   N     0.92135   0.10736   0.52518   0.00000  Uiso   1.00
C139   C     0.32319   0.93943   0.21349   0.00000  Uiso   1.00
C140   C     0.35643   0.99205   0.35249   0.00000  Uiso   1.00
C141   C     0.38477   0.06012   0.30708   0.00000  Uiso   1.00
C142   C     0.41269   0.09994   0.45451   0.00000  Uiso   1.00
C143   C     0.46439   0.18579   0.64201   0.00000  Uiso   1.00
C144   C     0.35678   0.86387   0.23243   0.00000  Uiso   1.00
C145   C     0.38540   0.82417   0.08608   0.00000  Uiso   1.00
C146   C     0.41361   0.75609   0.13246   0.00000  Uiso   1.00
C147   C     0.46582   0.64290   0.13355   0.00000  Uiso   1.00
C148   C     0.25583   0.92789   0.29031   0.00000  Uiso   1.00
C149   C     0.19955   0.94199   0.19261   0.00000  Uiso   1.00
C150   C     0.14276   0.92779   0.28770   0.00000  Uiso   1.00
C151   C     0.03821   0.91400   0.37866   0.00000  Uiso   1.00
C152   C     0.32239   0.88912   0.55606   0.00000  Uiso   1.00
C153   C     0.35600   0.96472   0.53856   0.00000  Uiso   1.00
C154   C     0.38388   0.00445   0.68610   0.00000  Uiso   1.00
C155   C     0.41225   0.07257   0.64092   0.00000  Uiso   1.00
C156   C     0.35635   0.83654   0.41850   0.00000  Uiso   1.00
C157   C     0.38452   0.76850   0.46510   0.00000  Uiso   1.00
C158   C     0.41317   0.72871   0.31886   0.00000  Uiso   1.00
C159   C     0.25539   0.90056   0.47639   0.00000  Uiso   1.00
C160   C     0.19867   0.88633   0.57164   0.00000  Uiso   1.00
C161   C     0.14232   0.90041   0.47411   0.00000  Uiso   1.00
H162   H     0.32354   0.96070   0.06863   0.00000  Uiso   1.00
H163   H     0.38510   0.08124   0.16306   0.00000  Uiso   1.00
H164   H     0.38573   0.84533   0.94210   0.00000  Uiso   1.00
H165   H     0.19991   0.96314   0.04862   0.00000  Uiso   1.00
H166   H     0.45318   0.20282   0.34981   0.00000  Uiso   1.00
H167   H     0.45449   0.70536   0.88389   0.00000  Uiso   1.00
H168   H     0.06266   0.95379   0.10850   0.00000  Uiso   1.00
H169   H     0.32205   0.86784   0.70093   0.00000  Uiso   1.00
H170   H     0.38354   0.98329   0.83007   0.00000  Uiso   1.00
H171   H     0.38417   0.74737   0.60910   0.00000  Uiso   1.00
H172   H     0.19835   0.86518   0.71563   0.00000  Uiso   1.00
H173   H     0.45192   0.12332   0.89118   0.00000  Uiso   1.00
H174   H     0.45322   0.62586   0.42525   0.00000  Uiso   1.00
H175   H     0.06139   0.87428   0.64987   0.00000  Uiso   1.00
O176   O     0.49304   0.24068   0.69403   0.00000  Uiso   1.00
O177   O     0.49474   0.58803   0.08274   0.00000  Uiso   1.00
O178   O     0.98067   0.91396   0.37744   0.00000  Uiso   1.00
N179   N     0.44444   0.16827   0.45950   0.00000  Uiso   1.00
N180   N     0.44566   0.70319   0.02390   0.00000  Uiso   1.00
N181   N     0.07933   0.93542   0.23388   0.00000  Uiso   1.00
N182   N     0.44376   0.12549   0.75081   0.00000  Uiso   1.00
N183   N     0.44498   0.66041   0.31520   0.00000  Uiso   1.00
N184   N     0.07865   0.89264   0.52518   0.00000  Uiso   1.00
