data_job_03856
_audit_creation_date              2018-12-19
_audit_creation_method            'Materials Studio'
_symmetry_space_group_name_H-M    'P1'
_symmetry_Int_Tables_number       1
_symmetry_cell_setting            triclinic
loop_
_symmetry_equiv_pos_as_xyz
  x,y,z
_cell_length_a                    25.6126
_cell_length_b                    25.6126
_cell_length_c                    9.7430
_cell_angle_alpha                 90.0000
_cell_angle_beta                  90.0000
_cell_angle_gamma                 90.0000
loop_
_atom_site_label
_atom_site_type_symbol
_atom_site_fract_x
_atom_site_fract_y
_atom_site_fract_z
_atom_site_U_iso_or_equiv
_atom_site_adp_type
_atom_site_occupancy
C1     C     0.84864   0.49116   0.03225   0.00000  Uiso   1.00
C2     C     0.80458   0.45302   0.06437   0.00000  Uiso   1.00
C3     C     0.80880   0.40859   0.14512   0.00000  Uiso   1.00
C4     C     0.76397   0.37880   0.16205   0.00000  Uiso   1.00
C5     C     0.70276   0.31741   0.22123   0.00000  Uiso   1.00
C6     C     0.85224   0.49365   0.87616   0.00000  Uiso   1.00
C7     C     0.89654   0.48338   0.79868   0.00000  Uiso   1.00
C8     C     0.89184   0.48779   0.65719   0.00000  Uiso   1.00
C9     C     0.90464   0.48952   0.42419   0.00000  Uiso   1.00
C10    C     0.82940   0.54469   0.07843   0.00000  Uiso   1.00
C11    C     0.85450   0.57735   0.17099   0.00000  Uiso   1.00
C12    C     0.83057   0.62475   0.19977   0.00000  Uiso   1.00
C13    C     0.80791   0.70573   0.28082   0.00000  Uiso   1.00
C14    C     0.76154   0.51727   0.91874   0.00000  Uiso   1.00
C15    C     0.75727   0.46721   0.00270   0.00000  Uiso   1.00
C16    C     0.71242   0.43747   0.01953   0.00000  Uiso   1.00
C17    C     0.71657   0.39300   0.10029   0.00000  Uiso   1.00
C18    C     0.80494   0.50783   0.81450   0.00000  Uiso   1.00
C19    C     0.80017   0.51226   0.67309   0.00000  Uiso   1.00
C20    C     0.84444   0.50200   0.59542   0.00000  Uiso   1.00
C21    C     0.78209   0.55888   0.01678   0.00000  Uiso   1.00
C22    C     0.75813   0.60623   0.04540   0.00000  Uiso   1.00
C23    C     0.78318   0.63896   0.13799   0.00000  Uiso   1.00
H24    H     0.88548   0.48012   0.08025   0.00000  Uiso   1.00
H25    H     0.84542   0.39762   0.19280   0.00000  Uiso   1.00
H26    H     0.93315   0.47241   0.84643   0.00000  Uiso   1.00
H27    H     0.89111   0.56637   0.21868   0.00000  Uiso   1.00
H28    H     0.78015   0.31241   0.29036   0.00000  Uiso   1.00
H29    H     0.96513   0.47011   0.56001   0.00000  Uiso   1.00
H30    H     0.87650   0.66824   0.34498   0.00000  Uiso   1.00
H31    H     0.72470   0.52831   0.87073   0.00000  Uiso   1.00
H32    H     0.67582   0.44846   0.97180   0.00000  Uiso   1.00
H33    H     0.76355   0.52324   0.62542   0.00000  Uiso   1.00
H34    H     0.72151   0.61720   0.99767   0.00000  Uiso   1.00
H35    H     0.64249   0.35366   0.11098   0.00000  Uiso   1.00
H36    H     0.82748   0.51137   0.38062   0.00000  Uiso   1.00
H37    H     0.73884   0.70949   0.16560   0.00000  Uiso   1.00
O38    O     0.68207   0.27963   0.27090   0.00000  Uiso   1.00
O39    O     0.92477   0.48654   0.31271   0.00000  Uiso   1.00
O40    O     0.80848   0.74647   0.34257   0.00000  Uiso   1.00
N41    N     0.75446   0.33308   0.23430   0.00000  Uiso   1.00
N42    N     0.92741   0.48052   0.55146   0.00000  Uiso   1.00
N43    N     0.84454   0.66575   0.28531   0.00000  Uiso   1.00
N44    N     0.68039   0.35528   0.13777   0.00000  Uiso   1.00
N45    N     0.85334   0.50272   0.45494   0.00000  Uiso   1.00
N46    N     0.77047   0.68795   0.18879   0.00000  Uiso   1.00
C47    C     0.15136   0.50884   0.03225   0.00000  Uiso   1.00
C48    C     0.19542   0.54698   0.06437   0.00000  Uiso   1.00
C49    C     0.19120   0.59141   0.14512   0.00000  Uiso   1.00
C50    C     0.23603   0.62120   0.16205   0.00000  Uiso   1.00
C51    C     0.29724   0.68259   0.22123   0.00000  Uiso   1.00
C52    C     0.14776   0.50635   0.87616   0.00000  Uiso   1.00
C53    C     0.10346   0.51662   0.79868   0.00000  Uiso   1.00
C54    C     0.10816   0.51221   0.65719   0.00000  Uiso   1.00
C55    C     0.09536   0.51048   0.42419   0.00000  Uiso   1.00
C56    C     0.17060   0.45531   0.07843   0.00000  Uiso   1.00
C57    C     0.14550   0.42265   0.17099   0.00000  Uiso   1.00
C58    C     0.16943   0.37525   0.19977   0.00000  Uiso   1.00
C59    C     0.19209   0.29427   0.28082   0.00000  Uiso   1.00
C60    C     0.23846   0.48273   0.91874   0.00000  Uiso   1.00
C61    C     0.24273   0.53279   0.00270   0.00000  Uiso   1.00
C62    C     0.28758   0.56253   0.01953   0.00000  Uiso   1.00
C63    C     0.28343   0.60700   0.10029   0.00000  Uiso   1.00
C64    C     0.19506   0.49217   0.81450   0.00000  Uiso   1.00
C65    C     0.19983   0.48774   0.67309   0.00000  Uiso   1.00
C66    C     0.15556   0.49800   0.59542   0.00000  Uiso   1.00
C67    C     0.21791   0.44112   0.01678   0.00000  Uiso   1.00
C68    C     0.24187   0.39377   0.04540   0.00000  Uiso   1.00
C69    C     0.21682   0.36104   0.13799   0.00000  Uiso   1.00
H70    H     0.11452   0.51988   0.08025   0.00000  Uiso   1.00
H71    H     0.15458   0.60238   0.19280   0.00000  Uiso   1.00
H72    H     0.06685   0.52759   0.84643   0.00000  Uiso   1.00
H73    H     0.10889   0.43363   0.21868   0.00000  Uiso   1.00
H74    H     0.21985   0.68759   0.29036   0.00000  Uiso   1.00
H75    H     0.03487   0.52989   0.56001   0.00000  Uiso   1.00
H76    H     0.12350   0.33176   0.34498   0.00000  Uiso   1.00
H77    H     0.27530   0.47169   0.87073   0.00000  Uiso   1.00
H78    H     0.32418   0.55154   0.97180   0.00000  Uiso   1.00
H79    H     0.23645   0.47676   0.62542   0.00000  Uiso   1.00
H80    H     0.27849   0.38280   0.99767   0.00000  Uiso   1.00
H81    H     0.35751   0.64634   0.11098   0.00000  Uiso   1.00
H82    H     0.17252   0.48863   0.38062   0.00000  Uiso   1.00
H83    H     0.26116   0.29051   0.16560   0.00000  Uiso   1.00
O84    O     0.31793   0.72037   0.27090   0.00000  Uiso   1.00
O85    O     0.07523   0.51346   0.31271   0.00000  Uiso   1.00
O86    O     0.19152   0.25353   0.34257   0.00000  Uiso   1.00
N87    N     0.24554   0.66692   0.23430   0.00000  Uiso   1.00
N88    N     0.07259   0.51948   0.55146   0.00000  Uiso   1.00
N89    N     0.15546   0.33425   0.28531   0.00000  Uiso   1.00
N90    N     0.31961   0.64472   0.13777   0.00000  Uiso   1.00
N91    N     0.14666   0.49728   0.45494   0.00000  Uiso   1.00
N92    N     0.22953   0.31205   0.18879   0.00000  Uiso   1.00
C93    C     0.00884   0.34864   0.53225   0.00000  Uiso   1.00
C94    C     0.04698   0.30458   0.56437   0.00000  Uiso   1.00
C95    C     0.09141   0.30880   0.64512   0.00000  Uiso   1.00
C96    C     0.12120   0.26397   0.66205   0.00000  Uiso   1.00
C97    C     0.18259   0.20276   0.72123   0.00000  Uiso   1.00
C98    C     0.00635   0.35224   0.37616   0.00000  Uiso   1.00
C99    C     0.01662   0.39654   0.29868   0.00000  Uiso   1.00
C100   C     0.01221   0.39184   0.15719   0.00000  Uiso   1.00
C101   C     0.01048   0.40464   0.92419   0.00000  Uiso   1.00
C102   C     0.95531   0.32940   0.57843   0.00000  Uiso   1.00
C103   C     0.92265   0.35450   0.67099   0.00000  Uiso   1.00
C104   C     0.87525   0.33057   0.69977   0.00000  Uiso   1.00
C105   C     0.79427   0.30791   0.78082   0.00000  Uiso   1.00
C106   C     0.98273   0.26154   0.41874   0.00000  Uiso   1.00
C107   C     0.03279   0.25727   0.50270   0.00000  Uiso   1.00
C108   C     0.06253   0.21242   0.51953   0.00000  Uiso   1.00
C109   C     0.10700   0.21657   0.60029   0.00000  Uiso   1.00
C110   C     0.99217   0.30494   0.31450   0.00000  Uiso   1.00
C111   C     0.98774   0.30017   0.17309   0.00000  Uiso   1.00
C112   C     0.99800   0.34444   0.09542   0.00000  Uiso   1.00
C113   C     0.94112   0.28209   0.51678   0.00000  Uiso   1.00
C114   C     0.89377   0.25813   0.54540   0.00000  Uiso   1.00
C115   C     0.86104   0.28318   0.63799   0.00000  Uiso   1.00
H116   H     0.01988   0.38548   0.58025   0.00000  Uiso   1.00
H117   H     0.10238   0.34542   0.69280   0.00000  Uiso   1.00
H118   H     0.02759   0.43315   0.34643   0.00000  Uiso   1.00
H119   H     0.93363   0.39111   0.71868   0.00000  Uiso   1.00
H120   H     0.18759   0.28015   0.79036   0.00000  Uiso   1.00
H121   H     0.02989   0.46513   0.06001   0.00000  Uiso   1.00
H122   H     0.83176   0.37650   0.84498   0.00000  Uiso   1.00
H123   H     0.97169   0.22470   0.37073   0.00000  Uiso   1.00
H124   H     0.05154   0.17582   0.47180   0.00000  Uiso   1.00
H125   H     0.97676   0.26355   0.12542   0.00000  Uiso   1.00
H126   H     0.88280   0.22151   0.49767   0.00000  Uiso   1.00
H127   H     0.14634   0.14249   0.61098   0.00000  Uiso   1.00
H128   H     0.98863   0.32748   0.88062   0.00000  Uiso   1.00
H129   H     0.79051   0.23884   0.66560   0.00000  Uiso   1.00
O130   O     0.22037   0.18207   0.77090   0.00000  Uiso   1.00
O131   O     0.01346   0.42477   0.81271   0.00000  Uiso   1.00
O132   O     0.75353   0.30848   0.84257   0.00000  Uiso   1.00
N133   N     0.16692   0.25446   0.73430   0.00000  Uiso   1.00
N134   N     0.01948   0.42741   0.05146   0.00000  Uiso   1.00
N135   N     0.83425   0.34454   0.78531   0.00000  Uiso   1.00
N136   N     0.14472   0.18039   0.63777   0.00000  Uiso   1.00
N137   N     0.99728   0.35334   0.95494   0.00000  Uiso   1.00
N138   N     0.81205   0.27047   0.68879   0.00000  Uiso   1.00
C139   C     0.99116   0.65136   0.53225   0.00000  Uiso   1.00
C140   C     0.95302   0.69542   0.56437   0.00000  Uiso   1.00
C141   C     0.90859   0.69120   0.64512   0.00000  Uiso   1.00
C142   C     0.87880   0.73603   0.66205   0.00000  Uiso   1.00
C143   C     0.81741   0.79724   0.72123   0.00000  Uiso   1.00
C144   C     0.99365   0.64776   0.37616   0.00000  Uiso   1.00
C145   C     0.98338   0.60346   0.29868   0.00000  Uiso   1.00
C146   C     0.98779   0.60816   0.15719   0.00000  Uiso   1.00
C147   C     0.98952   0.59536   0.92419   0.00000  Uiso   1.00
C148   C     0.04469   0.67060   0.57843   0.00000  Uiso   1.00
C149   C     0.07735   0.64550   0.67099   0.00000  Uiso   1.00
C150   C     0.12475   0.66943   0.69977   0.00000  Uiso   1.00
C151   C     0.20573   0.69209   0.78082   0.00000  Uiso   1.00
C152   C     0.01727   0.73847   0.41874   0.00000  Uiso   1.00
C153   C     0.96721   0.74273   0.50270   0.00000  Uiso   1.00
C154   C     0.93747   0.78758   0.51953   0.00000  Uiso   1.00
C155   C     0.89300   0.78343   0.60029   0.00000  Uiso   1.00
C156   C     0.00783   0.69506   0.31450   0.00000  Uiso   1.00
C157   C     0.01226   0.69983   0.17309   0.00000  Uiso   1.00
C158   C     0.00200   0.65556   0.09542   0.00000  Uiso   1.00
C159   C     0.05888   0.71791   0.51678   0.00000  Uiso   1.00
C160   C     0.10623   0.74187   0.54540   0.00000  Uiso   1.00
C161   C     0.13896   0.71682   0.63799   0.00000  Uiso   1.00
H162   H     0.98012   0.61452   0.58025   0.00000  Uiso   1.00
H163   H     0.89762   0.65458   0.69280   0.00000  Uiso   1.00
H164   H     0.97241   0.56685   0.34643   0.00000  Uiso   1.00
H165   H     0.06637   0.60889   0.71868   0.00000  Uiso   1.00
H166   H     0.81241   0.71985   0.79036   0.00000  Uiso   1.00
H167   H     0.97011   0.53487   0.06001   0.00000  Uiso   1.00
H168   H     0.16824   0.62350   0.84498   0.00000  Uiso   1.00
H169   H     0.02831   0.77530   0.37073   0.00000  Uiso   1.00
H170   H     0.94846   0.82418   0.47180   0.00000  Uiso   1.00
H171   H     0.02324   0.73645   0.12542   0.00000  Uiso   1.00
H172   H     0.11720   0.77849   0.49767   0.00000  Uiso   1.00
H173   H     0.85366   0.85751   0.61098   0.00000  Uiso   1.00
H174   H     0.01137   0.67252   0.88062   0.00000  Uiso   1.00
H175   H     0.20949   0.76116   0.66560   0.00000  Uiso   1.00
O176   O     0.77963   0.81793   0.77090   0.00000  Uiso   1.00
O177   O     0.98654   0.57523   0.81271   0.00000  Uiso   1.00
O178   O     0.24647   0.69152   0.84257   0.00000  Uiso   1.00
N179   N     0.83308   0.74554   0.73430   0.00000  Uiso   1.00
N180   N     0.98052   0.57259   0.05146   0.00000  Uiso   1.00
N181   N     0.16575   0.65546   0.78531   0.00000  Uiso   1.00
N182   N     0.85528   0.81961   0.63777   0.00000  Uiso   1.00
N183   N     0.00272   0.64666   0.95494   0.00000  Uiso   1.00
N184   N     0.18795   0.72953   0.68879   0.00000  Uiso   1.00
C185   C     0.65136   0.00884   0.46775   0.00000  Uiso   1.00
C186   C     0.69542   0.04698   0.43563   0.00000  Uiso   1.00
C187   C     0.69120   0.09141   0.35488   0.00000  Uiso   1.00
C188   C     0.73603   0.12120   0.33795   0.00000  Uiso   1.00
C189   C     0.79724   0.18259   0.27877   0.00000  Uiso   1.00
C190   C     0.64776   0.00635   0.62384   0.00000  Uiso   1.00
C191   C     0.60346   0.01662   0.70132   0.00000  Uiso   1.00
C192   C     0.60816   0.01221   0.84281   0.00000  Uiso   1.00
C193   C     0.59536   0.01048   0.07581   0.00000  Uiso   1.00
C194   C     0.67060   0.95531   0.42157   0.00000  Uiso   1.00
C195   C     0.64550   0.92265   0.32901   0.00000  Uiso   1.00
C196   C     0.66943   0.87525   0.30023   0.00000  Uiso   1.00
C197   C     0.69209   0.79427   0.21918   0.00000  Uiso   1.00
C198   C     0.73846   0.98273   0.58126   0.00000  Uiso   1.00
C199   C     0.74273   0.03279   0.49730   0.00000  Uiso   1.00
C200   C     0.78758   0.06253   0.48047   0.00000  Uiso   1.00
C201   C     0.78343   0.10700   0.39971   0.00000  Uiso   1.00
C202   C     0.69506   0.99217   0.68550   0.00000  Uiso   1.00
C203   C     0.69983   0.98774   0.82691   0.00000  Uiso   1.00
C204   C     0.65556   0.99800   0.90458   0.00000  Uiso   1.00
C205   C     0.71791   0.94112   0.48322   0.00000  Uiso   1.00
C206   C     0.74187   0.89377   0.45460   0.00000  Uiso   1.00
C207   C     0.71682   0.86104   0.36201   0.00000  Uiso   1.00
H208   H     0.61452   0.01988   0.41975   0.00000  Uiso   1.00
H209   H     0.65458   0.10238   0.30720   0.00000  Uiso   1.00
H210   H     0.56685   0.02759   0.65357   0.00000  Uiso   1.00
H211   H     0.60889   0.93363   0.28132   0.00000  Uiso   1.00
H212   H     0.71985   0.18759   0.20964   0.00000  Uiso   1.00
H213   H     0.53487   0.02989   0.93999   0.00000  Uiso   1.00
H214   H     0.62350   0.83176   0.15502   0.00000  Uiso   1.00
H215   H     0.77530   0.97169   0.62927   0.00000  Uiso   1.00
H216   H     0.82418   0.05154   0.52820   0.00000  Uiso   1.00
H217   H     0.73645   0.97676   0.87458   0.00000  Uiso   1.00
H218   H     0.77849   0.88280   0.50233   0.00000  Uiso   1.00
H219   H     0.85751   0.14634   0.38902   0.00000  Uiso   1.00
H220   H     0.67252   0.98863   0.11938   0.00000  Uiso   1.00
H221   H     0.76116   0.79051   0.33440   0.00000  Uiso   1.00
O222   O     0.81793   0.22037   0.22910   0.00000  Uiso   1.00
O223   O     0.57523   0.01346   0.18729   0.00000  Uiso   1.00
O224   O     0.69152   0.75353   0.15743   0.00000  Uiso   1.00
N225   N     0.74554   0.16692   0.26570   0.00000  Uiso   1.00
N226   N     0.57259   0.01948   0.94854   0.00000  Uiso   1.00
N227   N     0.65546   0.83425   0.21469   0.00000  Uiso   1.00
N228   N     0.81961   0.14472   0.36223   0.00000  Uiso   1.00
N229   N     0.64666   0.99728   0.04506   0.00000  Uiso   1.00
N230   N     0.72953   0.81205   0.31121   0.00000  Uiso   1.00
C231   C     0.34864   0.99116   0.46775   0.00000  Uiso   1.00
C232   C     0.30458   0.95302   0.43563   0.00000  Uiso   1.00
C233   C     0.30880   0.90859   0.35488   0.00000  Uiso   1.00
C234   C     0.26397   0.87880   0.33795   0.00000  Uiso   1.00
C235   C     0.20276   0.81741   0.27877   0.00000  Uiso   1.00
C236   C     0.35224   0.99365   0.62384   0.00000  Uiso   1.00
C237   C     0.39654   0.98338   0.70132   0.00000  Uiso   1.00
C238   C     0.39184   0.98779   0.84281   0.00000  Uiso   1.00
C239   C     0.40464   0.98952   0.07581   0.00000  Uiso   1.00
C240   C     0.32940   0.04469   0.42157   0.00000  Uiso   1.00
C241   C     0.35450   0.07735   0.32901   0.00000  Uiso   1.00
C242   C     0.33057   0.12475   0.30023   0.00000  Uiso   1.00
C243   C     0.30791   0.20573   0.21918   0.00000  Uiso   1.00
C244   C     0.26153   0.01727   0.58126   0.00000  Uiso   1.00
C245   C     0.25727   0.96721   0.49730   0.00000  Uiso   1.00
C246   C     0.21242   0.93747   0.48047   0.00000  Uiso   1.00
C247   C     0.21657   0.89300   0.39971   0.00000  Uiso   1.00
C248   C     0.30494   0.00783   0.68550   0.00000  Uiso   1.00
C249   C     0.30017   0.01226   0.82691   0.00000  Uiso   1.00
C250   C     0.34444   0.00200   0.90458   0.00000  Uiso   1.00
C251   C     0.28209   0.05888   0.48322   0.00000  Uiso   1.00
C252   C     0.25813   0.10623   0.45460   0.00000  Uiso   1.00
C253   C     0.28318   0.13896   0.36201   0.00000  Uiso   1.00
H254   H     0.38548   0.98012   0.41975   0.00000  Uiso   1.00
H255   H     0.34542   0.89762   0.30720   0.00000  Uiso   1.00
H256   H     0.43315   0.97241   0.65357   0.00000  Uiso   1.00
H257   H     0.39111   0.06637   0.28132   0.00000  Uiso   1.00
H258   H     0.28015   0.81241   0.20964   0.00000  Uiso   1.00
H259   H     0.46513   0.97011   0.93999   0.00000  Uiso   1.00
H260   H     0.37650   0.16824   0.15502   0.00000  Uiso   1.00
H261   H     0.22470   0.02831   0.62927   0.00000  Uiso   1.00
H262   H     0.17582   0.94846   0.52820   0.00000  Uiso   1.00
H263   H     0.26355   0.02324   0.87458   0.00000  Uiso   1.00
H264   H     0.22151   0.11720   0.50233   0.00000  Uiso   1.00
H265   H     0.14249   0.85366   0.38902   0.00000  Uiso   1.00
H266   H     0.32748   0.01137   0.11938   0.00000  Uiso   1.00
H267   H     0.23884   0.20949   0.33440   0.00000  Uiso   1.00
O268   O     0.18207   0.77963   0.22910   0.00000  Uiso   1.00
O269   O     0.42477   0.98654   0.18729   0.00000  Uiso   1.00
O270   O     0.30848   0.24647   0.15743   0.00000  Uiso   1.00
N271   N     0.25446   0.83308   0.26570   0.00000  Uiso   1.00
N272   N     0.42741   0.98052   0.94854   0.00000  Uiso   1.00
N273   N     0.34454   0.16575   0.21469   0.00000  Uiso   1.00
N274   N     0.18039   0.85528   0.36223   0.00000  Uiso   1.00
N275   N     0.35334   0.00272   0.04506   0.00000  Uiso   1.00
N276   N     0.27047   0.18795   0.31121   0.00000  Uiso   1.00
C277   C     0.49116   0.15136   0.96775   0.00000  Uiso   1.00
C278   C     0.45302   0.19542   0.93563   0.00000  Uiso   1.00
C279   C     0.40859   0.19120   0.85488   0.00000  Uiso   1.00
C280   C     0.37880   0.23603   0.83795   0.00000  Uiso   1.00
C281   C     0.31741   0.29724   0.77877   0.00000  Uiso   1.00
C282   C     0.49365   0.14776   0.12384   0.00000  Uiso   1.00
C283   C     0.48338   0.10346   0.20132   0.00000  Uiso   1.00
C284   C     0.48779   0.10816   0.34281   0.00000  Uiso   1.00
C285   C     0.48952   0.09536   0.57581   0.00000  Uiso   1.00
C286   C     0.54469   0.17060   0.92157   0.00000  Uiso   1.00
C287   C     0.57735   0.14550   0.82901   0.00000  Uiso   1.00
C288   C     0.62475   0.16943   0.80023   0.00000  Uiso   1.00
C289   C     0.70573   0.19209   0.71918   0.00000  Uiso   1.00
C290   C     0.51727   0.23846   0.08126   0.00000  Uiso   1.00
C291   C     0.46721   0.24273   0.99730   0.00000  Uiso   1.00
C292   C     0.43747   0.28758   0.98047   0.00000  Uiso   1.00
C293   C     0.39300   0.28343   0.89971   0.00000  Uiso   1.00
C294   C     0.50783   0.19506   0.18550   0.00000  Uiso   1.00
C295   C     0.51226   0.19983   0.32691   0.00000  Uiso   1.00
C296   C     0.50200   0.15556   0.40458   0.00000  Uiso   1.00
C297   C     0.55888   0.21791   0.98322   0.00000  Uiso   1.00
C298   C     0.60623   0.24187   0.95460   0.00000  Uiso   1.00
C299   C     0.63896   0.21682   0.86201   0.00000  Uiso   1.00
H300   H     0.48012   0.11452   0.91975   0.00000  Uiso   1.00
H301   H     0.39762   0.15458   0.80720   0.00000  Uiso   1.00
H302   H     0.47241   0.06685   0.15357   0.00000  Uiso   1.00
H303   H     0.56637   0.10889   0.78132   0.00000  Uiso   1.00
H304   H     0.31241   0.21985   0.70964   0.00000  Uiso   1.00
H305   H     0.47011   0.03487   0.43999   0.00000  Uiso   1.00
H306   H     0.66824   0.12350   0.65502   0.00000  Uiso   1.00
H307   H     0.52831   0.27530   0.12927   0.00000  Uiso   1.00
H308   H     0.44846   0.32418   0.02820   0.00000  Uiso   1.00
H309   H     0.52324   0.23645   0.37458   0.00000  Uiso   1.00
H310   H     0.61720   0.27849   0.00233   0.00000  Uiso   1.00
H311   H     0.35366   0.35751   0.88902   0.00000  Uiso   1.00
H312   H     0.51137   0.17252   0.61938   0.00000  Uiso   1.00
H313   H     0.70949   0.26116   0.83440   0.00000  Uiso   1.00
O314   O     0.27963   0.31793   0.72910   0.00000  Uiso   1.00
O315   O     0.48654   0.07523   0.68729   0.00000  Uiso   1.00
O316   O     0.74647   0.19152   0.65743   0.00000  Uiso   1.00
N317   N     0.33308   0.24554   0.76570   0.00000  Uiso   1.00
N318   N     0.48052   0.07259   0.44854   0.00000  Uiso   1.00
N319   N     0.66575   0.15546   0.71469   0.00000  Uiso   1.00
N320   N     0.35528   0.31961   0.86223   0.00000  Uiso   1.00
N321   N     0.50272   0.14666   0.54506   0.00000  Uiso   1.00
N322   N     0.68795   0.22953   0.81121   0.00000  Uiso   1.00
C323   C     0.50884   0.84864   0.96775   0.00000  Uiso   1.00
C324   C     0.54698   0.80458   0.93563   0.00000  Uiso   1.00
C325   C     0.59141   0.80880   0.85488   0.00000  Uiso   1.00
C326   C     0.62120   0.76397   0.83795   0.00000  Uiso   1.00
C327   C     0.68259   0.70276   0.77877   0.00000  Uiso   1.00
C328   C     0.50635   0.85224   0.12384   0.00000  Uiso   1.00
C329   C     0.51662   0.89654   0.20132   0.00000  Uiso   1.00
C330   C     0.51221   0.89184   0.34281   0.00000  Uiso   1.00
C331   C     0.51048   0.90464   0.57581   0.00000  Uiso   1.00
C332   C     0.45531   0.82940   0.92157   0.00000  Uiso   1.00
C333   C     0.42265   0.85450   0.82901   0.00000  Uiso   1.00
C334   C     0.37525   0.83057   0.80023   0.00000  Uiso   1.00
C335   C     0.29427   0.80791   0.71918   0.00000  Uiso   1.00
C336   C     0.48273   0.76154   0.08126   0.00000  Uiso   1.00
C337   C     0.53279   0.75727   0.99730   0.00000  Uiso   1.00
C338   C     0.56253   0.71242   0.98047   0.00000  Uiso   1.00
C339   C     0.60700   0.71657   0.89971   0.00000  Uiso   1.00
C340   C     0.49217   0.80494   0.18550   0.00000  Uiso   1.00
C341   C     0.48774   0.80017   0.32691   0.00000  Uiso   1.00
C342   C     0.49800   0.84444   0.40458   0.00000  Uiso   1.00
C343   C     0.44112   0.78209   0.98322   0.00000  Uiso   1.00
C344   C     0.39377   0.75813   0.95460   0.00000  Uiso   1.00
C345   C     0.36104   0.78318   0.86201   0.00000  Uiso   1.00
H346   H     0.51988   0.88548   0.91975   0.00000  Uiso   1.00
H347   H     0.60238   0.84542   0.80720   0.00000  Uiso   1.00
H348   H     0.52759   0.93315   0.15357   0.00000  Uiso   1.00
H349   H     0.43363   0.89111   0.78132   0.00000  Uiso   1.00
H350   H     0.68759   0.78015   0.70964   0.00000  Uiso   1.00
H351   H     0.52989   0.96513   0.43999   0.00000  Uiso   1.00
H352   H     0.33176   0.87650   0.65502   0.00000  Uiso   1.00
H353   H     0.47169   0.72470   0.12927   0.00000  Uiso   1.00
H354   H     0.55154   0.67582   0.02820   0.00000  Uiso   1.00
H355   H     0.47676   0.76355   0.37458   0.00000  Uiso   1.00
H356   H     0.38280   0.72151   0.00233   0.00000  Uiso   1.00
H357   H     0.64634   0.64249   0.88902   0.00000  Uiso   1.00
H358   H     0.48863   0.82748   0.61938   0.00000  Uiso   1.00
H359   H     0.29051   0.73884   0.83440   0.00000  Uiso   1.00
O360   O     0.72037   0.68207   0.72910   0.00000  Uiso   1.00
O361   O     0.51346   0.92477   0.68729   0.00000  Uiso   1.00
O362   O     0.25353   0.80848   0.65743   0.00000  Uiso   1.00
N363   N     0.66692   0.75446   0.76570   0.00000  Uiso   1.00
N364   N     0.51948   0.92741   0.44854   0.00000  Uiso   1.00
N365   N     0.33425   0.84454   0.71469   0.00000  Uiso   1.00
N366   N     0.64472   0.68039   0.86223   0.00000  Uiso   1.00
N367   N     0.49728   0.85334   0.54506   0.00000  Uiso   1.00
N368   N     0.31205   0.77047   0.81121   0.00000  Uiso   1.00
