data_job_07080
_audit_creation_date              2018-12-19
_audit_creation_method            'Materials Studio'
_symmetry_space_group_name_H-M    'P1'
_symmetry_Int_Tables_number       1
_symmetry_cell_setting            triclinic
loop_
_symmetry_equiv_pos_as_xyz
  x,y,z
_cell_length_a                    22.4770
_cell_length_b                    20.0855
_cell_length_c                    20.3266
_cell_angle_alpha                 66.7174
_cell_angle_beta                  81.8803
_cell_angle_gamma                 84.8009
loop_
_atom_site_label
_atom_site_type_symbol
_atom_site_fract_x
_atom_site_fract_y
_atom_site_fract_z
_atom_site_U_iso_or_equiv
_atom_site_adp_type
_atom_site_occupancy
C1     C     0.00598   0.72273   0.09061   0.00000  Uiso   1.00
C2     C     0.94669   0.69412   0.13579   0.00000  Uiso   1.00
C3     C     0.93998   0.62989   0.19621   0.00000  Uiso   1.00
C4     C     0.88197   0.61334   0.23004   0.00000  Uiso   1.00
C5     C     0.79743   0.56190   0.30409   0.00000  Uiso   1.00
C6     C     0.99817   0.73394   0.01357   0.00000  Uiso   1.00
C7     C     0.03474   0.70320   0.97123   0.00000  Uiso   1.00
C8     C     0.02008   0.72017   0.90216   0.00000  Uiso   1.00
C9     C     0.01549   0.73058   0.78644   0.00000  Uiso   1.00
C10    C     0.01067   0.79824   0.08999   0.00000  Uiso   1.00
C11    C     0.05776   0.82157   0.11189   0.00000  Uiso   1.00
C12    C     0.05363   0.89268   0.10715   0.00000  Uiso   1.00
C13    C     0.06845   0.00293   0.11009   0.00000  Uiso   1.00
C14    C     0.91491   0.80754   0.04323   0.00000  Uiso   1.00
C15    C     0.89722   0.74019   0.11005   0.00000  Uiso   1.00
C16    C     0.83922   0.72373   0.14380   0.00000  Uiso   1.00
C17    C     0.83242   0.65949   0.20426   0.00000  Uiso   1.00
C18    C     0.94870   0.78001   0.98783   0.00000  Uiso   1.00
C19    C     0.93398   0.79703   0.91881   0.00000  Uiso   1.00
C20    C     0.97052   0.76632   0.87638   0.00000  Uiso   1.00
C21    C     0.96120   0.84431   0.06426   0.00000  Uiso   1.00
C22    C     0.95700   0.91540   0.05948   0.00000  Uiso   1.00
C23    C     0.00407   0.93883   0.08137   0.00000  Uiso   1.00
H24    H     0.04449   0.68686   0.11064   0.00000  Uiso   1.00
H25    H     0.97827   0.59425   0.21611   0.00000  Uiso   1.00
H26    H     0.07302   0.66755   0.99115   0.00000  Uiso   1.00
H27    H     0.09603   0.78590   0.13180   0.00000  Uiso   1.00
H28    H     0.88303   0.51188   0.32168   0.00000  Uiso   1.00
H29    H     0.08284   0.66646   0.84734   0.00000  Uiso   1.00
H30    H     0.13137   0.91602   0.14392   0.00000  Uiso   1.00
H31    H     0.87640   0.84341   0.02319   0.00000  Uiso   1.00
H32    H     0.80095   0.75939   0.12387   0.00000  Uiso   1.00
H33    H     0.89570   0.83269   0.89892   0.00000  Uiso   1.00
H34    H     0.91871   0.95104   0.03956   0.00000  Uiso   1.00
H35    H     0.73911   0.64591   0.24681   0.00000  Uiso   1.00
H36    H     0.93892   0.80049   0.77248   0.00000  Uiso   1.00
H37    H     0.98744   0.05005   0.06906   0.00000  Uiso   1.00
O38    O     0.76447   0.52079   0.35203   0.00000  Uiso   1.00
O39    O     0.02662   0.72360   0.72973   0.00000  Uiso   1.00
O40    O     0.09028   0.05102   0.11883   0.00000  Uiso   1.00
N41    N     0.85951   0.55496   0.29025   0.00000  Uiso   1.00
N42    N     0.04632   0.69947   0.84678   0.00000  Uiso   1.00
N43    N     0.09169   0.93280   0.12404   0.00000  Uiso   1.00
N44    N     0.78207   0.62708   0.24997   0.00000  Uiso   1.00
N45    N     0.96888   0.77159   0.80650   0.00000  Uiso   1.00
N46    N     0.01425   0.00492   0.08376   0.00000  Uiso   1.00
C47    C     0.05285   0.14223   0.74260   0.00000  Uiso   1.00
C48    C     0.09205   0.09346   0.71110   0.00000  Uiso   1.00
C49    C     0.11450   0.11242   0.63913   0.00000  Uiso   1.00
C50    C     0.14945   0.06012   0.62114   0.00000  Uiso   1.00
C51    C     0.20845   0.99484   0.56430   0.00000  Uiso   1.00
C52    C     0.99593   0.10105   0.78062   0.00000  Uiso   1.00
C53    C     0.93757   0.12641   0.76709   0.00000  Uiso   1.00
C54    C     0.89161   0.08049   0.80763   0.00000  Uiso   1.00
C55    C     0.80139   0.02703   0.85875   0.00000  Uiso   1.00
C56    C     0.08577   0.14541   0.80189   0.00000  Uiso   1.00
C57    C     0.10292   0.20805   0.80626   0.00000  Uiso   1.00
C58    C     0.13259   0.19949   0.86473   0.00000  Uiso   1.00
C59    C     0.18186   0.21489   0.94887   0.00000  Uiso   1.00
C60    C     0.07502   0.01562   0.83865   0.00000  Uiso   1.00
C61    C     0.10409   0.02469   0.76328   0.00000  Uiso   1.00
C62    C     0.13902   0.97234   0.74540   0.00000  Uiso   1.00
C63    C     0.16152   0.99122   0.67341   0.00000  Uiso   1.00
C64    C     0.00797   0.03228   0.83279   0.00000  Uiso   1.00
C65    C     0.96210   0.98632   0.87336   0.00000  Uiso   1.00
C66    C     0.90368   0.01160   0.85990   0.00000  Uiso   1.00
C67    C     0.09781   0.07663   0.85406   0.00000  Uiso   1.00
C68    C     0.12746   0.06797   0.91253   0.00000  Uiso   1.00
C69    C     0.14466   0.13059   0.91699   0.00000  Uiso   1.00
H70    H     0.04348   0.19577   0.70198   0.00000  Uiso   1.00
H71    H     0.10516   0.16565   0.59877   0.00000  Uiso   1.00
H72    H     0.92826   0.17963   0.72672   0.00000  Uiso   1.00
H73    H     0.09360   0.26126   0.76588   0.00000  Uiso   1.00
H74    H     0.17884   0.10191   0.50734   0.00000  Uiso   1.00
H75    H     0.80584   0.13141   0.77715   0.00000  Uiso   1.00
H76    H     0.15448   0.30355   0.85973   0.00000  Uiso   1.00
H77    H     0.08440   0.96207   0.87927   0.00000  Uiso   1.00
H78    H     0.14833   0.91912   0.78578   0.00000  Uiso   1.00
H79    H     0.97143   0.93311   0.91374   0.00000  Uiso   1.00
H80    H     0.13677   0.01474   0.95290   0.00000  Uiso   1.00
H81    H     0.21388   0.90183   0.65913   0.00000  Uiso   1.00
H82    H     0.84087   0.93132   0.92894   0.00000  Uiso   1.00
H83    H     0.18952   0.10346   0.01152   0.00000  Uiso   1.00
O84    O     0.23766   0.97783   0.51853   0.00000  Uiso   1.00
O85    O     0.74830   0.01653   0.87252   0.00000  Uiso   1.00
O86    O     0.20571   0.24238   0.98086   0.00000  Uiso   1.00
N87    N     0.17833   0.06072   0.55590   0.00000  Uiso   1.00
N88    N     0.82959   0.08829   0.80814   0.00000  Uiso   1.00
N89    N     0.15552   0.24923   0.88536   0.00000  Uiso   1.00
N90    N     0.19718   0.95306   0.63757   0.00000  Uiso   1.00
N91    N     0.84844   0.98063   0.88982   0.00000  Uiso   1.00
N92    N     0.17438   0.14157   0.96704   0.00000  Uiso   1.00
C93    C     0.66058   0.08705   0.16377   0.00000  Uiso   1.00
C94    C     0.61674   0.13664   0.11298   0.00000  Uiso   1.00
C95    C     0.56373   0.16829   0.13331   0.00000  Uiso   1.00
C96    C     0.52985   0.21191   0.07873   0.00000  Uiso   1.00
C97    C     0.45895   0.28713   0.01087   0.00000  Uiso   1.00
C98    C     0.66692   0.01695   0.15061   0.00000  Uiso   1.00
C99    C     0.65611   0.94796   0.20257   0.00000  Uiso   1.00
C100   C     0.66447   0.89082   0.17967   0.00000  Uiso   1.00
C101   C     0.67151   0.78021   0.17023   0.00000  Uiso   1.00
C102   C     0.72144   0.12208   0.13654   0.00000  Uiso   1.00
C103   C     0.75648   0.14147   0.17669   0.00000  Uiso   1.00
C104   C     0.81075   0.17283   0.14195   0.00000  Uiso   1.00
C105   C     0.90245   0.22545   0.11066   0.00000  Uiso   1.00
C106   C     0.69468   0.10823   0.03071   0.00000  Uiso   1.00
C107   C     0.63526   0.14814   0.04071   0.00000  Uiso   1.00
C108   C     0.60145   0.19173   0.98609   0.00000  Uiso   1.00
C109   C     0.54840   0.22344   0.00633   0.00000  Uiso   1.00
C110   C     0.68544   0.02845   0.07834   0.00000  Uiso   1.00
C111   C     0.69383   0.97140   0.05536   0.00000  Uiso   1.00
C112   C     0.68302   0.90235   0.10727   0.00000  Uiso   1.00
C113   C     0.73996   0.13358   0.06427   0.00000  Uiso   1.00
C114   C     0.79419   0.16491   0.02946   0.00000  Uiso   1.00
C115   C     0.82930   0.18435   0.06954   0.00000  Uiso   1.00
H116   H     0.64617   0.07809   0.22004   0.00000  Uiso   1.00
H117   H     0.54942   0.15937   0.18925   0.00000  Uiso   1.00
H118   H     0.64178   0.93908   0.25850   0.00000  Uiso   1.00
H119   H     0.74213   0.13256   0.23261   0.00000  Uiso   1.00
H120   H     0.45030   0.25454   0.12323   0.00000  Uiso   1.00
H121   H     0.64509   0.79003   0.26926   0.00000  Uiso   1.00
H122   H     0.85670   0.19803   0.21468   0.00000  Uiso   1.00
H123   H     0.70909   0.11719   0.97444   0.00000  Uiso   1.00
H124   H     0.61579   0.20062   0.93016   0.00000  Uiso   1.00
H125   H     0.70816   0.98032   0.99942   0.00000  Uiso   1.00
H126   H     0.80851   0.17381   0.97353   0.00000  Uiso   1.00
H127   H     0.50417   0.28801   0.91295   0.00000  Uiso   1.00
H128   H     0.69896   0.82350   0.05899   0.00000  Uiso   1.00
H129   H     0.91057   0.23150   0.00440   0.00000  Uiso   1.00
O130   O     0.41472   0.32543   0.99340   0.00000  Uiso   1.00
O131   O     0.67028   0.71602   0.18499   0.00000  Uiso   1.00
O132   O     0.94790   0.25130   0.11337   0.00000  Uiso   1.00
N133   N     0.47579   0.25098   0.07982   0.00000  Uiso   1.00
N134   N     0.65789   0.81669   0.21635   0.00000  Uiso   1.00
N135   N     0.85574   0.19812   0.16532   0.00000  Uiso   1.00
N136   N     0.50478   0.26899   0.96667   0.00000  Uiso   1.00
N137   N     0.68688   0.83471   0.10320   0.00000  Uiso   1.00
N138   N     0.88473   0.21613   0.05217   0.00000  Uiso   1.00
C139   C     0.58814   0.52223   0.23759   0.00000  Uiso   1.00
C140   C     0.53325   0.56013   0.19986   0.00000  Uiso   1.00
C141   C     0.53442   0.61195   0.13002   0.00000  Uiso   1.00
C142   C     0.47934   0.64010   0.10539   0.00000  Uiso   1.00
C143   C     0.40236   0.70239   0.04014   0.00000  Uiso   1.00
C144   C     0.58001   0.44114   0.26151   0.00000  Uiso   1.00
C145   C     0.62050   0.39293   0.24351   0.00000  Uiso   1.00
C146   C     0.60478   0.32092   0.27079   0.00000  Uiso   1.00
C147   C     0.60041   0.19848   0.30130   0.00000  Uiso   1.00
C148   C     0.58270   0.53653   0.30655   0.00000  Uiso   1.00
C149   C     0.62547   0.56850   0.32643   0.00000  Uiso   1.00
C150   C     0.61202   0.57677   0.39164   0.00000  Uiso   1.00
C151   C     0.61183   0.60243   0.49207   0.00000  Uiso   1.00
C152   C     0.48824   0.48006   0.31806   0.00000  Uiso   1.00
C153   C     0.47899   0.53721   0.24357   0.00000  Uiso   1.00
C154   C     0.42388   0.56529   0.21905   0.00000  Uiso   1.00
C155   C     0.42497   0.61715   0.14918   0.00000  Uiso   1.00
C156   C     0.52575   0.41824   0.30522   0.00000  Uiso   1.00
C157   C     0.50996   0.34628   0.33254   0.00000  Uiso   1.00
C158   C     0.55042   0.29797   0.31458   0.00000  Uiso   1.00
C159   C     0.52844   0.51362   0.35026   0.00000  Uiso   1.00
C160   C     0.51493   0.52184   0.41545   0.00000  Uiso   1.00
C161   C     0.55765   0.55382   0.43542   0.00000  Uiso   1.00
H162   H     0.63039   0.54006   0.20356   0.00000  Uiso   1.00
H163   H     0.57643   0.62966   0.09621   0.00000  Uiso   1.00
H164   H     0.66249   0.41068   0.20969   0.00000  Uiso   1.00
H165   H     0.66745   0.58622   0.29259   0.00000  Uiso   1.00
H166   H     0.49266   0.71887   0.99645   0.00000  Uiso   1.00
H167   H     0.67415   0.25713   0.23575   0.00000  Uiso   1.00
H168   H     0.68461   0.62729   0.41056   0.00000  Uiso   1.00
H169   H     0.44599   0.46223   0.35209   0.00000  Uiso   1.00
H170   H     0.38190   0.54755   0.25288   0.00000  Uiso   1.00
H171   H     0.46797   0.32857   0.36636   0.00000  Uiso   1.00
H172   H     0.47293   0.50411   0.44926   0.00000  Uiso   1.00
H173   H     0.33478   0.65223   0.12361   0.00000  Uiso   1.00
H174   H     0.51627   0.19049   0.36291   0.00000  Uiso   1.00
H175   H     0.52672   0.56065   0.53772   0.00000  Uiso   1.00
O176   O     0.37489   0.74307   0.99208   0.00000  Uiso   1.00
O177   O     0.61300   0.13728   0.30604   0.00000  Uiso   1.00
O178   O     0.62672   0.62292   0.53539   0.00000  Uiso   1.00
N179   N     0.46430   0.69149   0.03999   0.00000  Uiso   1.00
N180   N     0.63398   0.25979   0.26372   0.00000  Uiso   1.00
N181   N     0.64376   0.60584   0.42716   0.00000  Uiso   1.00
N182   N     0.37934   0.65563   0.10842   0.00000  Uiso   1.00
N183   N     0.54902   0.22393   0.33214   0.00000  Uiso   1.00
N184   N     0.55881   0.56998   0.49559   0.00000  Uiso   1.00
C185   C     0.48928   0.09276   0.70441   0.00000  Uiso   1.00
C186   C     0.51038   0.08006   0.63549   0.00000  Uiso   1.00
C187   C     0.51290   0.01383   0.62854   0.00000  Uiso   1.00
C188   C     0.53351   0.01355   0.56095   0.00000  Uiso   1.00
C189   C     0.56359   0.98415   0.46282   0.00000  Uiso   1.00
C190   C     0.43846   0.15046   0.68608   0.00000  Uiso   1.00
C191   C     0.38052   0.14341   0.72168   0.00000  Uiso   1.00
C192   C     0.34058   0.20240   0.69668   0.00000  Uiso   1.00
C193   C     0.25902   0.28230   0.67713   0.00000  Uiso   1.00
C194   C     0.54100   0.12816   0.71787   0.00000  Uiso   1.00
C195   C     0.56926   0.10237   0.78021   0.00000  Uiso   1.00
C196   C     0.61565   0.14259   0.78199   0.00000  Uiso   1.00
C197   C     0.69330   0.18786   0.81180   0.00000  Uiso   1.00
C198   C     0.52140   0.21007   0.59674   0.00000  Uiso   1.00
C199   C     0.52783   0.14378   0.57701   0.00000  Uiso   1.00
C200   C     0.54844   0.14361   0.50942   0.00000  Uiso   1.00
C201   C     0.55099   0.07738   0.50237   0.00000  Uiso   1.00
C202   C     0.45591   0.21417   0.62760   0.00000  Uiso   1.00
C203   C     0.41605   0.27319   0.60256   0.00000  Uiso   1.00
C204   C     0.35806   0.26623   0.63810   0.00000  Uiso   1.00
C205   C     0.55845   0.19187   0.65939   0.00000  Uiso   1.00
C206   C     0.60480   0.23215   0.66108   0.00000  Uiso   1.00
C207   C     0.63313   0.20642   0.72340   0.00000  Uiso   1.00
H208   H     0.47569   0.04316   0.74994   0.00000  Uiso   1.00
H209   H     0.49939   0.96453   0.67381   0.00000  Uiso   1.00
H210   H     0.36703   0.09409   0.76693   0.00000  Uiso   1.00
H211   H     0.55575   0.05306   0.82545   0.00000  Uiso   1.00
H212   H     0.53334   0.90546   0.56360   0.00000  Uiso   1.00
H213   H     0.25425   0.17866   0.75998   0.00000  Uiso   1.00
H214   H     0.65220   0.09213   0.88338   0.00000  Uiso   1.00
H215   H     0.53498   0.25967   0.55121   0.00000  Uiso   1.00
H216   H     0.56194   0.19292   0.46417   0.00000  Uiso   1.00
H217   H     0.42957   0.32249   0.55730   0.00000  Uiso   1.00
H218   H     0.61829   0.28145   0.61582   0.00000  Uiso   1.00
H219   H     0.58410   0.09083   0.39345   0.00000  Uiso   1.00
H220   H     0.30501   0.36403   0.58984   0.00000  Uiso   1.00
H221   H     0.70296   0.27750   0.71323   0.00000  Uiso   1.00
O222   O     0.57536   0.95033   0.42485   0.00000  Uiso   1.00
O223   O     0.20921   0.30876   0.68250   0.00000  Uiso   1.00
O224   O     0.73132   0.19523   0.84440   0.00000  Uiso   1.00
N225   N     0.54160   0.95824   0.53551   0.00000  Uiso   1.00
N226   N     0.28066   0.21367   0.71910   0.00000  Uiso   1.00
N227   N     0.65270   0.13278   0.83448   0.00000  Uiso   1.00
N228   N     0.56891   0.05799   0.44395   0.00000  Uiso   1.00
N229   N     0.30798   0.31341   0.62755   0.00000  Uiso   1.00
N230   N     0.68002   0.23252   0.74292   0.00000  Uiso   1.00
C231   C     0.12470   0.70727   0.58183   0.00000  Uiso   1.00
C232   C     0.11844   0.62645   0.60162   0.00000  Uiso   1.00
C233   C     0.06565   0.58912   0.62925   0.00000  Uiso   1.00
C234   C     0.06929   0.51535   0.64384   0.00000  Uiso   1.00
C235   C     0.05129   0.39521   0.67646   0.00000  Uiso   1.00
C236   C     0.15148   0.73824   0.50298   0.00000  Uiso   1.00
C237   C     0.12646   0.79489   0.44767   0.00000  Uiso   1.00
C238   C     0.15792   0.81523   0.37922   0.00000  Uiso   1.00
C239   C     0.19121   0.86867   0.25870   0.00000  Uiso   1.00
C240   C     0.17294   0.71283   0.62497   0.00000  Uiso   1.00
C241   C     0.16598   0.74814   0.67223   0.00000  Uiso   1.00
C242   C     0.21551   0.74710   0.70648   0.00000  Uiso   1.00
C243   C     0.28213   0.76109   0.77537   0.00000  Uiso   1.00
C244   C     0.22504   0.64265   0.55861   0.00000  Uiso   1.00
C245   C     0.17295   0.59136   0.58901   0.00000  Uiso   1.00
C246   C     0.17667   0.51762   0.60356   0.00000  Uiso   1.00
C247   C     0.12390   0.48018   0.63121   0.00000  Uiso   1.00
C248   C     0.20598   0.70314   0.49036   0.00000  Uiso   1.00
C249   C     0.23748   0.72340   0.42198   0.00000  Uiso   1.00
C250   C     0.21252   0.78007   0.36659   0.00000  Uiso   1.00
C251   C     0.22744   0.67773   0.61236   0.00000  Uiso   1.00
C252   C     0.27700   0.67664   0.64654   0.00000  Uiso   1.00
C253   C     0.27011   0.71194   0.69384   0.00000  Uiso   1.00
H254   H     0.08226   0.73459   0.59165   0.00000  Uiso   1.00
H255   H     0.02348   0.61630   0.63900   0.00000  Uiso   1.00
H256   H     0.08428   0.82205   0.45745   0.00000  Uiso   1.00
H257   H     0.12379   0.77529   0.68197   0.00000  Uiso   1.00
H258   H     0.98234   0.46967   0.68591   0.00000  Uiso   1.00
H259   H     0.11055   0.90352   0.30311   0.00000  Uiso   1.00
H260   H     0.19387   0.80494   0.77656   0.00000  Uiso   1.00
H261   H     0.26748   0.61533   0.54879   0.00000  Uiso   1.00
H262   H     0.21886   0.49048   0.59379   0.00000  Uiso   1.00
H263   H     0.27966   0.69623   0.41224   0.00000  Uiso   1.00
H264   H     0.31917   0.64948   0.63676   0.00000  Uiso   1.00
H265   H     0.14091   0.36756   0.64922   0.00000  Uiso   1.00
H266   H     0.26913   0.80140   0.26641   0.00000  Uiso   1.00
H267   H     0.35245   0.70282   0.73986   0.00000  Uiso   1.00
O268   O     0.02629   0.33865   0.69792   0.00000  Uiso   1.00
O269   O     0.19452   0.90784   0.19571   0.00000  Uiso   1.00
O270   O     0.30382   0.77850   0.81686   0.00000  Uiso   1.00
N271   N     0.02633   0.46277   0.67112   0.00000  Uiso   1.00
N272   N     0.14620   0.86838   0.31322   0.00000  Uiso   1.00
N273   N     0.22410   0.77623   0.75584   0.00000  Uiso   1.00
N274   N     0.11166   0.40782   0.65137   0.00000  Uiso   1.00
N275   N     0.23153   0.81343   0.29347   0.00000  Uiso   1.00
N276   N     0.30943   0.72128   0.73609   0.00000  Uiso   1.00
C277   C     0.11736   0.47578   0.08851   0.00000  Uiso   1.00
C278   C     0.17157   0.48479   0.03177   0.00000  Uiso   1.00
C279   C     0.20732   0.54475   0.00080   0.00000  Uiso   1.00
C280   C     0.25481   0.54251   0.94991   0.00000  Uiso   1.00
C281   C     0.33729   0.56563   0.86476   0.00000  Uiso   1.00
C282   C     0.13008   0.40593   0.15230   0.00000  Uiso   1.00
C283   C     0.13094   0.39959   0.22268   0.00000  Uiso   1.00
C284   C     0.14349   0.33096   0.27325   0.00000  Uiso   1.00
C285   C     0.16151   0.23164   0.37523   0.00000  Uiso   1.00
C286   C     0.06466   0.46081   0.05726   0.00000  Uiso   1.00
C287   C     0.01050   0.50060   0.04773   0.00000  Uiso   1.00
C288   C     0.96797   0.47817   0.01829   0.00000  Uiso   1.00
C289   C     0.88442   0.46405   0.97270   0.00000  Uiso   1.00
C290   C     0.13812   0.36516   0.05320   0.00000  Uiso   1.00
C291   C     0.18285   0.42470   0.01260   0.00000  Uiso   1.00
C292   C     0.23029   0.42237   0.96174   0.00000  Uiso   1.00
C293   C     0.26611   0.48232   0.93070   0.00000  Uiso   1.00
C294   C     0.14136   0.34585   0.13313   0.00000  Uiso   1.00
C295   C     0.15391   0.27721   0.18361   0.00000  Uiso   1.00
C296   C     0.15479   0.27077   0.25403   0.00000  Uiso   1.00
C297   C     0.07594   0.40073   0.03807   0.00000  Uiso   1.00
C298   C     0.03348   0.37822   0.00865   0.00000  Uiso   1.00
C299   C     0.97927   0.41797   0.99908   0.00000  Uiso   1.00
H300   H     0.10858   0.52255   0.10345   0.00000  Uiso   1.00
H301   H     0.19859   0.59124   0.01567   0.00000  Uiso   1.00
H302   H     0.12221   0.44610   0.23750   0.00000  Uiso   1.00
H303   H     0.00179   0.54709   0.06258   0.00000  Uiso   1.00
H304   H     0.30336   0.64088   0.90991   0.00000  Uiso   1.00
H305   H     0.14229   0.33484   0.37767   0.00000  Uiso   1.00
H306   H     0.88837   0.54781   0.00881   0.00000  Uiso   1.00
H307   H     0.14690   0.31838   0.03827   0.00000  Uiso   1.00
H308   H     0.23901   0.37587   0.94690   0.00000  Uiso   1.00
H309   H     0.16263   0.23072   0.16874   0.00000  Uiso   1.00
H310   H     0.04222   0.33172   0.99382   0.00000  Uiso   1.00
H311   H     0.33617   0.46608   0.85410   0.00000  Uiso   1.00
H312   H     0.17509   0.16003   0.32186   0.00000  Uiso   1.00
H313   H     0.92118   0.37301   0.95300   0.00000  Uiso   1.00
O314   O     0.37967   0.59497   0.82310   0.00000  Uiso   1.00
O315   O     0.16834   0.19345   0.43678   0.00000  Uiso   1.00
O316   O     0.83522   0.47287   0.95284   0.00000  Uiso   1.00
N317   N     0.29843   0.59186   0.90930   0.00000  Uiso   1.00
N318   N     0.14785   0.30573   0.34663   0.00000  Uiso   1.00
N319   N     0.91045   0.50483   0.00179   0.00000  Uiso   1.00
N320   N     0.31608   0.49780   0.87927   0.00000  Uiso   1.00
N321   N     0.16550   0.21167   0.31660   0.00000  Uiso   1.00
N322   N     0.92811   0.41077   0.97176   0.00000  Uiso   1.00
C323   C     0.01972   0.06108   0.40173   0.00000  Uiso   1.00
C324   C     0.00827   0.14309   0.37030   0.00000  Uiso   1.00
C325   C     0.99388   0.18633   0.40969   0.00000  Uiso   1.00
C326   C     0.98514   0.26020   0.37089   0.00000  Uiso   1.00
C327   C     0.96656   0.38306   0.33357   0.00000  Uiso   1.00
C328   C     0.08216   0.04727   0.36796   0.00000  Uiso   1.00
C329   C     0.12989   0.00994   0.40540   0.00000  Uiso   1.00
C330   C     0.18335   0.00313   0.36463   0.00000  Uiso   1.00
C331   C     0.27947   0.97718   0.32369   0.00000  Uiso   1.00
C332   C     0.97564   0.03008   0.37169   0.00000  Uiso   1.00
C333   C     0.93382   0.97828   0.41226   0.00000  Uiso   1.00
C334   C     0.89761   0.95699   0.37463   0.00000  Uiso   1.00
C335   C     0.82834   0.90436   0.33947   0.00000  Uiso   1.00
C336   C     0.02979   0.11536   0.26277   0.00000  Uiso   1.00
C337   C     0.01374   0.17257   0.29482   0.00000  Uiso   1.00
C338   C     0.00502   0.24639   0.25595   0.00000  Uiso   1.00
C339   C     0.99062   0.28974   0.29528   0.00000  Uiso   1.00
C340   C     0.08763   0.07675   0.29249   0.00000  Uiso   1.00
C341   C     0.14103   0.07000   0.25166   0.00000  Uiso   1.00
C342   C     0.18883   0.03267   0.28902   0.00000  Uiso   1.00
C343   C     0.98111   0.05957   0.29621   0.00000  Uiso   1.00
C344   C     0.94496   0.03835   0.25851   0.00000  Uiso   1.00
C345   C     0.90309   0.98653   0.29901   0.00000  Uiso   1.00
H346   H     0.01547   0.03812   0.46049   0.00000  Uiso   1.00
H347   H     0.98966   0.16349   0.46810   0.00000  Uiso   1.00
H348   H     0.12565   0.98712   0.46381   0.00000  Uiso   1.00
H349   H     0.92960   0.95548   0.47066   0.00000  Uiso   1.00
H350   H     0.96348   0.31550   0.44326   0.00000  Uiso   1.00
H351   H     0.25021   0.94358   0.43420   0.00000  Uiso   1.00
H352   H     0.83682   0.87685   0.44866   0.00000  Uiso   1.00
H353   H     0.03405   0.13832   0.20400   0.00000  Uiso   1.00
H354   H     0.00925   0.26919   0.19754   0.00000  Uiso   1.00
H355   H     0.14524   0.09282   0.19325   0.00000  Uiso   1.00
H356   H     0.94920   0.06118   0.20011   0.00000  Uiso   1.00
H357   H     0.97938   0.40129   0.22366   0.00000  Uiso   1.00
H358   H     0.26612   0.02937   0.21461   0.00000  Uiso   1.00
H359   H     0.85272   0.96264   0.22907   0.00000  Uiso   1.00
O360   O     0.95480   0.44268   0.33384   0.00000  Uiso   1.00
O361   O     0.33098   0.95473   0.32196   0.00000  Uiso   1.00
O362   O     0.78862   0.86719   0.34093   0.00000  Uiso   1.00
N363   N     0.97061   0.31773   0.39246   0.00000  Uiso   1.00
N364   N     0.23869   0.97002   0.38400   0.00000  Uiso   1.00
N365   N     0.85221   0.90762   0.39752   0.00000  Uiso   1.00
N366   N     0.97917   0.36389   0.27430   0.00000  Uiso   1.00
N367   N     0.24725   0.01618   0.26583   0.00000  Uiso   1.00
N368   N     0.86077   0.95378   0.27935   0.00000  Uiso   1.00
C369   C     0.40075   0.97226   0.96436   0.00000  Uiso   1.00
C370   C     0.41432   0.94325   0.04245   0.00000  Uiso   1.00
C371   C     0.46638   0.90504   0.06824   0.00000  Uiso   1.00
C372   C     0.47019   0.88322   0.14146   0.00000  Uiso   1.00
C373   C     0.49835   0.83579   0.25575   0.00000  Uiso   1.00
C374   C     0.38762   0.05352   0.94258   0.00000  Uiso   1.00
C375   C     0.41723   0.10802   0.88440   0.00000  Uiso   1.00
C376   C     0.39854   0.17903   0.87355   0.00000  Uiso   1.00
C377   C     0.38523   0.30279   0.83277   0.00000  Uiso   1.00
C378   C     0.34151   0.94003   0.96571   0.00000  Uiso   1.00
C379   C     0.33234   0.89911   0.92696   0.00000  Uiso   1.00
C380   C     0.27483   0.87458   0.93557   0.00000  Uiso   1.00
C381   C     0.18993   0.82212   0.93070   0.00000  Uiso   1.00
C382   C     0.31492   0.00145   0.04851   0.00000  Uiso   1.00
C383   C     0.36770   0.95911   0.08816   0.00000  Uiso   1.00
C384   C     0.37142   0.93733   0.16135   0.00000  Uiso   1.00
C385   C     0.42348   0.89910   0.18725   0.00000  Uiso   1.00
C386   C     0.34100   0.06938   0.98829   0.00000  Uiso   1.00
C387   C     0.32226   0.14031   0.97751   0.00000  Uiso   1.00
C388   C     0.35184   0.19491   0.91934   0.00000  Uiso   1.00
C389   C     0.29489   0.95588   0.01142   0.00000  Uiso   1.00
C390   C     0.23738   0.93140   0.02008   0.00000  Uiso   1.00
C391   C     0.22813   0.89046   0.98136   0.00000  Uiso   1.00
H392   H     0.43705   0.95992   0.92877   0.00000  Uiso   1.00
H393   H     0.50246   0.89279   0.03285   0.00000  Uiso   1.00
H394   H     0.45330   0.09574   0.84904   0.00000  Uiso   1.00
H395   H     0.36843   0.88686   0.89160   0.00000  Uiso   1.00
H396   H     0.55442   0.82537   0.16840   0.00000  Uiso   1.00
H397   H     0.45076   0.25330   0.78080   0.00000  Uiso   1.00
H398   H     0.27180   0.81284   0.87054   0.00000  Uiso   1.00
H399   H     0.27862   0.01379   0.08410   0.00000  Uiso   1.00
H400   H     0.33533   0.94961   0.19671   0.00000  Uiso   1.00
H401   H     0.28618   0.15256   0.01289   0.00000  Uiso   1.00
H402   H     0.20131   0.94368   0.05546   0.00000  Uiso   1.00
H403   H     0.41878   0.87149   0.30139   0.00000  Uiso   1.00
H404   H     0.31512   0.29942   0.91379   0.00000  Uiso   1.00
H405   H     0.13615   0.85896   0.00354   0.00000  Uiso   1.00
O406   O     0.52677   0.80526   0.30617   0.00000  Uiso   1.00
O407   O     0.39077   0.36668   0.79765   0.00000  Uiso   1.00
O408   O     0.15597   0.78880   0.91539   0.00000  Uiso   1.00
N409   N     0.51471   0.84502   0.18425   0.00000  Uiso   1.00
N410   N     0.41780   0.24511   0.82187   0.00000  Uiso   1.00
N411   N     0.25048   0.83333   0.90576   0.00000  Uiso   1.00
N412   N     0.44172   0.86984   0.25581   0.00000  Uiso   1.00
N413   N     0.34481   0.26993   0.89344   0.00000  Uiso   1.00
N414   N     0.17749   0.85815   0.97732   0.00000  Uiso   1.00
C415   C     0.52630   0.50720   0.90088   0.00000  Uiso   1.00
C416   C     0.58081   0.47421   0.94142   0.00000  Uiso   1.00
C417   C     0.57926   0.42297   0.01156   0.00000  Uiso   1.00
C418   C     0.63403   0.39961   0.03893   0.00000  Uiso   1.00
C419   C     0.71040   0.34430   0.10817   0.00000  Uiso   1.00
C420   C     0.52932   0.58910   0.87696   0.00000  Uiso   1.00
C421   C     0.48447   0.63446   0.89291   0.00000  Uiso   1.00
C422   C     0.49589   0.70781   0.86601   0.00000  Uiso   1.00
C423   C     0.49230   0.83088   0.83514   0.00000  Uiso   1.00
C424   C     0.53733   0.49231   0.83209   0.00000  Uiso   1.00
C425   C     0.49920   0.45631   0.81030   0.00000  Uiso   1.00
C426   C     0.51736   0.44819   0.74562   0.00000  Uiso   1.00
C427   C     0.52621   0.42098   0.64509   0.00000  Uiso   1.00
C428   C     0.62633   0.55682   0.82474   0.00000  Uiso   1.00
C429   C     0.63514   0.50116   0.90006   0.00000  Uiso   1.00
C430   C     0.68993   0.47787   0.92732   0.00000  Uiso   1.00
C431   C     0.68846   0.42661   0.99750   0.00000  Uiso   1.00
C432   C     0.58365   0.61605   0.83560   0.00000  Uiso   1.00
C433   C     0.59514   0.68936   0.80867   0.00000  Uiso   1.00
C434   C     0.55032   0.73481   0.82458   0.00000  Uiso   1.00
C435   C     0.59166   0.51926   0.79073   0.00000  Uiso   1.00
C436   C     0.60988   0.51120   0.72607   0.00000  Uiso   1.00
C437   C     0.57179   0.47519   0.70419   0.00000  Uiso   1.00
H438   H     0.48400   0.48622   0.93308   0.00000  Uiso   1.00
H439   H     0.53720   0.40213   0.04356   0.00000  Uiso   1.00
H440   H     0.44243   0.61358   0.92491   0.00000  Uiso   1.00
H441   H     0.45716   0.43546   0.84232   0.00000  Uiso   1.00
H442   H     0.62015   0.32081   0.14781   0.00000  Uiso   1.00
H443   H     0.42030   0.76667   0.89762   0.00000  Uiso   1.00
H444   H     0.45137   0.39106   0.72347   0.00000  Uiso   1.00
H445   H     0.66864   0.57781   0.79254   0.00000  Uiso   1.00
H446   H     0.73197   0.49874   0.89531   0.00000  Uiso   1.00
H447   H     0.63719   0.71019   0.77666   0.00000  Uiso   1.00
H448   H     0.65193   0.53207   0.69407   0.00000  Uiso   1.00
H449   H     0.77823   0.39922   0.02749   0.00000  Uiso   1.00
H450   H     0.57837   0.84508   0.77729   0.00000  Uiso   1.00
H451   H     0.60945   0.46947   0.60314   0.00000  Uiso   1.00
O452   O     0.73752   0.30636   0.15779   0.00000  Uiso   1.00
O453   O     0.47531   0.89132   0.82954   0.00000  Uiso   1.00
O454   O     0.51608   0.39852   0.60106   0.00000  Uiso   1.00
N455   N     0.64866   0.35010   0.10538   0.00000  Uiso   1.00
N456   N     0.46181   0.76696   0.87148   0.00000  Uiso   1.00
N457   N     0.49086   0.41581   0.70865   0.00000  Uiso   1.00
N458   N     0.73372   0.39229   0.04064   0.00000  Uiso   1.00
N459   N     0.54688   0.80915   0.80673   0.00000  Uiso   1.00
N460   N     0.57592   0.45800   0.64391   0.00000  Uiso   1.00
C461   C     0.48267   0.78998   0.50677   0.00000  Uiso   1.00
C462   C     0.44979   0.82655   0.55526   0.00000  Uiso   1.00
C463   C     0.41847   0.89302   0.53213   0.00000  Uiso   1.00
C464   C     0.39149   0.91712   0.58493   0.00000  Uiso   1.00
C465   C     0.33983   0.98016   0.64907   0.00000  Uiso   1.00
C466   C     0.54746   0.77630   0.52460   0.00000  Uiso   1.00
C467   C     0.59825   0.80050   0.47569   0.00000  Uiso   1.00
C468   C     0.65349   0.78229   0.50269   0.00000  Uiso   1.00
C469   C     0.75345   0.76727   0.51922   0.00000  Uiso   1.00
C470   C     0.45610   0.71542   0.53290   0.00000  Uiso   1.00
C471   C     0.43008   0.68843   0.49096   0.00000  Uiso   1.00
C472   C     0.40841   0.61895   0.52493   0.00000  Uiso   1.00
C473   C     0.36652   0.50940   0.55435   0.00000  Uiso   1.00
C474   C     0.49045   0.71459   0.64167   0.00000  Uiso   1.00
C475   C     0.45402   0.78560   0.62853   0.00000  Uiso   1.00
C476   C     0.42708   0.80961   0.68138   0.00000  Uiso   1.00
C477   C     0.39572   0.87610   0.65833   0.00000  Uiso   1.00
C478   C     0.55169   0.73535   0.59787   0.00000  Uiso   1.00
C479   C     0.60686   0.71709   0.62495   0.00000  Uiso   1.00
C480   C     0.65772   0.74127   0.57609   0.00000  Uiso   1.00
C481   C     0.46032   0.67447   0.60617   0.00000  Uiso   1.00
C482   C     0.43869   0.60502   0.64021   0.00000  Uiso   1.00
C483   C     0.41265   0.57793   0.59834   0.00000  Uiso   1.00
H484   H     0.47938   0.82186   0.44972   0.00000  Uiso   1.00
H485   H     0.41522   0.92470   0.47542   0.00000  Uiso   1.00
H486   H     0.59497   0.83219   0.41899   0.00000  Uiso   1.00
H487   H     0.42682   0.72013   0.43426   0.00000  Uiso   1.00
H488   H     0.34596   0.02067   0.53621   0.00000  Uiso   1.00
H489   H     0.72498   0.82559   0.41723   0.00000  Uiso   1.00
H490   H     0.37041   0.58929   0.44942   0.00000  Uiso   1.00
H491   H     0.49374   0.68270   0.69872   0.00000  Uiso   1.00
H492   H     0.43036   0.77791   0.73808   0.00000  Uiso   1.00
H493   H     0.61011   0.68540   0.68165   0.00000  Uiso   1.00
H494   H     0.44196   0.57334   0.69692   0.00000  Uiso   1.00
H495   H     0.35825   0.90153   0.74940   0.00000  Uiso   1.00
H496   H     0.73727   0.70645   0.63042   0.00000  Uiso   1.00
H497   H     0.38270   0.47015   0.66261   0.00000  Uiso   1.00
O498   O     0.31017   0.02625   0.66420   0.00000  Uiso   1.00
O499   O     0.80742   0.77030   0.50810   0.00000  Uiso   1.00
O500   O     0.34224   0.46029   0.55033   0.00000  Uiso   1.00
N501   N     0.35754   0.97955   0.58099   0.00000  Uiso   1.00
N502   N     0.71190   0.79718   0.46975   0.00000  Uiso   1.00
N503   N     0.38042   0.57625   0.49984   0.00000  Uiso   1.00
N504   N     0.36415   0.91545   0.69570   0.00000  Uiso   1.00
N505   N     0.71851   0.73307   0.58446   0.00000  Uiso   1.00
N506   N     0.38703   0.51215   0.61455   0.00000  Uiso   1.00
C507   C     0.87214   0.42762   0.51951   0.00000  Uiso   1.00
C508   C     0.87113   0.50973   0.47868   0.00000  Uiso   1.00
C509   C     0.91640   0.54897   0.42798   0.00000  Uiso   1.00
C510   C     0.90690   0.62368   0.39669   0.00000  Uiso   1.00
C511   C     0.91338   0.74597   0.33047   0.00000  Uiso   1.00
C512   C     0.86268   0.41456   0.59937   0.00000  Uiso   1.00
C513   C     0.90084   0.37377   0.65014   0.00000  Uiso   1.00
C514   C     0.88422   0.36835   0.72045   0.00000  Uiso   1.00
C515   C     0.87757   0.34285   0.84162   0.00000  Uiso   1.00
C516   C     0.81590   0.40169   0.50419   0.00000  Uiso   1.00
C517   C     0.81472   0.35007   0.47493   0.00000  Uiso   1.00
C518   C     0.75872   0.33381   0.46512   0.00000  Uiso   1.00
C519   C     0.67943   0.28833   0.43849   0.00000  Uiso   1.00
C520   C     0.77477   0.49052   0.55412   0.00000  Uiso   1.00
C521   C     0.81824   0.54389   0.49749   0.00000  Uiso   1.00
C522   C     0.80867   0.61856   0.46627   0.00000  Uiso   1.00
C523   C     0.85392   0.65790   0.41552   0.00000  Uiso   1.00
C524   C     0.80979   0.44872   0.61818   0.00000  Uiso   1.00
C525   C     0.79311   0.44336   0.68843   0.00000  Uiso   1.00
C526   C     0.83124   0.40258   0.73929   0.00000  Uiso   1.00
C527   C     0.76301   0.43585   0.52299   0.00000  Uiso   1.00
C528   C     0.70700   0.41967   0.51323   0.00000  Uiso   1.00
C529   C     0.70574   0.36803   0.48396   0.00000  Uiso   1.00
H530   H     0.91332   0.40102   0.50487   0.00000  Uiso   1.00
H531   H     0.95732   0.52251   0.41345   0.00000  Uiso   1.00
H532   H     0.94176   0.34733   0.63557   0.00000  Uiso   1.00
H533   H     0.85566   0.32364   0.46039   0.00000  Uiso   1.00
H534   H     0.98279   0.67227   0.32039   0.00000  Uiso   1.00
H535   H     0.94998   0.30287   0.78876   0.00000  Uiso   1.00
H536   H     0.76842   0.25292   0.41936   0.00000  Uiso   1.00
H537   H     0.73359   0.51712   0.56876   0.00000  Uiso   1.00
H538   H     0.76774   0.64498   0.48083   0.00000  Uiso   1.00
H539   H     0.75218   0.46980   0.70296   0.00000  Uiso   1.00
H540   H     0.66608   0.44611   0.52778   0.00000  Uiso   1.00
H541   H     0.82892   0.77167   0.37508   0.00000  Uiso   1.00
H542   H     0.79611   0.40227   0.84346   0.00000  Uiso   1.00
H543   H     0.61454   0.35232   0.47406   0.00000  Uiso   1.00
O544   O     0.93157   0.80399   0.28876   0.00000  Uiso   1.00
O545   O     0.88851   0.31934   0.90325   0.00000  Uiso   1.00
O546   O     0.65031   0.25381   0.41860   0.00000  Uiso   1.00
N547   N     0.94189   0.67812   0.34532   0.00000  Uiso   1.00
N548   N     0.91121   0.33276   0.78322   0.00000  Uiso   1.00
N549   N     0.74147   0.28604   0.43788   0.00000  Uiso   1.00
N550   N     0.85909   0.73160   0.37475   0.00000  Uiso   1.00
N551   N     0.82842   0.38625   0.81265   0.00000  Uiso   1.00
N552   N     0.65867   0.33953   0.46731   0.00000  Uiso   1.00
