data_job_06137
_audit_creation_date              2018-12-19
_audit_creation_method            'Materials Studio'
_symmetry_space_group_name_H-M    'P1'
_symmetry_Int_Tables_number       1
_symmetry_cell_setting            triclinic
loop_
_symmetry_equiv_pos_as_xyz
  x,y,z
_cell_length_a                    17.7925
_cell_length_b                    17.3198
_cell_length_c                    16.5326
_cell_angle_alpha                 105.0550
_cell_angle_beta                  105.3030
_cell_angle_gamma                 104.5970
loop_
_atom_site_label
_atom_site_type_symbol
_atom_site_fract_x
_atom_site_fract_y
_atom_site_fract_z
_atom_site_U_iso_or_equiv
_atom_site_adp_type
_atom_site_occupancy
C1     C     0.47852   0.98200   0.27232   0.00000  Uiso   1.00
C2     C     0.41044   0.97188   0.31273   0.00000  Uiso   1.00
C3     C     0.40870   0.03253   0.38533   0.00000  Uiso   1.00
C4     C     0.34099   0.01104   0.41211   0.00000  Uiso   1.00
C5     C     0.24497   0.00738   0.48161   0.00000  Uiso   1.00
C6     C     0.50942   0.90781   0.27469   0.00000  Uiso   1.00
C7     C     0.59091   0.91459   0.31530   0.00000  Uiso   1.00
C8     C     0.60651   0.83917   0.31005   0.00000  Uiso   1.00
C9     C     0.66417   0.73603   0.32044   0.00000  Uiso   1.00
C10    C     0.43542   0.96624   0.17368   0.00000  Uiso   1.00
C11    C     0.45470   0.02214   0.12935   0.00000  Uiso   1.00
C12    C     0.40801   0.99590   0.03906   0.00000  Uiso   1.00
C13    C     0.35077   0.98349   0.89262   0.00000  Uiso   1.00
C14    C     0.36134   0.83599   0.19078   0.00000  Uiso   1.00
C15    C     0.34679   0.89257   0.26844   0.00000  Uiso   1.00
C16    C     0.27905   0.87099   0.29511   0.00000  Uiso   1.00
C17    C     0.27722   0.93159   0.36774   0.00000  Uiso   1.00
C18    C     0.44577   0.82850   0.23040   0.00000  Uiso   1.00
C19    C     0.46125   0.75305   0.22509   0.00000  Uiso   1.00
C20    C     0.54274   0.75971   0.26568   0.00000  Uiso   1.00
C21    C     0.37176   0.88693   0.12939   0.00000  Uiso   1.00
C22    C     0.32504   0.86060   0.03915   0.00000  Uiso   1.00
C23    C     0.34424   0.91645   0.99469   0.00000  Uiso   1.00
H24    H     0.52808   0.04374   0.30680   0.00000  Uiso   1.00
H25    H     0.45798   0.09389   0.41959   0.00000  Uiso   1.00
H26    H     0.64015   0.97597   0.34956   0.00000  Uiso   1.00
H27    H     0.50396   0.08350   0.16365   0.00000  Uiso   1.00
H28    H     0.35220   0.11452   0.52512   0.00000  Uiso   1.00
H29    H     0.73633   0.86587   0.37743   0.00000  Uiso   1.00
H30    H     0.44914   0.09262   0.98540   0.00000  Uiso   1.00
H31    H     0.31178   0.77424   0.15630   0.00000  Uiso   1.00
H32    H     0.22980   0.80961   0.26083   0.00000  Uiso   1.00
H33    H     0.41198   0.69169   0.19080   0.00000  Uiso   1.00
H34    H     0.27579   0.79922   0.00489   0.00000  Uiso   1.00
H35    H     0.16701   0.88378   0.39627   0.00000  Uiso   1.00
H36    H     0.55114   0.63513   0.24858   0.00000  Uiso   1.00
H37    H     0.26395   0.86189   0.85655   0.00000  Uiso   1.00
O38    O     0.20959   0.02726   0.53219   0.00000  Uiso   1.00
O39    O     0.71356   0.70106   0.33842   0.00000  Uiso   1.00
O40    O     0.33677   0.99855   0.82409   0.00000  Uiso   1.00
N41    N     0.31986   0.05536   0.48044   0.00000  Uiso   1.00
N42    N     0.67899   0.82290   0.34238   0.00000  Uiso   1.00
N43    N     0.41051   0.03488   0.97585   0.00000  Uiso   1.00
N44    N     0.22021   0.93121   0.41110   0.00000  Uiso   1.00
N45    N     0.57934   0.69874   0.27304   0.00000  Uiso   1.00
N46    N     0.31086   0.91073   0.90652   0.00000  Uiso   1.00
C47    C     0.26824   0.48263   0.98953   0.00000  Uiso   1.00
C48    C     0.30580   0.41224   0.97851   0.00000  Uiso   1.00
C49    C     0.37339   0.41014   0.04203   0.00000  Uiso   1.00
C50    C     0.39827   0.34019   0.01911   0.00000  Uiso   1.00
C51    C     0.46289   0.24087   0.01468   0.00000  Uiso   1.00
C52    C     0.26991   0.51393   0.91169   0.00000  Uiso   1.00
C53    C     0.30733   0.59733   0.91902   0.00000  Uiso   1.00
C54    C     0.30199   0.61298   0.83984   0.00000  Uiso   1.00
C55    C     0.31085   0.67155   0.73167   0.00000  Uiso   1.00
C56    C     0.17691   0.43915   0.97308   0.00000  Uiso   1.00
C57    C     0.13612   0.45969   0.03202   0.00000  Uiso   1.00
C58    C     0.05247   0.41239   0.00451   0.00000  Uiso   1.00
C59    C     0.91693   0.35485   0.99166   0.00000  Uiso   1.00
C60    C     0.19220   0.36214   0.83587   0.00000  Uiso   1.00
C61    C     0.26450   0.34680   0.89505   0.00000  Uiso   1.00
C62    C     0.28927   0.27683   0.87203   0.00000  Uiso   1.00
C63    C     0.35689   0.27462   0.93550   0.00000  Uiso   1.00
C64    C     0.22862   0.44849   0.82823   0.00000  Uiso   1.00
C65    C     0.22321   0.46402   0.74902   0.00000  Uiso   1.00
C66    C     0.26062   0.54742   0.75623   0.00000  Uiso   1.00
C67    C     0.13561   0.37370   0.88962   0.00000  Uiso   1.00
C68    C     0.05200   0.32637   0.86201   0.00000  Uiso   1.00
C69    C     0.01109   0.34683   0.92090   0.00000  Uiso   1.00
H70    H     0.30039   0.53359   0.05450   0.00000  Uiso   1.00
H71    H     0.40535   0.46081   0.10661   0.00000  Uiso   1.00
H72    H     0.33928   0.64796   0.98361   0.00000  Uiso   1.00
H73    H     0.16810   0.51034   0.09660   0.00000  Uiso   1.00
H74    H     0.50351   0.35127   0.12756   0.00000  Uiso   1.00
H75    H     0.36419   0.74591   0.86822   0.00000  Uiso   1.00
H76    H     0.00322   0.45570   0.10647   0.00000  Uiso   1.00
H77    H     0.16005   0.31118   0.77089   0.00000  Uiso   1.00
H78    H     0.25730   0.22619   0.80743   0.00000  Uiso   1.00
H79    H     0.19124   0.41336   0.68444   0.00000  Uiso   1.00
H80    H     0.02006   0.27573   0.79742   0.00000  Uiso   1.00
H81    H     0.38335   0.16085   0.88474   0.00000  Uiso   1.00
H82    H     0.24403   0.55549   0.62540   0.00000  Uiso   1.00
H83    H     0.88306   0.26528   0.86365   0.00000  Uiso   1.00
O84    O     0.50995   0.20417   0.03529   0.00000  Uiso   1.00
O85    O     0.32716   0.72193   0.69506   0.00000  Uiso   1.00
O86    O     0.85358   0.34118   0.00763   0.00000  Uiso   1.00
N87    N     0.46187   0.31811   0.06540   0.00000  Uiso   1.00
N88    N     0.33163   0.68707   0.82294   0.00000  Uiso   1.00
N89    N     0.99415   0.41577   0.04567   0.00000  Uiso   1.00
N90    N     0.39722   0.21564   0.93474   0.00000  Uiso   1.00
N91    N     0.26698   0.58461   0.69228   0.00000  Uiso   1.00
N92    N     0.92949   0.31330   0.91501   0.00000  Uiso   1.00
C93    C     0.97918   0.26923   0.48983   0.00000  Uiso   1.00
C94    C     0.96846   0.30753   0.41605   0.00000  Uiso   1.00
C95    C     0.02709   0.37639   0.41393   0.00000  Uiso   1.00
C96    C     0.00538   0.40176   0.34059   0.00000  Uiso   1.00
C97    C     0.00052   0.46764   0.23649   0.00000  Uiso   1.00
C98    C     0.90725   0.27184   0.52295   0.00000  Uiso   1.00
C99    C     0.91443   0.31070   0.61071   0.00000  Uiso   1.00
C100   C     0.84119   0.30602   0.62736   0.00000  Uiso   1.00
C101   C     0.74132   0.31645   0.68924   0.00000  Uiso   1.00
C102   C     0.96395   0.17529   0.44383   0.00000  Uiso   1.00
C103   C     0.01877   0.13296   0.46508   0.00000  Uiso   1.00
C104   C     0.99326   0.04699   0.41513   0.00000  Uiso   1.00
C105   C     0.98141   0.90751   0.35417   0.00000  Uiso   1.00
C106   C     0.83637   0.19183   0.36336   0.00000  Uiso   1.00
C107   C     0.89089   0.26548   0.34735   0.00000  Uiso   1.00
C108   C     0.86909   0.29075   0.27399   0.00000  Uiso   1.00
C109   C     0.92768   0.35964   0.27176   0.00000  Uiso   1.00
C110   C     0.82969   0.22980   0.45426   0.00000  Uiso   1.00
C111   C     0.75643   0.22506   0.47078   0.00000  Uiso   1.00
C112   C     0.76349   0.26391   0.55854   0.00000  Uiso   1.00
C113   C     0.88638   0.13325   0.37513   0.00000  Uiso   1.00
C114   C     0.86078   0.04733   0.32514   0.00000  Uiso   1.00
C115   C     0.91556   0.00487   0.34631   0.00000  Uiso   1.00
H116   H     0.03956   0.30196   0.54332   0.00000  Uiso   1.00
H117   H     0.08710   0.40891   0.46711   0.00000  Uiso   1.00
H118   H     0.97446   0.34322   0.66386   0.00000  Uiso   1.00
H119   H     0.07879   0.16551   0.51825   0.00000  Uiso   1.00
H120   H     0.10560   0.50897   0.35233   0.00000  Uiso   1.00
H121   H     0.86808   0.37043   0.76720   0.00000  Uiso   1.00
H122   H     0.08808   0.99569   0.46016   0.00000  Uiso   1.00
H123   H     0.77598   0.15910   0.30987   0.00000  Uiso   1.00
H124   H     0.80907   0.25821   0.22084   0.00000  Uiso   1.00
H125   H     0.69642   0.19252   0.41760   0.00000  Uiso   1.00
H126   H     0.80075   0.01481   0.27199   0.00000  Uiso   1.00
H127   H     0.87993   0.38665   0.15246   0.00000  Uiso   1.00
H128   H     0.64241   0.24811   0.56733   0.00000  Uiso   1.00
H129   H     0.86242   0.87338   0.26028   0.00000  Uiso   1.00
O130   O     0.01927   0.51560   0.19806   0.00000  Uiso   1.00
O131   O     0.70766   0.33383   0.74235   0.00000  Uiso   1.00
O132   O     0.99630   0.84219   0.33951   0.00000  Uiso   1.00
N133   N     0.04795   0.46657   0.31750   0.00000  Uiso   1.00
N134   N     0.82588   0.33706   0.70538   0.00000  Uiso   1.00
N135   N     0.03156   0.98670   0.41833   0.00000  Uiso   1.00
N136   N     0.92652   0.40075   0.20995   0.00000  Uiso   1.00
N137   N     0.70446   0.27124   0.59783   0.00000  Uiso   1.00
N138   N     0.91013   0.92088   0.31078   0.00000  Uiso   1.00
C139   C     0.52148   0.01800   0.72768   0.00000  Uiso   1.00
C140   C     0.58956   0.02812   0.68727   0.00000  Uiso   1.00
C141   C     0.59130   0.96747   0.61467   0.00000  Uiso   1.00
C142   C     0.65901   0.98896   0.58789   0.00000  Uiso   1.00
C143   C     0.75503   0.99262   0.51839   0.00000  Uiso   1.00
C144   C     0.49058   0.09219   0.72531   0.00000  Uiso   1.00
C145   C     0.40909   0.08541   0.68470   0.00000  Uiso   1.00
C146   C     0.39349   0.16083   0.68995   0.00000  Uiso   1.00
C147   C     0.33583   0.26397   0.67956   0.00000  Uiso   1.00
C148   C     0.56458   0.03376   0.82632   0.00000  Uiso   1.00
C149   C     0.54530   0.97786   0.87065   0.00000  Uiso   1.00
C150   C     0.59199   0.00410   0.96094   0.00000  Uiso   1.00
C151   C     0.64923   0.01651   0.10738   0.00000  Uiso   1.00
C152   C     0.63866   0.16401   0.80922   0.00000  Uiso   1.00
C153   C     0.65321   0.10743   0.73156   0.00000  Uiso   1.00
C154   C     0.72095   0.12901   0.70489   0.00000  Uiso   1.00
C155   C     0.72278   0.06841   0.63226   0.00000  Uiso   1.00
C156   C     0.55423   0.17150   0.76960   0.00000  Uiso   1.00
C157   C     0.53875   0.24695   0.77491   0.00000  Uiso   1.00
C158   C     0.45726   0.24029   0.73432   0.00000  Uiso   1.00
C159   C     0.62824   0.11307   0.87061   0.00000  Uiso   1.00
C160   C     0.67496   0.13940   0.96085   0.00000  Uiso   1.00
C161   C     0.65576   0.08355   0.00531   0.00000  Uiso   1.00
H162   H     0.47192   0.95626   0.69320   0.00000  Uiso   1.00
H163   H     0.54202   0.90611   0.58041   0.00000  Uiso   1.00
H164   H     0.35985   0.02403   0.65044   0.00000  Uiso   1.00
H165   H     0.49604   0.91649   0.83635   0.00000  Uiso   1.00
H166   H     0.64780   0.88548   0.47488   0.00000  Uiso   1.00
H167   H     0.26367   0.13413   0.62257   0.00000  Uiso   1.00
H168   H     0.55086   0.90738   0.01460   0.00000  Uiso   1.00
H169   H     0.68822   0.22576   0.84370   0.00000  Uiso   1.00
H170   H     0.77020   0.19039   0.73917   0.00000  Uiso   1.00
H171   H     0.58802   0.30831   0.80920   0.00000  Uiso   1.00
H172   H     0.72421   0.20078   0.99511   0.00000  Uiso   1.00
H173   H     0.83299   0.11622   0.60373   0.00000  Uiso   1.00
H174   H     0.44886   0.36487   0.75142   0.00000  Uiso   1.00
H175   H     0.73605   0.13811   0.14345   0.00000  Uiso   1.00
O176   O     0.79041   0.97273   0.46781   0.00000  Uiso   1.00
O177   O     0.28644   0.29894   0.66158   0.00000  Uiso   1.00
O178   O     0.66323   0.00145   0.17591   0.00000  Uiso   1.00
N179   N     0.68014   0.94464   0.51956   0.00000  Uiso   1.00
N180   N     0.32101   0.17710   0.65763   0.00000  Uiso   1.00
N181   N     0.58949   0.96512   0.02415   0.00000  Uiso   1.00
N182   N     0.77979   0.06879   0.58890   0.00000  Uiso   1.00
N183   N     0.42066   0.30126   0.72696   0.00000  Uiso   1.00
N184   N     0.68914   0.08927   0.09348   0.00000  Uiso   1.00
C185   C     0.73176   0.51737   0.01047   0.00000  Uiso   1.00
C186   C     0.69420   0.58776   0.02149   0.00000  Uiso   1.00
C187   C     0.62660   0.58986   0.95797   0.00000  Uiso   1.00
C188   C     0.60173   0.65981   0.98089   0.00000  Uiso   1.00
C189   C     0.53711   0.75913   0.98532   0.00000  Uiso   1.00
C190   C     0.73009   0.48607   0.08831   0.00000  Uiso   1.00
C191   C     0.69267   0.40267   0.08098   0.00000  Uiso   1.00
C192   C     0.69801   0.38702   0.16016   0.00000  Uiso   1.00
C193   C     0.68915   0.32845   0.26834   0.00000  Uiso   1.00
C194   C     0.82309   0.56085   0.02692   0.00000  Uiso   1.00
C195   C     0.86388   0.54031   0.96798   0.00000  Uiso   1.00
C196   C     0.94753   0.58761   0.99549   0.00000  Uiso   1.00
C197   C     0.08307   0.64515   0.00834   0.00000  Uiso   1.00
C198   C     0.80780   0.63786   0.16413   0.00000  Uiso   1.00
C199   C     0.73550   0.65320   0.10495   0.00000  Uiso   1.00
C200   C     0.71073   0.72317   0.12797   0.00000  Uiso   1.00
C201   C     0.64310   0.72538   0.06450   0.00000  Uiso   1.00
C202   C     0.77138   0.55151   0.17177   0.00000  Uiso   1.00
C203   C     0.77679   0.53598   0.25098   0.00000  Uiso   1.00
C204   C     0.73938   0.45258   0.24377   0.00000  Uiso   1.00
C205   C     0.86439   0.62630   0.11038   0.00000  Uiso   1.00
C206   C     0.94800   0.67363   0.13799   0.00000  Uiso   1.00
C207   C     0.98891   0.65317   0.07910   0.00000  Uiso   1.00
H208   H     0.69961   0.46641   0.94550   0.00000  Uiso   1.00
H209   H     0.59465   0.53919   0.89339   0.00000  Uiso   1.00
H210   H     0.66072   0.35204   0.01639   0.00000  Uiso   1.00
H211   H     0.83190   0.48966   0.90340   0.00000  Uiso   1.00
H212   H     0.49649   0.64873   0.87244   0.00000  Uiso   1.00
H213   H     0.63581   0.25409   0.13178   0.00000  Uiso   1.00
H214   H     0.99678   0.54430   0.89353   0.00000  Uiso   1.00
H215   H     0.83995   0.68881   0.22911   0.00000  Uiso   1.00
H216   H     0.74270   0.77381   0.19257   0.00000  Uiso   1.00
H217   H     0.80876   0.58664   0.31556   0.00000  Uiso   1.00
H218   H     0.97994   0.72427   0.20258   0.00000  Uiso   1.00
H219   H     0.61665   0.83915   0.11526   0.00000  Uiso   1.00
H220   H     0.75597   0.44451   0.37460   0.00000  Uiso   1.00
H221   H     0.11694   0.73472   0.13636   0.00000  Uiso   1.00
O222   O     0.49005   0.79583   0.96471   0.00000  Uiso   1.00
O223   O     0.67284   0.27807   0.30494   0.00000  Uiso   1.00
O224   O     0.14642   0.65882   0.99237   0.00000  Uiso   1.00
N225   N     0.53813   0.68189   0.93460   0.00000  Uiso   1.00
N226   N     0.66837   0.31293   0.17706   0.00000  Uiso   1.00
N227   N     0.00585   0.58423   0.95433   0.00000  Uiso   1.00
N228   N     0.60278   0.78436   0.06526   0.00000  Uiso   1.00
N229   N     0.73302   0.41539   0.30772   0.00000  Uiso   1.00
N230   N     0.07051   0.68670   0.08499   0.00000  Uiso   1.00
C231   C     0.02082   0.73077   0.51017   0.00000  Uiso   1.00
C232   C     0.03154   0.69247   0.58395   0.00000  Uiso   1.00
C233   C     0.97291   0.62361   0.58607   0.00000  Uiso   1.00
C234   C     0.99462   0.59824   0.65941   0.00000  Uiso   1.00
C235   C     0.99947   0.53236   0.76351   0.00000  Uiso   1.00
C236   C     0.09275   0.72816   0.47705   0.00000  Uiso   1.00
C237   C     0.08558   0.68930   0.38929   0.00000  Uiso   1.00
C238   C     0.15881   0.69398   0.37264   0.00000  Uiso   1.00
C239   C     0.25868   0.68355   0.31076   0.00000  Uiso   1.00
C240   C     0.03605   0.82471   0.55617   0.00000  Uiso   1.00
C241   C     0.98123   0.86704   0.53492   0.00000  Uiso   1.00
C242   C     0.00674   0.95301   0.58487   0.00000  Uiso   1.00
C243   C     0.01859   0.09249   0.64583   0.00000  Uiso   1.00
C244   C     0.16363   0.80817   0.63664   0.00000  Uiso   1.00
C245   C     0.10911   0.73452   0.65265   0.00000  Uiso   1.00
C246   C     0.13091   0.70925   0.72601   0.00000  Uiso   1.00
C247   C     0.07232   0.64036   0.72824   0.00000  Uiso   1.00
C248   C     0.17031   0.77020   0.54574   0.00000  Uiso   1.00
C249   C     0.24357   0.77494   0.52922   0.00000  Uiso   1.00
C250   C     0.23651   0.73609   0.44146   0.00000  Uiso   1.00
C251   C     0.11362   0.86675   0.62487   0.00000  Uiso   1.00
C252   C     0.13922   0.95267   0.67486   0.00000  Uiso   1.00
C253   C     0.08444   0.99513   0.65369   0.00000  Uiso   1.00
H254   H     0.96044   0.69804   0.45668   0.00000  Uiso   1.00
H255   H     0.91290   0.59109   0.53289   0.00000  Uiso   1.00
H256   H     0.02554   0.65678   0.33614   0.00000  Uiso   1.00
H257   H     0.92121   0.83449   0.48175   0.00000  Uiso   1.00
H258   H     0.89440   0.49103   0.64767   0.00000  Uiso   1.00
H259   H     0.13192   0.62957   0.23280   0.00000  Uiso   1.00
H260   H     0.91192   0.00431   0.53984   0.00000  Uiso   1.00
H261   H     0.22402   0.84090   0.69013   0.00000  Uiso   1.00
H262   H     0.19093   0.74179   0.77916   0.00000  Uiso   1.00
H263   H     0.30358   0.80748   0.58240   0.00000  Uiso   1.00
H264   H     0.19925   0.98519   0.72801   0.00000  Uiso   1.00
H265   H     0.12007   0.61335   0.84754   0.00000  Uiso   1.00
H266   H     0.35759   0.75189   0.43267   0.00000  Uiso   1.00
H267   H     0.13758   0.12662   0.73972   0.00000  Uiso   1.00
O268   O     0.98073   0.48440   0.80194   0.00000  Uiso   1.00
O269   O     0.29234   0.66617   0.25765   0.00000  Uiso   1.00
O270   O     0.00370   0.15781   0.66049   0.00000  Uiso   1.00
N271   N     0.95205   0.53343   0.68250   0.00000  Uiso   1.00
N272   N     0.17412   0.66294   0.29462   0.00000  Uiso   1.00
N273   N     0.96844   0.01330   0.58167   0.00000  Uiso   1.00
N274   N     0.07348   0.59925   0.79005   0.00000  Uiso   1.00
N275   N     0.29554   0.72876   0.40217   0.00000  Uiso   1.00
N276   N     0.08987   0.07911   0.68922   0.00000  Uiso   1.00
