data_job_05189
_audit_creation_date              2018-12-19
_audit_creation_method            'Materials Studio'
_symmetry_space_group_name_H-M    'P1'
_symmetry_Int_Tables_number       1
_symmetry_cell_setting            triclinic
loop_
_symmetry_equiv_pos_as_xyz
  x,y,z
_cell_length_a                    27.8790
_cell_length_b                    12.0615
_cell_length_c                    14.3547
_cell_angle_alpha                 90.0000
_cell_angle_beta                  100.6270
_cell_angle_gamma                 90.0000
loop_
_atom_site_label
_atom_site_type_symbol
_atom_site_fract_x
_atom_site_fract_y
_atom_site_fract_z
_atom_site_U_iso_or_equiv
_atom_site_adp_type
_atom_site_occupancy
C1     C     0.60402   0.17368   0.13253   0.00000  Uiso   1.00
C2     C     0.63087   0.28076   0.16589   0.00000  Uiso   1.00
C3     C     0.64754   0.31099   0.25954   0.00000  Uiso   1.00
C4     C     0.67125   0.41235   0.27533   0.00000  Uiso   1.00
C5     C     0.71190   0.56820   0.33856   0.00000  Uiso   1.00
C6     C     0.55600   0.20871   0.07039   0.00000  Uiso   1.00
C7     C     0.50973   0.17835   0.08375   0.00000  Uiso   1.00
C8     C     0.47042   0.21905   0.01913   0.00000  Uiso   1.00
C9     C     0.39484   0.26297   0.93406   0.00000  Uiso   1.00
C10    C     0.63370   0.11811   0.06640   0.00000  Uiso   1.00
C11    C     0.65275   0.01156   0.07638   0.00000  Uiso   1.00
C12    C     0.67884   0.97598   0.00839   0.00000  Uiso   1.00
C13    C     0.72390   0.87924   0.91713   0.00000  Uiso   1.00
C14    C     0.61647   0.29994   0.99402   0.00000  Uiso   1.00
C15    C     0.63763   0.34933   0.09065   0.00000  Uiso   1.00
C16    C     0.66132   0.45067   0.10629   0.00000  Uiso   1.00
C17    C     0.67803   0.48105   0.19996   0.00000  Uiso   1.00
C18    C     0.56277   0.27728   0.99516   0.00000  Uiso   1.00
C19    C     0.52351   0.31803   0.93050   0.00000  Uiso   1.00
C20    C     0.47719   0.28775   0.94376   0.00000  Uiso   1.00
C21    C     0.64047   0.18669   0.99116   0.00000  Uiso   1.00
C22    C     0.66653   0.15126   0.92313   0.00000  Uiso   1.00
C23    C     0.68562   0.04468   0.93301   0.00000  Uiso   1.00
H24    H     0.59875   0.12030   0.19111   0.00000  Uiso   1.00
H25    H     0.64230   0.25790   0.31775   0.00000  Uiso   1.00
H26    H     0.50451   0.12527   0.14197   0.00000  Uiso   1.00
H27    H     0.64751   0.95852   0.13461   0.00000  Uiso   1.00
H28    H     0.69355   0.44072   0.42498   0.00000  Uiso   1.00
H29    H     0.40302   0.16103   0.05432   0.00000  Uiso   1.00
H30    H     0.70455   0.80940   0.03880   0.00000  Uiso   1.00
H31    H     0.62173   0.35333   0.93544   0.00000  Uiso   1.00
H32    H     0.66655   0.50373   0.04806   0.00000  Uiso   1.00
H33    H     0.52876   0.37109   0.87228   0.00000  Uiso   1.00
H34    H     0.67176   0.20435   0.86492   0.00000  Uiso   1.00
H35    H     0.71323   0.64024   0.20609   0.00000  Uiso   1.00
H36    H     0.42270   0.36055   0.83543   0.00000  Uiso   1.00
H37    H     0.72423   0.00893   0.81991   0.00000  Uiso   1.00
O38    O     0.73244   0.63523   0.39423   0.00000  Uiso   1.00
O39    O     0.35128   0.26827   0.90794   0.00000  Uiso   1.00
O40    O     0.74688   0.80695   0.88758   0.00000  Uiso   1.00
N41    N     0.69204   0.46703   0.35801   0.00000  Uiso   1.00
N42    N     0.42041   0.20555   0.01148   0.00000  Uiso   1.00
N43    N     0.70231   0.87680   0.99695   0.00000  Uiso   1.00
N44    N     0.70263   0.57439   0.24022   0.00000  Uiso   1.00
N45    N     0.43100   0.31291   0.89369   0.00000  Uiso   1.00
N46    N     0.71290   0.98416   0.87917   0.00000  Uiso   1.00
C47    C     0.10402   0.67368   0.13253   0.00000  Uiso   1.00
C48    C     0.13087   0.78076   0.16589   0.00000  Uiso   1.00
C49    C     0.14754   0.81099   0.25954   0.00000  Uiso   1.00
C50    C     0.17125   0.91235   0.27533   0.00000  Uiso   1.00
C51    C     0.21190   0.06820   0.33856   0.00000  Uiso   1.00
C52    C     0.05600   0.70871   0.07039   0.00000  Uiso   1.00
C53    C     0.00973   0.67835   0.08375   0.00000  Uiso   1.00
C54    C     0.97042   0.71905   0.01913   0.00000  Uiso   1.00
C55    C     0.89484   0.76297   0.93406   0.00000  Uiso   1.00
C56    C     0.13370   0.61811   0.06640   0.00000  Uiso   1.00
C57    C     0.15275   0.51156   0.07638   0.00000  Uiso   1.00
C58    C     0.17884   0.47598   0.00839   0.00000  Uiso   1.00
C59    C     0.22390   0.37924   0.91713   0.00000  Uiso   1.00
C60    C     0.11647   0.79994   0.99402   0.00000  Uiso   1.00
C61    C     0.13763   0.84933   0.09065   0.00000  Uiso   1.00
C62    C     0.16132   0.95067   0.10629   0.00000  Uiso   1.00
C63    C     0.17803   0.98105   0.19996   0.00000  Uiso   1.00
C64    C     0.06277   0.77728   0.99516   0.00000  Uiso   1.00
C65    C     0.02351   0.81803   0.93050   0.00000  Uiso   1.00
C66    C     0.97719   0.78775   0.94376   0.00000  Uiso   1.00
C67    C     0.14047   0.68669   0.99116   0.00000  Uiso   1.00
C68    C     0.16653   0.65126   0.92313   0.00000  Uiso   1.00
C69    C     0.18562   0.54468   0.93301   0.00000  Uiso   1.00
H70    H     0.09875   0.62030   0.19111   0.00000  Uiso   1.00
H71    H     0.14230   0.75790   0.31775   0.00000  Uiso   1.00
H72    H     0.00451   0.62527   0.14197   0.00000  Uiso   1.00
H73    H     0.14751   0.45852   0.13461   0.00000  Uiso   1.00
H74    H     0.19355   0.94072   0.42498   0.00000  Uiso   1.00
H75    H     0.90302   0.66103   0.05432   0.00000  Uiso   1.00
H76    H     0.20455   0.30940   0.03880   0.00000  Uiso   1.00
H77    H     0.12173   0.85333   0.93544   0.00000  Uiso   1.00
H78    H     0.16655   0.00373   0.04806   0.00000  Uiso   1.00
H79    H     0.02876   0.87109   0.87228   0.00000  Uiso   1.00
H80    H     0.17176   0.70435   0.86492   0.00000  Uiso   1.00
H81    H     0.21323   0.14024   0.20609   0.00000  Uiso   1.00
H82    H     0.92270   0.86055   0.83543   0.00000  Uiso   1.00
H83    H     0.22423   0.50893   0.81991   0.00000  Uiso   1.00
O84    O     0.23244   0.13523   0.39423   0.00000  Uiso   1.00
O85    O     0.85128   0.76827   0.90794   0.00000  Uiso   1.00
O86    O     0.24688   0.30695   0.88758   0.00000  Uiso   1.00
N87    N     0.19204   0.96703   0.35801   0.00000  Uiso   1.00
N88    N     0.92041   0.70555   0.01148   0.00000  Uiso   1.00
N89    N     0.20231   0.37680   0.99695   0.00000  Uiso   1.00
N90    N     0.20263   0.07439   0.24022   0.00000  Uiso   1.00
N91    N     0.93100   0.81291   0.89369   0.00000  Uiso   1.00
N92    N     0.21290   0.48416   0.87917   0.00000  Uiso   1.00
C93    C     0.39598   0.17368   0.36747   0.00000  Uiso   1.00
C94    C     0.36913   0.28076   0.33411   0.00000  Uiso   1.00
C95    C     0.35246   0.31099   0.24046   0.00000  Uiso   1.00
C96    C     0.32875   0.41235   0.22467   0.00000  Uiso   1.00
C97    C     0.28810   0.56820   0.16144   0.00000  Uiso   1.00
C98    C     0.44400   0.20871   0.42961   0.00000  Uiso   1.00
C99    C     0.49027   0.17835   0.41625   0.00000  Uiso   1.00
C100   C     0.52958   0.21905   0.48087   0.00000  Uiso   1.00
C101   C     0.60516   0.26297   0.56594   0.00000  Uiso   1.00
C102   C     0.36630   0.11811   0.43360   0.00000  Uiso   1.00
C103   C     0.34725   0.01156   0.42362   0.00000  Uiso   1.00
C104   C     0.32116   0.97598   0.49161   0.00000  Uiso   1.00
C105   C     0.27610   0.87924   0.58287   0.00000  Uiso   1.00
C106   C     0.38353   0.29994   0.50598   0.00000  Uiso   1.00
C107   C     0.36237   0.34933   0.40935   0.00000  Uiso   1.00
C108   C     0.33868   0.45067   0.39371   0.00000  Uiso   1.00
C109   C     0.32197   0.48105   0.30004   0.00000  Uiso   1.00
C110   C     0.43723   0.27728   0.50484   0.00000  Uiso   1.00
C111   C     0.47649   0.31803   0.56950   0.00000  Uiso   1.00
C112   C     0.52281   0.28775   0.55624   0.00000  Uiso   1.00
C113   C     0.35953   0.18669   0.50884   0.00000  Uiso   1.00
C114   C     0.33347   0.15126   0.57687   0.00000  Uiso   1.00
C115   C     0.31438   0.04468   0.56699   0.00000  Uiso   1.00
H116   H     0.40125   0.12030   0.30889   0.00000  Uiso   1.00
H117   H     0.35770   0.25790   0.18225   0.00000  Uiso   1.00
H118   H     0.49549   0.12527   0.35803   0.00000  Uiso   1.00
H119   H     0.35249   0.95852   0.36539   0.00000  Uiso   1.00
H120   H     0.30645   0.44072   0.07502   0.00000  Uiso   1.00
H121   H     0.59698   0.16103   0.44568   0.00000  Uiso   1.00
H122   H     0.29545   0.80940   0.46120   0.00000  Uiso   1.00
H123   H     0.37827   0.35333   0.56456   0.00000  Uiso   1.00
H124   H     0.33345   0.50373   0.45194   0.00000  Uiso   1.00
H125   H     0.47124   0.37109   0.62772   0.00000  Uiso   1.00
H126   H     0.32824   0.20435   0.63508   0.00000  Uiso   1.00
H127   H     0.28677   0.64024   0.29391   0.00000  Uiso   1.00
H128   H     0.57730   0.36055   0.66457   0.00000  Uiso   1.00
H129   H     0.27577   0.00893   0.68009   0.00000  Uiso   1.00
O130   O     0.26756   0.63523   0.10577   0.00000  Uiso   1.00
O131   O     0.64872   0.26827   0.59206   0.00000  Uiso   1.00
O132   O     0.25312   0.80695   0.61242   0.00000  Uiso   1.00
N133   N     0.30796   0.46703   0.14199   0.00000  Uiso   1.00
N134   N     0.57959   0.20555   0.48852   0.00000  Uiso   1.00
N135   N     0.29769   0.87680   0.50305   0.00000  Uiso   1.00
N136   N     0.29737   0.57439   0.25978   0.00000  Uiso   1.00
N137   N     0.56900   0.31291   0.60631   0.00000  Uiso   1.00
N138   N     0.28710   0.98416   0.62083   0.00000  Uiso   1.00
C139   C     0.89598   0.67368   0.36747   0.00000  Uiso   1.00
C140   C     0.86913   0.78076   0.33411   0.00000  Uiso   1.00
C141   C     0.85246   0.81099   0.24046   0.00000  Uiso   1.00
C142   C     0.82875   0.91235   0.22467   0.00000  Uiso   1.00
C143   C     0.78810   0.06820   0.16144   0.00000  Uiso   1.00
C144   C     0.94400   0.70871   0.42961   0.00000  Uiso   1.00
C145   C     0.99027   0.67835   0.41625   0.00000  Uiso   1.00
C146   C     0.02958   0.71905   0.48087   0.00000  Uiso   1.00
C147   C     0.10516   0.76297   0.56594   0.00000  Uiso   1.00
C148   C     0.86630   0.61811   0.43360   0.00000  Uiso   1.00
C149   C     0.84725   0.51156   0.42362   0.00000  Uiso   1.00
C150   C     0.82116   0.47598   0.49161   0.00000  Uiso   1.00
C151   C     0.77610   0.37924   0.58287   0.00000  Uiso   1.00
C152   C     0.88353   0.79994   0.50598   0.00000  Uiso   1.00
C153   C     0.86237   0.84933   0.40935   0.00000  Uiso   1.00
C154   C     0.83868   0.95067   0.39371   0.00000  Uiso   1.00
C155   C     0.82197   0.98105   0.30004   0.00000  Uiso   1.00
C156   C     0.93723   0.77728   0.50484   0.00000  Uiso   1.00
C157   C     0.97649   0.81803   0.56950   0.00000  Uiso   1.00
C158   C     0.02281   0.78775   0.55624   0.00000  Uiso   1.00
C159   C     0.85953   0.68669   0.50884   0.00000  Uiso   1.00
C160   C     0.83347   0.65126   0.57687   0.00000  Uiso   1.00
C161   C     0.81438   0.54468   0.56699   0.00000  Uiso   1.00
H162   H     0.90125   0.62030   0.30889   0.00000  Uiso   1.00
H163   H     0.85770   0.75790   0.18225   0.00000  Uiso   1.00
H164   H     0.99549   0.62527   0.35803   0.00000  Uiso   1.00
H165   H     0.85249   0.45852   0.36539   0.00000  Uiso   1.00
H166   H     0.80645   0.94072   0.07502   0.00000  Uiso   1.00
H167   H     0.09698   0.66103   0.44568   0.00000  Uiso   1.00
H168   H     0.79545   0.30940   0.46120   0.00000  Uiso   1.00
H169   H     0.87827   0.85333   0.56456   0.00000  Uiso   1.00
H170   H     0.83345   0.00373   0.45194   0.00000  Uiso   1.00
H171   H     0.97124   0.87109   0.62772   0.00000  Uiso   1.00
H172   H     0.82824   0.70435   0.63508   0.00000  Uiso   1.00
H173   H     0.78677   0.14024   0.29391   0.00000  Uiso   1.00
H174   H     0.07730   0.86055   0.66457   0.00000  Uiso   1.00
H175   H     0.77577   0.50893   0.68009   0.00000  Uiso   1.00
O176   O     0.76756   0.13523   0.10577   0.00000  Uiso   1.00
O177   O     0.14872   0.76827   0.59206   0.00000  Uiso   1.00
O178   O     0.75312   0.30695   0.61242   0.00000  Uiso   1.00
N179   N     0.80796   0.96703   0.14199   0.00000  Uiso   1.00
N180   N     0.07959   0.70555   0.48852   0.00000  Uiso   1.00
N181   N     0.79769   0.37680   0.50305   0.00000  Uiso   1.00
N182   N     0.79737   0.07439   0.25978   0.00000  Uiso   1.00
N183   N     0.06900   0.81291   0.60631   0.00000  Uiso   1.00
N184   N     0.78710   0.48416   0.62083   0.00000  Uiso   1.00
C185   C     0.39598   0.82632   0.86747   0.00000  Uiso   1.00
C186   C     0.36913   0.71924   0.83411   0.00000  Uiso   1.00
C187   C     0.35246   0.68901   0.74046   0.00000  Uiso   1.00
C188   C     0.32875   0.58765   0.72467   0.00000  Uiso   1.00
C189   C     0.28810   0.43180   0.66144   0.00000  Uiso   1.00
C190   C     0.44400   0.79129   0.92961   0.00000  Uiso   1.00
C191   C     0.49027   0.82165   0.91625   0.00000  Uiso   1.00
C192   C     0.52958   0.78095   0.98087   0.00000  Uiso   1.00
C193   C     0.60516   0.73703   0.06594   0.00000  Uiso   1.00
C194   C     0.36630   0.88189   0.93360   0.00000  Uiso   1.00
C195   C     0.34725   0.98844   0.92362   0.00000  Uiso   1.00
C196   C     0.32116   0.02402   0.99161   0.00000  Uiso   1.00
C197   C     0.27610   0.12076   0.08287   0.00000  Uiso   1.00
C198   C     0.38353   0.70006   0.00598   0.00000  Uiso   1.00
C199   C     0.36237   0.65067   0.90935   0.00000  Uiso   1.00
C200   C     0.33868   0.54933   0.89371   0.00000  Uiso   1.00
C201   C     0.32197   0.51895   0.80004   0.00000  Uiso   1.00
C202   C     0.43723   0.72272   0.00484   0.00000  Uiso   1.00
C203   C     0.47649   0.68197   0.06950   0.00000  Uiso   1.00
C204   C     0.52281   0.71225   0.05624   0.00000  Uiso   1.00
C205   C     0.35953   0.81331   0.00884   0.00000  Uiso   1.00
C206   C     0.33347   0.84874   0.07687   0.00000  Uiso   1.00
C207   C     0.31438   0.95532   0.06699   0.00000  Uiso   1.00
H208   H     0.40125   0.87970   0.80889   0.00000  Uiso   1.00
H209   H     0.35770   0.74210   0.68225   0.00000  Uiso   1.00
H210   H     0.49549   0.87473   0.85803   0.00000  Uiso   1.00
H211   H     0.35249   0.04148   0.86539   0.00000  Uiso   1.00
H212   H     0.30645   0.55928   0.57502   0.00000  Uiso   1.00
H213   H     0.59698   0.83897   0.94568   0.00000  Uiso   1.00
H214   H     0.29545   0.19060   0.96120   0.00000  Uiso   1.00
H215   H     0.37827   0.64667   0.06456   0.00000  Uiso   1.00
H216   H     0.33345   0.49627   0.95194   0.00000  Uiso   1.00
H217   H     0.47124   0.62891   0.12772   0.00000  Uiso   1.00
H218   H     0.32824   0.79565   0.13508   0.00000  Uiso   1.00
H219   H     0.28677   0.35976   0.79391   0.00000  Uiso   1.00
H220   H     0.57730   0.63945   0.16457   0.00000  Uiso   1.00
H221   H     0.27577   0.99107   0.18009   0.00000  Uiso   1.00
O222   O     0.26756   0.36477   0.60577   0.00000  Uiso   1.00
O223   O     0.64872   0.73173   0.09206   0.00000  Uiso   1.00
O224   O     0.25312   0.19305   0.11242   0.00000  Uiso   1.00
N225   N     0.30796   0.53297   0.64199   0.00000  Uiso   1.00
N226   N     0.57959   0.79445   0.98852   0.00000  Uiso   1.00
N227   N     0.29769   0.12320   0.00305   0.00000  Uiso   1.00
N228   N     0.29737   0.42561   0.75978   0.00000  Uiso   1.00
N229   N     0.56900   0.68709   0.10631   0.00000  Uiso   1.00
N230   N     0.28710   0.01584   0.12083   0.00000  Uiso   1.00
C231   C     0.89598   0.32632   0.86747   0.00000  Uiso   1.00
C232   C     0.86913   0.21924   0.83411   0.00000  Uiso   1.00
C233   C     0.85246   0.18901   0.74046   0.00000  Uiso   1.00
C234   C     0.82875   0.08765   0.72467   0.00000  Uiso   1.00
C235   C     0.78810   0.93180   0.66144   0.00000  Uiso   1.00
C236   C     0.94400   0.29129   0.92961   0.00000  Uiso   1.00
C237   C     0.99027   0.32165   0.91625   0.00000  Uiso   1.00
C238   C     0.02958   0.28095   0.98087   0.00000  Uiso   1.00
C239   C     0.10516   0.23703   0.06594   0.00000  Uiso   1.00
C240   C     0.86630   0.38189   0.93360   0.00000  Uiso   1.00
C241   C     0.84725   0.48844   0.92362   0.00000  Uiso   1.00
C242   C     0.82116   0.52402   0.99161   0.00000  Uiso   1.00
C243   C     0.77610   0.62076   0.08287   0.00000  Uiso   1.00
C244   C     0.88353   0.20006   0.00598   0.00000  Uiso   1.00
C245   C     0.86237   0.15067   0.90935   0.00000  Uiso   1.00
C246   C     0.83868   0.04933   0.89371   0.00000  Uiso   1.00
C247   C     0.82197   0.01895   0.80004   0.00000  Uiso   1.00
C248   C     0.93723   0.22272   0.00484   0.00000  Uiso   1.00
C249   C     0.97649   0.18197   0.06950   0.00000  Uiso   1.00
C250   C     0.02281   0.21225   0.05624   0.00000  Uiso   1.00
C251   C     0.85953   0.31331   0.00884   0.00000  Uiso   1.00
C252   C     0.83347   0.34874   0.07687   0.00000  Uiso   1.00
C253   C     0.81438   0.45532   0.06699   0.00000  Uiso   1.00
H254   H     0.90125   0.37970   0.80889   0.00000  Uiso   1.00
H255   H     0.85770   0.24210   0.68225   0.00000  Uiso   1.00
H256   H     0.99549   0.37473   0.85803   0.00000  Uiso   1.00
H257   H     0.85249   0.54148   0.86539   0.00000  Uiso   1.00
H258   H     0.80645   0.05928   0.57502   0.00000  Uiso   1.00
H259   H     0.09698   0.33897   0.94568   0.00000  Uiso   1.00
H260   H     0.79545   0.69060   0.96120   0.00000  Uiso   1.00
H261   H     0.87827   0.14667   0.06456   0.00000  Uiso   1.00
H262   H     0.83345   0.99627   0.95194   0.00000  Uiso   1.00
H263   H     0.97124   0.12891   0.12772   0.00000  Uiso   1.00
H264   H     0.82824   0.29565   0.13508   0.00000  Uiso   1.00
H265   H     0.78677   0.85976   0.79391   0.00000  Uiso   1.00
H266   H     0.07730   0.13945   0.16457   0.00000  Uiso   1.00
H267   H     0.77577   0.49107   0.18009   0.00000  Uiso   1.00
O268   O     0.76756   0.86477   0.60577   0.00000  Uiso   1.00
O269   O     0.14872   0.23173   0.09206   0.00000  Uiso   1.00
O270   O     0.75312   0.69305   0.11242   0.00000  Uiso   1.00
N271   N     0.80796   0.03297   0.64199   0.00000  Uiso   1.00
N272   N     0.07959   0.29445   0.98852   0.00000  Uiso   1.00
N273   N     0.79769   0.62320   0.00305   0.00000  Uiso   1.00
N274   N     0.79737   0.92561   0.75978   0.00000  Uiso   1.00
N275   N     0.06900   0.18709   0.10631   0.00000  Uiso   1.00
N276   N     0.78710   0.51584   0.12083   0.00000  Uiso   1.00
C277   C     0.60402   0.82632   0.63253   0.00000  Uiso   1.00
C278   C     0.63087   0.71924   0.66589   0.00000  Uiso   1.00
C279   C     0.64754   0.68901   0.75954   0.00000  Uiso   1.00
C280   C     0.67125   0.58765   0.77533   0.00000  Uiso   1.00
C281   C     0.71190   0.43180   0.83856   0.00000  Uiso   1.00
C282   C     0.55600   0.79129   0.57039   0.00000  Uiso   1.00
C283   C     0.50973   0.82165   0.58375   0.00000  Uiso   1.00
C284   C     0.47042   0.78095   0.51913   0.00000  Uiso   1.00
C285   C     0.39484   0.73703   0.43406   0.00000  Uiso   1.00
C286   C     0.63370   0.88189   0.56640   0.00000  Uiso   1.00
C287   C     0.65275   0.98844   0.57638   0.00000  Uiso   1.00
C288   C     0.67884   0.02402   0.50839   0.00000  Uiso   1.00
C289   C     0.72390   0.12076   0.41713   0.00000  Uiso   1.00
C290   C     0.61647   0.70006   0.49402   0.00000  Uiso   1.00
C291   C     0.63763   0.65067   0.59065   0.00000  Uiso   1.00
C292   C     0.66132   0.54933   0.60629   0.00000  Uiso   1.00
C293   C     0.67803   0.51895   0.69996   0.00000  Uiso   1.00
C294   C     0.56277   0.72272   0.49516   0.00000  Uiso   1.00
C295   C     0.52351   0.68197   0.43050   0.00000  Uiso   1.00
C296   C     0.47719   0.71225   0.44376   0.00000  Uiso   1.00
C297   C     0.64047   0.81331   0.49116   0.00000  Uiso   1.00
C298   C     0.66653   0.84874   0.42313   0.00000  Uiso   1.00
C299   C     0.68562   0.95532   0.43301   0.00000  Uiso   1.00
H300   H     0.59875   0.87970   0.69111   0.00000  Uiso   1.00
H301   H     0.64230   0.74210   0.81775   0.00000  Uiso   1.00
H302   H     0.50451   0.87473   0.64197   0.00000  Uiso   1.00
H303   H     0.64751   0.04148   0.63461   0.00000  Uiso   1.00
H304   H     0.69355   0.55928   0.92498   0.00000  Uiso   1.00
H305   H     0.40302   0.83897   0.55432   0.00000  Uiso   1.00
H306   H     0.70455   0.19060   0.53880   0.00000  Uiso   1.00
H307   H     0.62173   0.64667   0.43544   0.00000  Uiso   1.00
H308   H     0.66655   0.49627   0.54806   0.00000  Uiso   1.00
H309   H     0.52876   0.62891   0.37228   0.00000  Uiso   1.00
H310   H     0.67176   0.79565   0.36492   0.00000  Uiso   1.00
H311   H     0.71323   0.35976   0.70609   0.00000  Uiso   1.00
H312   H     0.42270   0.63945   0.33543   0.00000  Uiso   1.00
H313   H     0.72423   0.99107   0.31991   0.00000  Uiso   1.00
O314   O     0.73244   0.36477   0.89423   0.00000  Uiso   1.00
O315   O     0.35128   0.73173   0.40794   0.00000  Uiso   1.00
O316   O     0.74688   0.19305   0.38758   0.00000  Uiso   1.00
N317   N     0.69204   0.53297   0.85801   0.00000  Uiso   1.00
N318   N     0.42041   0.79445   0.51148   0.00000  Uiso   1.00
N319   N     0.70231   0.12320   0.49695   0.00000  Uiso   1.00
N320   N     0.70263   0.42561   0.74022   0.00000  Uiso   1.00
N321   N     0.43100   0.68709   0.39369   0.00000  Uiso   1.00
N322   N     0.71290   0.01584   0.37917   0.00000  Uiso   1.00
C323   C     0.10402   0.32632   0.63253   0.00000  Uiso   1.00
C324   C     0.13087   0.21924   0.66589   0.00000  Uiso   1.00
C325   C     0.14754   0.18901   0.75954   0.00000  Uiso   1.00
C326   C     0.17125   0.08765   0.77533   0.00000  Uiso   1.00
C327   C     0.21190   0.93180   0.83856   0.00000  Uiso   1.00
C328   C     0.05600   0.29129   0.57039   0.00000  Uiso   1.00
C329   C     0.00973   0.32165   0.58375   0.00000  Uiso   1.00
C330   C     0.97042   0.28095   0.51913   0.00000  Uiso   1.00
C331   C     0.89484   0.23703   0.43406   0.00000  Uiso   1.00
C332   C     0.13370   0.38189   0.56640   0.00000  Uiso   1.00
C333   C     0.15275   0.48844   0.57638   0.00000  Uiso   1.00
C334   C     0.17884   0.52402   0.50839   0.00000  Uiso   1.00
C335   C     0.22390   0.62076   0.41713   0.00000  Uiso   1.00
C336   C     0.11647   0.20006   0.49402   0.00000  Uiso   1.00
C337   C     0.13763   0.15067   0.59065   0.00000  Uiso   1.00
C338   C     0.16132   0.04933   0.60629   0.00000  Uiso   1.00
C339   C     0.17803   0.01895   0.69996   0.00000  Uiso   1.00
C340   C     0.06277   0.22272   0.49516   0.00000  Uiso   1.00
C341   C     0.02351   0.18197   0.43050   0.00000  Uiso   1.00
C342   C     0.97719   0.21225   0.44376   0.00000  Uiso   1.00
C343   C     0.14047   0.31331   0.49116   0.00000  Uiso   1.00
C344   C     0.16653   0.34874   0.42313   0.00000  Uiso   1.00
C345   C     0.18562   0.45532   0.43301   0.00000  Uiso   1.00
H346   H     0.09875   0.37970   0.69111   0.00000  Uiso   1.00
H347   H     0.14230   0.24210   0.81775   0.00000  Uiso   1.00
H348   H     0.00451   0.37473   0.64197   0.00000  Uiso   1.00
H349   H     0.14751   0.54148   0.63461   0.00000  Uiso   1.00
H350   H     0.19355   0.05928   0.92498   0.00000  Uiso   1.00
H351   H     0.90302   0.33897   0.55432   0.00000  Uiso   1.00
H352   H     0.20455   0.69060   0.53880   0.00000  Uiso   1.00
H353   H     0.12173   0.14667   0.43544   0.00000  Uiso   1.00
H354   H     0.16655   0.99627   0.54806   0.00000  Uiso   1.00
H355   H     0.02876   0.12891   0.37228   0.00000  Uiso   1.00
H356   H     0.17176   0.29565   0.36492   0.00000  Uiso   1.00
H357   H     0.21323   0.85976   0.70609   0.00000  Uiso   1.00
H358   H     0.92270   0.13945   0.33543   0.00000  Uiso   1.00
H359   H     0.22423   0.49107   0.31991   0.00000  Uiso   1.00
O360   O     0.23244   0.86477   0.89423   0.00000  Uiso   1.00
O361   O     0.85128   0.23173   0.40794   0.00000  Uiso   1.00
O362   O     0.24688   0.69305   0.38758   0.00000  Uiso   1.00
N363   N     0.19204   0.03297   0.85801   0.00000  Uiso   1.00
N364   N     0.92041   0.29445   0.51148   0.00000  Uiso   1.00
N365   N     0.20231   0.62320   0.49695   0.00000  Uiso   1.00
N366   N     0.20263   0.92561   0.74022   0.00000  Uiso   1.00
N367   N     0.93100   0.18709   0.39369   0.00000  Uiso   1.00
N368   N     0.21290   0.51584   0.37917   0.00000  Uiso   1.00
