data_job_03847
_audit_creation_date              2018-12-19
_audit_creation_method            'Materials Studio'
_symmetry_space_group_name_H-M    'P1'
_symmetry_Int_Tables_number       1
_symmetry_cell_setting            triclinic
loop_
_symmetry_equiv_pos_as_xyz
  x,y,z
_cell_length_a                    21.5108
_cell_length_b                    21.5108
_cell_length_c                    9.3063
_cell_angle_alpha                 90.0000
_cell_angle_beta                  90.0000
_cell_angle_gamma                 90.0000
loop_
_atom_site_label
_atom_site_type_symbol
_atom_site_fract_x
_atom_site_fract_y
_atom_site_fract_z
_atom_site_U_iso_or_equiv
_atom_site_adp_type
_atom_site_occupancy
C1     C     0.87436   0.66780   0.38830   0.00000  Uiso   1.00
C2     C     0.81093   0.63938   0.42054   0.00000  Uiso   1.00
C3     C     0.79946   0.59139   0.51663   0.00000  Uiso   1.00
C4     C     0.73822   0.57197   0.53082   0.00000  Uiso   1.00
C5     C     0.64704   0.52362   0.59287   0.00000  Uiso   1.00
C6     C     0.88361   0.66164   0.22646   0.00000  Uiso   1.00
C7     C     0.93325   0.63238   0.15938   0.00000  Uiso   1.00
C8     C     0.93318   0.63171   0.01019   0.00000  Uiso   1.00
C9     C     0.95485   0.61796   0.77093   0.00000  Uiso   1.00
C10    C     0.86798   0.73721   0.41806   0.00000  Uiso   1.00
C11    C     0.90450   0.77151   0.51205   0.00000  Uiso   1.00
C12    C     0.89129   0.83447   0.52415   0.00000  Uiso   1.00
C13    C     0.88870   0.93806   0.58238   0.00000  Uiso   1.00
C14    C     0.78598   0.71864   0.24264   0.00000  Uiso   1.00
C15    C     0.76293   0.66699   0.34142   0.00000  Uiso   1.00
C16    C     0.70168   0.64764   0.35548   0.00000  Uiso   1.00
C17    C     0.69013   0.59964   0.45157   0.00000  Uiso   1.00
C18    C     0.83561   0.68925   0.14735   0.00000  Uiso   1.00
C19    C     0.83547   0.68863   0.99822   0.00000  Uiso   1.00
C20    C     0.88509   0.65938   0.93093   0.00000  Uiso   1.00
C21    C     0.81998   0.76483   0.33895   0.00000  Uiso   1.00
C22    C     0.80671   0.82776   0.35090   0.00000  Uiso   1.00
C23    C     0.84320   0.86214   0.44489   0.00000  Uiso   1.00
H24    H     0.91174   0.64630   0.44989   0.00000  Uiso   1.00
H25    H     0.83663   0.57003   0.57783   0.00000  Uiso   1.00
H26    H     0.97039   0.61102   0.22063   0.00000  Uiso   1.00
H27    H     0.94164   0.75012   0.57325   0.00000  Uiso   1.00
H28    H     0.73219   0.49763   0.68474   0.00000  Uiso   1.00
H29    H     0.01425   0.58408   0.93158   0.00000  Uiso   1.00
H30    H     0.95362   0.87741   0.67515   0.00000  Uiso   1.00
H31    H     0.74861   0.74014   0.18104   0.00000  Uiso   1.00
H32    H     0.66455   0.66902   0.29424   0.00000  Uiso   1.00
H33    H     0.79832   0.71001   0.93704   0.00000  Uiso   1.00
H34    H     0.76956   0.84911   0.28966   0.00000  Uiso   1.00
H35    H     0.59252   0.57798   0.45456   0.00000  Uiso   1.00
H36    H     0.87459   0.66443   0.70140   0.00000  Uiso   1.00
H37    H     0.81396   0.95775   0.44497   0.00000  Uiso   1.00
O38    O     0.61000   0.48931   0.64893   0.00000  Uiso   1.00
O39    O     0.98007   0.60274   0.66081   0.00000  Uiso   1.00
O40    O     0.90052   0.98757   0.63636   0.00000  Uiso   1.00
N41    N     0.71085   0.52631   0.61506   0.00000  Uiso   1.00
N42    N     0.97456   0.60713   0.91089   0.00000  Uiso   1.00
N43    N     0.91789   0.88136   0.60604   0.00000  Uiso   1.00
N44    N     0.63570   0.56954   0.49120   0.00000  Uiso   1.00
N45    N     0.89941   0.65036   0.78704   0.00000  Uiso   1.00
N46    N     0.84274   0.92460   0.48218   0.00000  Uiso   1.00
C47    C     0.37436   0.16780   0.88830   0.00000  Uiso   1.00
C48    C     0.31093   0.13938   0.92054   0.00000  Uiso   1.00
C49    C     0.29946   0.09139   0.01663   0.00000  Uiso   1.00
C50    C     0.23822   0.07197   0.03082   0.00000  Uiso   1.00
C51    C     0.14704   0.02362   0.09287   0.00000  Uiso   1.00
C52    C     0.38361   0.16164   0.72646   0.00000  Uiso   1.00
C53    C     0.43325   0.13238   0.65938   0.00000  Uiso   1.00
C54    C     0.43318   0.13171   0.51019   0.00000  Uiso   1.00
C55    C     0.45485   0.11796   0.27093   0.00000  Uiso   1.00
C56    C     0.36798   0.23721   0.91806   0.00000  Uiso   1.00
C57    C     0.40450   0.27151   0.01205   0.00000  Uiso   1.00
C58    C     0.39129   0.33447   0.02415   0.00000  Uiso   1.00
C59    C     0.38870   0.43806   0.08238   0.00000  Uiso   1.00
C60    C     0.28598   0.21864   0.74264   0.00000  Uiso   1.00
C61    C     0.26293   0.16699   0.84142   0.00000  Uiso   1.00
C62    C     0.20168   0.14764   0.85548   0.00000  Uiso   1.00
C63    C     0.19013   0.09964   0.95157   0.00000  Uiso   1.00
C64    C     0.33561   0.18925   0.64735   0.00000  Uiso   1.00
C65    C     0.33547   0.18863   0.49822   0.00000  Uiso   1.00
C66    C     0.38509   0.15938   0.43093   0.00000  Uiso   1.00
C67    C     0.31998   0.26483   0.83895   0.00000  Uiso   1.00
C68    C     0.30671   0.32776   0.85090   0.00000  Uiso   1.00
C69    C     0.34320   0.36214   0.94489   0.00000  Uiso   1.00
H70    H     0.41174   0.14630   0.94989   0.00000  Uiso   1.00
H71    H     0.33663   0.07003   0.07783   0.00000  Uiso   1.00
H72    H     0.47039   0.11102   0.72063   0.00000  Uiso   1.00
H73    H     0.44164   0.25012   0.07325   0.00000  Uiso   1.00
H74    H     0.23219   0.99763   0.18474   0.00000  Uiso   1.00
H75    H     0.51425   0.08408   0.43158   0.00000  Uiso   1.00
H76    H     0.45362   0.37741   0.17515   0.00000  Uiso   1.00
H77    H     0.24861   0.24014   0.68104   0.00000  Uiso   1.00
H78    H     0.16455   0.16902   0.79424   0.00000  Uiso   1.00
H79    H     0.29832   0.21001   0.43704   0.00000  Uiso   1.00
H80    H     0.26956   0.34911   0.78966   0.00000  Uiso   1.00
H81    H     0.09252   0.07798   0.95456   0.00000  Uiso   1.00
H82    H     0.37459   0.16443   0.20140   0.00000  Uiso   1.00
H83    H     0.31396   0.45775   0.94497   0.00000  Uiso   1.00
O84    O     0.11000   0.98931   0.14893   0.00000  Uiso   1.00
O85    O     0.48007   0.10274   0.16081   0.00000  Uiso   1.00
O86    O     0.40052   0.48757   0.13636   0.00000  Uiso   1.00
N87    N     0.21085   0.02631   0.11506   0.00000  Uiso   1.00
N88    N     0.47456   0.10713   0.41089   0.00000  Uiso   1.00
N89    N     0.41789   0.38136   0.10604   0.00000  Uiso   1.00
N90    N     0.13570   0.06954   0.99120   0.00000  Uiso   1.00
N91    N     0.39941   0.15036   0.28704   0.00000  Uiso   1.00
N92    N     0.34274   0.42460   0.98218   0.00000  Uiso   1.00
C93    C     0.12564   0.33220   0.38830   0.00000  Uiso   1.00
C94    C     0.18907   0.36062   0.42054   0.00000  Uiso   1.00
C95    C     0.20054   0.40861   0.51663   0.00000  Uiso   1.00
C96    C     0.26178   0.42803   0.53082   0.00000  Uiso   1.00
C97    C     0.35296   0.47638   0.59287   0.00000  Uiso   1.00
C98    C     0.11639   0.33836   0.22646   0.00000  Uiso   1.00
C99    C     0.06675   0.36762   0.15938   0.00000  Uiso   1.00
C100   C     0.06682   0.36829   0.01019   0.00000  Uiso   1.00
C101   C     0.04515   0.38204   0.77093   0.00000  Uiso   1.00
C102   C     0.13202   0.26279   0.41806   0.00000  Uiso   1.00
C103   C     0.09550   0.22849   0.51205   0.00000  Uiso   1.00
C104   C     0.10871   0.16553   0.52415   0.00000  Uiso   1.00
C105   C     0.11130   0.06194   0.58238   0.00000  Uiso   1.00
C106   C     0.21402   0.28136   0.24264   0.00000  Uiso   1.00
C107   C     0.23707   0.33301   0.34142   0.00000  Uiso   1.00
C108   C     0.29832   0.35236   0.35548   0.00000  Uiso   1.00
C109   C     0.30987   0.40036   0.45157   0.00000  Uiso   1.00
C110   C     0.16439   0.31075   0.14735   0.00000  Uiso   1.00
C111   C     0.16453   0.31137   0.99822   0.00000  Uiso   1.00
C112   C     0.11491   0.34062   0.93093   0.00000  Uiso   1.00
C113   C     0.18002   0.23517   0.33895   0.00000  Uiso   1.00
C114   C     0.19329   0.17224   0.35090   0.00000  Uiso   1.00
C115   C     0.15680   0.13786   0.44489   0.00000  Uiso   1.00
H116   H     0.08826   0.35370   0.44989   0.00000  Uiso   1.00
H117   H     0.16337   0.42997   0.57783   0.00000  Uiso   1.00
H118   H     0.02961   0.38898   0.22063   0.00000  Uiso   1.00
H119   H     0.05836   0.24988   0.57325   0.00000  Uiso   1.00
H120   H     0.26781   0.50237   0.68474   0.00000  Uiso   1.00
H121   H     0.98575   0.41592   0.93158   0.00000  Uiso   1.00
H122   H     0.04638   0.12259   0.67515   0.00000  Uiso   1.00
H123   H     0.25139   0.25986   0.18104   0.00000  Uiso   1.00
H124   H     0.33545   0.33098   0.29424   0.00000  Uiso   1.00
H125   H     0.20168   0.28999   0.93704   0.00000  Uiso   1.00
H126   H     0.23044   0.15089   0.28966   0.00000  Uiso   1.00
H127   H     0.40748   0.42202   0.45456   0.00000  Uiso   1.00
H128   H     0.12541   0.33557   0.70140   0.00000  Uiso   1.00
H129   H     0.18604   0.04225   0.44497   0.00000  Uiso   1.00
O130   O     0.39000   0.51069   0.64893   0.00000  Uiso   1.00
O131   O     0.01993   0.39726   0.66081   0.00000  Uiso   1.00
O132   O     0.09948   0.01243   0.63636   0.00000  Uiso   1.00
N133   N     0.28915   0.47369   0.61506   0.00000  Uiso   1.00
N134   N     0.02544   0.39287   0.91089   0.00000  Uiso   1.00
N135   N     0.08211   0.11864   0.60604   0.00000  Uiso   1.00
N136   N     0.36430   0.43046   0.49120   0.00000  Uiso   1.00
N137   N     0.10059   0.34964   0.78704   0.00000  Uiso   1.00
N138   N     0.15726   0.07540   0.48218   0.00000  Uiso   1.00
C139   C     0.62564   0.83220   0.88830   0.00000  Uiso   1.00
C140   C     0.68907   0.86062   0.92054   0.00000  Uiso   1.00
C141   C     0.70054   0.90861   0.01663   0.00000  Uiso   1.00
C142   C     0.76178   0.92803   0.03082   0.00000  Uiso   1.00
C143   C     0.85296   0.97638   0.09287   0.00000  Uiso   1.00
C144   C     0.61639   0.83836   0.72646   0.00000  Uiso   1.00
C145   C     0.56675   0.86762   0.65938   0.00000  Uiso   1.00
C146   C     0.56682   0.86829   0.51019   0.00000  Uiso   1.00
C147   C     0.54515   0.88204   0.27093   0.00000  Uiso   1.00
C148   C     0.63202   0.76279   0.91806   0.00000  Uiso   1.00
C149   C     0.59550   0.72849   0.01205   0.00000  Uiso   1.00
C150   C     0.60871   0.66553   0.02415   0.00000  Uiso   1.00
C151   C     0.61130   0.56194   0.08238   0.00000  Uiso   1.00
C152   C     0.71402   0.78136   0.74264   0.00000  Uiso   1.00
C153   C     0.73707   0.83301   0.84142   0.00000  Uiso   1.00
C154   C     0.79832   0.85236   0.85548   0.00000  Uiso   1.00
C155   C     0.80987   0.90036   0.95157   0.00000  Uiso   1.00
C156   C     0.66439   0.81075   0.64735   0.00000  Uiso   1.00
C157   C     0.66453   0.81137   0.49822   0.00000  Uiso   1.00
C158   C     0.61491   0.84062   0.43093   0.00000  Uiso   1.00
C159   C     0.68002   0.73517   0.83895   0.00000  Uiso   1.00
C160   C     0.69329   0.67224   0.85090   0.00000  Uiso   1.00
C161   C     0.65680   0.63786   0.94489   0.00000  Uiso   1.00
H162   H     0.58826   0.85370   0.94989   0.00000  Uiso   1.00
H163   H     0.66337   0.92997   0.07783   0.00000  Uiso   1.00
H164   H     0.52961   0.88898   0.72063   0.00000  Uiso   1.00
H165   H     0.55836   0.74988   0.07325   0.00000  Uiso   1.00
H166   H     0.76781   0.00237   0.18474   0.00000  Uiso   1.00
H167   H     0.48575   0.91592   0.43158   0.00000  Uiso   1.00
H168   H     0.54638   0.62259   0.17515   0.00000  Uiso   1.00
H169   H     0.75139   0.75986   0.68104   0.00000  Uiso   1.00
H170   H     0.83545   0.83098   0.79424   0.00000  Uiso   1.00
H171   H     0.70168   0.78999   0.43704   0.00000  Uiso   1.00
H172   H     0.73044   0.65089   0.78966   0.00000  Uiso   1.00
H173   H     0.90748   0.92202   0.95456   0.00000  Uiso   1.00
H174   H     0.62541   0.83557   0.20140   0.00000  Uiso   1.00
H175   H     0.68604   0.54225   0.94497   0.00000  Uiso   1.00
O176   O     0.89000   0.01069   0.14893   0.00000  Uiso   1.00
O177   O     0.51993   0.89726   0.16081   0.00000  Uiso   1.00
O178   O     0.59948   0.51243   0.13636   0.00000  Uiso   1.00
N179   N     0.78915   0.97369   0.11506   0.00000  Uiso   1.00
N180   N     0.52544   0.89287   0.41089   0.00000  Uiso   1.00
N181   N     0.58211   0.61864   0.10604   0.00000  Uiso   1.00
N182   N     0.86430   0.93046   0.99120   0.00000  Uiso   1.00
N183   N     0.60059   0.84964   0.28704   0.00000  Uiso   1.00
N184   N     0.65726   0.57540   0.98218   0.00000  Uiso   1.00
C185   C     0.66780   0.12564   0.61170   0.00000  Uiso   1.00
C186   C     0.63938   0.18907   0.57946   0.00000  Uiso   1.00
C187   C     0.59139   0.20054   0.48337   0.00000  Uiso   1.00
C188   C     0.57197   0.26178   0.46918   0.00000  Uiso   1.00
C189   C     0.52362   0.35296   0.40713   0.00000  Uiso   1.00
C190   C     0.66164   0.11639   0.77354   0.00000  Uiso   1.00
C191   C     0.63238   0.06675   0.84062   0.00000  Uiso   1.00
C192   C     0.63171   0.06682   0.98981   0.00000  Uiso   1.00
C193   C     0.61796   0.04515   0.22907   0.00000  Uiso   1.00
C194   C     0.73721   0.13202   0.58194   0.00000  Uiso   1.00
C195   C     0.77151   0.09550   0.48795   0.00000  Uiso   1.00
C196   C     0.83447   0.10871   0.47585   0.00000  Uiso   1.00
C197   C     0.93806   0.11130   0.41762   0.00000  Uiso   1.00
C198   C     0.71864   0.21402   0.75736   0.00000  Uiso   1.00
C199   C     0.66699   0.23707   0.65858   0.00000  Uiso   1.00
C200   C     0.64764   0.29832   0.64452   0.00000  Uiso   1.00
C201   C     0.59964   0.30987   0.54843   0.00000  Uiso   1.00
C202   C     0.68925   0.16439   0.85265   0.00000  Uiso   1.00
C203   C     0.68863   0.16453   0.00178   0.00000  Uiso   1.00
C204   C     0.65938   0.11491   0.06907   0.00000  Uiso   1.00
C205   C     0.76483   0.18002   0.66105   0.00000  Uiso   1.00
C206   C     0.82776   0.19329   0.64910   0.00000  Uiso   1.00
C207   C     0.86214   0.15680   0.55511   0.00000  Uiso   1.00
H208   H     0.64630   0.08826   0.55011   0.00000  Uiso   1.00
H209   H     0.57003   0.16337   0.42217   0.00000  Uiso   1.00
H210   H     0.61102   0.02961   0.77937   0.00000  Uiso   1.00
H211   H     0.75012   0.05836   0.42675   0.00000  Uiso   1.00
H212   H     0.49763   0.26781   0.31526   0.00000  Uiso   1.00
H213   H     0.58408   0.98575   0.06842   0.00000  Uiso   1.00
H214   H     0.87741   0.04638   0.32485   0.00000  Uiso   1.00
H215   H     0.74014   0.25139   0.81896   0.00000  Uiso   1.00
H216   H     0.66902   0.33545   0.70576   0.00000  Uiso   1.00
H217   H     0.71001   0.20168   0.06296   0.00000  Uiso   1.00
H218   H     0.84911   0.23044   0.71034   0.00000  Uiso   1.00
H219   H     0.57798   0.40748   0.54544   0.00000  Uiso   1.00
H220   H     0.66443   0.12541   0.29860   0.00000  Uiso   1.00
H221   H     0.95775   0.18604   0.55503   0.00000  Uiso   1.00
O222   O     0.48931   0.39000   0.35107   0.00000  Uiso   1.00
O223   O     0.60274   0.01993   0.33919   0.00000  Uiso   1.00
O224   O     0.98757   0.09948   0.36364   0.00000  Uiso   1.00
N225   N     0.52631   0.28915   0.38494   0.00000  Uiso   1.00
N226   N     0.60713   0.02544   0.08911   0.00000  Uiso   1.00
N227   N     0.88136   0.08211   0.39396   0.00000  Uiso   1.00
N228   N     0.56954   0.36430   0.50880   0.00000  Uiso   1.00
N229   N     0.65036   0.10059   0.21296   0.00000  Uiso   1.00
N230   N     0.92460   0.15726   0.51782   0.00000  Uiso   1.00
C231   C     0.16780   0.62564   0.11170   0.00000  Uiso   1.00
C232   C     0.13938   0.68907   0.07946   0.00000  Uiso   1.00
C233   C     0.09139   0.70054   0.98337   0.00000  Uiso   1.00
C234   C     0.07197   0.76178   0.96918   0.00000  Uiso   1.00
C235   C     0.02362   0.85296   0.90713   0.00000  Uiso   1.00
C236   C     0.16164   0.61639   0.27354   0.00000  Uiso   1.00
C237   C     0.13238   0.56675   0.34062   0.00000  Uiso   1.00
C238   C     0.13171   0.56682   0.48981   0.00000  Uiso   1.00
C239   C     0.11796   0.54515   0.72907   0.00000  Uiso   1.00
C240   C     0.23721   0.63202   0.08194   0.00000  Uiso   1.00
C241   C     0.27151   0.59550   0.98795   0.00000  Uiso   1.00
C242   C     0.33447   0.60871   0.97585   0.00000  Uiso   1.00
C243   C     0.43806   0.61130   0.91762   0.00000  Uiso   1.00
C244   C     0.21864   0.71402   0.25736   0.00000  Uiso   1.00
C245   C     0.16699   0.73707   0.15858   0.00000  Uiso   1.00
C246   C     0.14764   0.79832   0.14452   0.00000  Uiso   1.00
C247   C     0.09964   0.80987   0.04843   0.00000  Uiso   1.00
C248   C     0.18925   0.66439   0.35265   0.00000  Uiso   1.00
C249   C     0.18863   0.66453   0.50178   0.00000  Uiso   1.00
C250   C     0.15938   0.61491   0.56907   0.00000  Uiso   1.00
C251   C     0.26483   0.68002   0.16105   0.00000  Uiso   1.00
C252   C     0.32776   0.69329   0.14910   0.00000  Uiso   1.00
C253   C     0.36214   0.65680   0.05511   0.00000  Uiso   1.00
H254   H     0.14630   0.58826   0.05011   0.00000  Uiso   1.00
H255   H     0.07003   0.66337   0.92217   0.00000  Uiso   1.00
H256   H     0.11102   0.52961   0.27937   0.00000  Uiso   1.00
H257   H     0.25012   0.55836   0.92675   0.00000  Uiso   1.00
H258   H     0.99763   0.76781   0.81526   0.00000  Uiso   1.00
H259   H     0.08408   0.48575   0.56842   0.00000  Uiso   1.00
H260   H     0.37741   0.54638   0.82485   0.00000  Uiso   1.00
H261   H     0.24014   0.75139   0.31896   0.00000  Uiso   1.00
H262   H     0.16902   0.83545   0.20576   0.00000  Uiso   1.00
H263   H     0.21001   0.70168   0.56296   0.00000  Uiso   1.00
H264   H     0.34911   0.73044   0.21034   0.00000  Uiso   1.00
H265   H     0.07798   0.90748   0.04544   0.00000  Uiso   1.00
H266   H     0.16443   0.62541   0.79860   0.00000  Uiso   1.00
H267   H     0.45775   0.68604   0.05503   0.00000  Uiso   1.00
O268   O     0.98931   0.89000   0.85107   0.00000  Uiso   1.00
O269   O     0.10274   0.51993   0.83919   0.00000  Uiso   1.00
O270   O     0.48757   0.59948   0.86364   0.00000  Uiso   1.00
N271   N     0.02631   0.78915   0.88494   0.00000  Uiso   1.00
N272   N     0.10713   0.52544   0.58911   0.00000  Uiso   1.00
N273   N     0.38136   0.58211   0.89396   0.00000  Uiso   1.00
N274   N     0.06954   0.86430   0.00880   0.00000  Uiso   1.00
N275   N     0.15036   0.60059   0.71296   0.00000  Uiso   1.00
N276   N     0.42460   0.65726   0.01782   0.00000  Uiso   1.00
C277   C     0.33220   0.87436   0.61170   0.00000  Uiso   1.00
C278   C     0.36062   0.81093   0.57946   0.00000  Uiso   1.00
C279   C     0.40861   0.79946   0.48337   0.00000  Uiso   1.00
C280   C     0.42803   0.73822   0.46918   0.00000  Uiso   1.00
C281   C     0.47638   0.64704   0.40713   0.00000  Uiso   1.00
C282   C     0.33836   0.88361   0.77354   0.00000  Uiso   1.00
C283   C     0.36762   0.93325   0.84062   0.00000  Uiso   1.00
C284   C     0.36829   0.93318   0.98981   0.00000  Uiso   1.00
C285   C     0.38204   0.95485   0.22907   0.00000  Uiso   1.00
C286   C     0.26279   0.86798   0.58194   0.00000  Uiso   1.00
C287   C     0.22849   0.90450   0.48795   0.00000  Uiso   1.00
C288   C     0.16553   0.89129   0.47585   0.00000  Uiso   1.00
C289   C     0.06194   0.88870   0.41762   0.00000  Uiso   1.00
C290   C     0.28136   0.78598   0.75736   0.00000  Uiso   1.00
C291   C     0.33301   0.76293   0.65858   0.00000  Uiso   1.00
C292   C     0.35236   0.70168   0.64452   0.00000  Uiso   1.00
C293   C     0.40036   0.69013   0.54843   0.00000  Uiso   1.00
C294   C     0.31075   0.83561   0.85265   0.00000  Uiso   1.00
C295   C     0.31137   0.83547   0.00178   0.00000  Uiso   1.00
C296   C     0.34062   0.88509   0.06907   0.00000  Uiso   1.00
C297   C     0.23517   0.81998   0.66105   0.00000  Uiso   1.00
C298   C     0.17224   0.80671   0.64910   0.00000  Uiso   1.00
C299   C     0.13786   0.84320   0.55511   0.00000  Uiso   1.00
H300   H     0.35370   0.91174   0.55011   0.00000  Uiso   1.00
H301   H     0.42997   0.83663   0.42217   0.00000  Uiso   1.00
H302   H     0.38898   0.97039   0.77937   0.00000  Uiso   1.00
H303   H     0.24988   0.94164   0.42675   0.00000  Uiso   1.00
H304   H     0.50237   0.73219   0.31526   0.00000  Uiso   1.00
H305   H     0.41592   0.01425   0.06842   0.00000  Uiso   1.00
H306   H     0.12259   0.95362   0.32485   0.00000  Uiso   1.00
H307   H     0.25986   0.74861   0.81896   0.00000  Uiso   1.00
H308   H     0.33098   0.66455   0.70576   0.00000  Uiso   1.00
H309   H     0.28999   0.79832   0.06296   0.00000  Uiso   1.00
H310   H     0.15089   0.76956   0.71034   0.00000  Uiso   1.00
H311   H     0.42202   0.59252   0.54544   0.00000  Uiso   1.00
H312   H     0.33557   0.87459   0.29860   0.00000  Uiso   1.00
H313   H     0.04225   0.81396   0.55503   0.00000  Uiso   1.00
O314   O     0.51069   0.61000   0.35107   0.00000  Uiso   1.00
O315   O     0.39726   0.98007   0.33919   0.00000  Uiso   1.00
O316   O     0.01243   0.90052   0.36364   0.00000  Uiso   1.00
N317   N     0.47369   0.71085   0.38494   0.00000  Uiso   1.00
N318   N     0.39287   0.97456   0.08911   0.00000  Uiso   1.00
N319   N     0.11864   0.91789   0.39396   0.00000  Uiso   1.00
N320   N     0.43046   0.63570   0.50880   0.00000  Uiso   1.00
N321   N     0.34964   0.89941   0.21296   0.00000  Uiso   1.00
N322   N     0.07540   0.84274   0.51782   0.00000  Uiso   1.00
C323   C     0.83220   0.37436   0.11170   0.00000  Uiso   1.00
C324   C     0.86062   0.31093   0.07946   0.00000  Uiso   1.00
C325   C     0.90861   0.29946   0.98337   0.00000  Uiso   1.00
C326   C     0.92803   0.23822   0.96918   0.00000  Uiso   1.00
C327   C     0.97638   0.14704   0.90713   0.00000  Uiso   1.00
C328   C     0.83836   0.38361   0.27354   0.00000  Uiso   1.00
C329   C     0.86762   0.43325   0.34062   0.00000  Uiso   1.00
C330   C     0.86829   0.43318   0.48981   0.00000  Uiso   1.00
C331   C     0.88204   0.45485   0.72907   0.00000  Uiso   1.00
C332   C     0.76279   0.36798   0.08194   0.00000  Uiso   1.00
C333   C     0.72849   0.40450   0.98795   0.00000  Uiso   1.00
C334   C     0.66553   0.39129   0.97585   0.00000  Uiso   1.00
C335   C     0.56194   0.38870   0.91762   0.00000  Uiso   1.00
C336   C     0.78136   0.28598   0.25736   0.00000  Uiso   1.00
C337   C     0.83301   0.26293   0.15858   0.00000  Uiso   1.00
C338   C     0.85236   0.20168   0.14452   0.00000  Uiso   1.00
C339   C     0.90036   0.19013   0.04843   0.00000  Uiso   1.00
C340   C     0.81075   0.33561   0.35265   0.00000  Uiso   1.00
C341   C     0.81137   0.33547   0.50178   0.00000  Uiso   1.00
C342   C     0.84062   0.38509   0.56907   0.00000  Uiso   1.00
C343   C     0.73517   0.31998   0.16105   0.00000  Uiso   1.00
C344   C     0.67224   0.30671   0.14910   0.00000  Uiso   1.00
C345   C     0.63786   0.34320   0.05511   0.00000  Uiso   1.00
H346   H     0.85370   0.41174   0.05011   0.00000  Uiso   1.00
H347   H     0.92997   0.33663   0.92217   0.00000  Uiso   1.00
H348   H     0.88898   0.47039   0.27937   0.00000  Uiso   1.00
H349   H     0.74988   0.44164   0.92675   0.00000  Uiso   1.00
H350   H     0.00237   0.23219   0.81526   0.00000  Uiso   1.00
H351   H     0.91592   0.51425   0.56842   0.00000  Uiso   1.00
H352   H     0.62259   0.45362   0.82485   0.00000  Uiso   1.00
H353   H     0.75986   0.24861   0.31896   0.00000  Uiso   1.00
H354   H     0.83098   0.16455   0.20576   0.00000  Uiso   1.00
H355   H     0.78999   0.29832   0.56296   0.00000  Uiso   1.00
H356   H     0.65089   0.26956   0.21034   0.00000  Uiso   1.00
H357   H     0.92202   0.09252   0.04544   0.00000  Uiso   1.00
H358   H     0.83557   0.37459   0.79860   0.00000  Uiso   1.00
H359   H     0.54225   0.31396   0.05503   0.00000  Uiso   1.00
O360   O     0.01069   0.11000   0.85107   0.00000  Uiso   1.00
O361   O     0.89726   0.48007   0.83919   0.00000  Uiso   1.00
O362   O     0.51243   0.40052   0.86364   0.00000  Uiso   1.00
N363   N     0.97369   0.21085   0.88494   0.00000  Uiso   1.00
N364   N     0.89287   0.47456   0.58911   0.00000  Uiso   1.00
N365   N     0.61864   0.41789   0.89396   0.00000  Uiso   1.00
N366   N     0.93046   0.13570   0.00880   0.00000  Uiso   1.00
N367   N     0.84964   0.39941   0.71296   0.00000  Uiso   1.00
N368   N     0.57540   0.34274   0.01782   0.00000  Uiso   1.00
