data_job_03131
_audit_creation_date              2018-12-19
_audit_creation_method            'Materials Studio'
_symmetry_space_group_name_H-M    'P1'
_symmetry_Int_Tables_number       1
_symmetry_cell_setting            triclinic
loop_
_symmetry_equiv_pos_as_xyz
  x,y,z
_cell_length_a                    15.0468
_cell_length_b                    15.0468
_cell_length_c                    13.2876
_cell_angle_alpha                 90.0000
_cell_angle_beta                  90.0000
_cell_angle_gamma                 90.0000
loop_
_atom_site_label
_atom_site_type_symbol
_atom_site_fract_x
_atom_site_fract_y
_atom_site_fract_z
_atom_site_U_iso_or_equiv
_atom_site_adp_type
_atom_site_occupancy
C1     C     0.43797   0.77115   0.47850   0.00000  Uiso   1.00
C2     C     0.46988   0.78811   0.58573   0.00000  Uiso   1.00
C3     C     0.42678   0.84003   0.65692   0.00000  Uiso   1.00
C4     C     0.46675   0.84726   0.75074   0.00000  Uiso   1.00
C5     C     0.50412   0.88020   0.91391   0.00000  Uiso   1.00
C6     C     0.51368   0.80039   0.40976   0.00000  Uiso   1.00
C7     C     0.50740   0.86262   0.33300   0.00000  Uiso   1.00
C8     C     0.58425   0.88018   0.27868   0.00000  Uiso   1.00
C9     C     0.68959   0.93213   0.16862   0.00000  Uiso   1.00
C10    C     0.43154   0.67048   0.46743   0.00000  Uiso   1.00
C11    C     0.35621   0.62349   0.43914   0.00000  Uiso   1.00
C12    C     0.36391   0.53168   0.43335   0.00000  Uiso   1.00
C13    C     0.34173   0.38194   0.41282   0.00000  Uiso   1.00
C14    C     0.58561   0.69166   0.51851   0.00000  Uiso   1.00
C15    C     0.55007   0.74493   0.60745   0.00000  Uiso   1.00
C16    C     0.59012   0.75208   0.70119   0.00000  Uiso   1.00
C17    C     0.54708   0.80400   0.77251   0.00000  Uiso   1.00
C18    C     0.59386   0.75721   0.43149   0.00000  Uiso   1.00
C19    C     0.67074   0.77468   0.37726   0.00000  Uiso   1.00
C20    C     0.66458   0.83693   0.30045   0.00000  Uiso   1.00
C21    C     0.51173   0.62730   0.48916   0.00000  Uiso   1.00
C22    C     0.51955   0.53555   0.48340   0.00000  Uiso   1.00
C23    C     0.44425   0.48843   0.45511   0.00000  Uiso   1.00
H24    H     0.37555   0.80476   0.46158   0.00000  Uiso   1.00
H25    H     0.36473   0.87344   0.64008   0.00000  Uiso   1.00
H26    H     0.44534   0.89602   0.31620   0.00000  Uiso   1.00
H27    H     0.29417   0.65693   0.42233   0.00000  Uiso   1.00
H28    H     0.38811   0.93056   0.84754   0.00000  Uiso   1.00
H29    H     0.55807   0.97815   0.16461   0.00000  Uiso   1.00
H30    H     0.23931   0.47398   0.38839   0.00000  Uiso   1.00
H31    H     0.64804   0.65804   0.53542   0.00000  Uiso   1.00
H32    H     0.65217   0.71866   0.71798   0.00000  Uiso   1.00
H33    H     0.73278   0.74125   0.39410   0.00000  Uiso   1.00
H34    H     0.58161   0.50216   0.50022   0.00000  Uiso   1.00
H35    H     0.62141   0.80494   0.91077   0.00000  Uiso   1.00
H36    H     0.79137   0.85253   0.22783   0.00000  Uiso   1.00
H37    H     0.47261   0.34836   0.45162   0.00000  Uiso   1.00
O38    O     0.50258   0.91030   0.99790   0.00000  Uiso   1.00
O39    O     0.72555   0.97273   0.10191   0.00000  Uiso   1.00
O40    O     0.30735   0.31127   0.39551   0.00000  Uiso   1.00
N41    N     0.44244   0.89266   0.83738   0.00000  Uiso   1.00
N42    N     0.60135   0.93717   0.19888   0.00000  Uiso   1.00
N43    N     0.30334   0.46581   0.40808   0.00000  Uiso   1.00
N44    N     0.56798   0.82507   0.87140   0.00000  Uiso   1.00
N45    N     0.72688   0.86957   0.23291   0.00000  Uiso   1.00
N46    N     0.42888   0.39822   0.44210   0.00000  Uiso   1.00
C47    C     0.56203   0.22885   0.97850   0.00000  Uiso   1.00
C48    C     0.53012   0.21189   0.08573   0.00000  Uiso   1.00
C49    C     0.57322   0.15997   0.15692   0.00000  Uiso   1.00
C50    C     0.53325   0.15274   0.25074   0.00000  Uiso   1.00
C51    C     0.49588   0.11980   0.41391   0.00000  Uiso   1.00
C52    C     0.48632   0.19961   0.90976   0.00000  Uiso   1.00
C53    C     0.49260   0.13738   0.83300   0.00000  Uiso   1.00
C54    C     0.41575   0.11982   0.77868   0.00000  Uiso   1.00
C55    C     0.31041   0.06787   0.66862   0.00000  Uiso   1.00
C56    C     0.56846   0.32952   0.96743   0.00000  Uiso   1.00
C57    C     0.64379   0.37651   0.93914   0.00000  Uiso   1.00
C58    C     0.63609   0.46832   0.93335   0.00000  Uiso   1.00
C59    C     0.65827   0.61806   0.91282   0.00000  Uiso   1.00
C60    C     0.41439   0.30834   0.01851   0.00000  Uiso   1.00
C61    C     0.44993   0.25507   0.10745   0.00000  Uiso   1.00
C62    C     0.40988   0.24792   0.20119   0.00000  Uiso   1.00
C63    C     0.45292   0.19600   0.27251   0.00000  Uiso   1.00
C64    C     0.40614   0.24279   0.93149   0.00000  Uiso   1.00
C65    C     0.32926   0.22532   0.87726   0.00000  Uiso   1.00
C66    C     0.33542   0.16307   0.80045   0.00000  Uiso   1.00
C67    C     0.48827   0.37270   0.98916   0.00000  Uiso   1.00
C68    C     0.48045   0.46445   0.98340   0.00000  Uiso   1.00
C69    C     0.55575   0.51157   0.95511   0.00000  Uiso   1.00
H70    H     0.62445   0.19524   0.96158   0.00000  Uiso   1.00
H71    H     0.63527   0.12656   0.14008   0.00000  Uiso   1.00
H72    H     0.55466   0.10398   0.81620   0.00000  Uiso   1.00
H73    H     0.70583   0.34307   0.92233   0.00000  Uiso   1.00
H74    H     0.61189   0.06944   0.34754   0.00000  Uiso   1.00
H75    H     0.44193   0.02185   0.66461   0.00000  Uiso   1.00
H76    H     0.76069   0.52602   0.88839   0.00000  Uiso   1.00
H77    H     0.35196   0.34196   0.03542   0.00000  Uiso   1.00
H78    H     0.34783   0.28134   0.21798   0.00000  Uiso   1.00
H79    H     0.26722   0.25875   0.89410   0.00000  Uiso   1.00
H80    H     0.41839   0.49784   0.00022   0.00000  Uiso   1.00
H81    H     0.37859   0.19506   0.41077   0.00000  Uiso   1.00
H82    H     0.20863   0.14747   0.72783   0.00000  Uiso   1.00
H83    H     0.52739   0.65164   0.95162   0.00000  Uiso   1.00
O84    O     0.49742   0.08970   0.49790   0.00000  Uiso   1.00
O85    O     0.27445   0.02727   0.60191   0.00000  Uiso   1.00
O86    O     0.69265   0.68873   0.89551   0.00000  Uiso   1.00
N87    N     0.55756   0.10734   0.33738   0.00000  Uiso   1.00
N88    N     0.39865   0.06283   0.69888   0.00000  Uiso   1.00
N89    N     0.69666   0.53419   0.90808   0.00000  Uiso   1.00
N90    N     0.43202   0.17493   0.37140   0.00000  Uiso   1.00
N91    N     0.27312   0.13043   0.73291   0.00000  Uiso   1.00
N92    N     0.57112   0.60178   0.94210   0.00000  Uiso   1.00
C93    C     0.22885   0.43797   0.72850   0.00000  Uiso   1.00
C94    C     0.21189   0.46988   0.83573   0.00000  Uiso   1.00
C95    C     0.15997   0.42678   0.90692   0.00000  Uiso   1.00
C96    C     0.15274   0.46675   0.00074   0.00000  Uiso   1.00
C97    C     0.11980   0.50412   0.16391   0.00000  Uiso   1.00
C98    C     0.19961   0.51368   0.65976   0.00000  Uiso   1.00
C99    C     0.13738   0.50740   0.58300   0.00000  Uiso   1.00
C100   C     0.11982   0.58425   0.52868   0.00000  Uiso   1.00
C101   C     0.06787   0.68959   0.41862   0.00000  Uiso   1.00
C102   C     0.32952   0.43154   0.71743   0.00000  Uiso   1.00
C103   C     0.37651   0.35621   0.68914   0.00000  Uiso   1.00
C104   C     0.46832   0.36391   0.68335   0.00000  Uiso   1.00
C105   C     0.61806   0.34173   0.66282   0.00000  Uiso   1.00
C106   C     0.30834   0.58561   0.76851   0.00000  Uiso   1.00
C107   C     0.25507   0.55007   0.85745   0.00000  Uiso   1.00
C108   C     0.24792   0.59012   0.95119   0.00000  Uiso   1.00
C109   C     0.19600   0.54708   0.02251   0.00000  Uiso   1.00
C110   C     0.24279   0.59386   0.68149   0.00000  Uiso   1.00
C111   C     0.22532   0.67074   0.62726   0.00000  Uiso   1.00
C112   C     0.16307   0.66458   0.55045   0.00000  Uiso   1.00
C113   C     0.37270   0.51173   0.73916   0.00000  Uiso   1.00
C114   C     0.46445   0.51955   0.73340   0.00000  Uiso   1.00
C115   C     0.51157   0.44425   0.70511   0.00000  Uiso   1.00
H116   H     0.19524   0.37555   0.71158   0.00000  Uiso   1.00
H117   H     0.12656   0.36473   0.89008   0.00000  Uiso   1.00
H118   H     0.10398   0.44534   0.56620   0.00000  Uiso   1.00
H119   H     0.34307   0.29417   0.67233   0.00000  Uiso   1.00
H120   H     0.06944   0.38811   0.09754   0.00000  Uiso   1.00
H121   H     0.02185   0.55807   0.41461   0.00000  Uiso   1.00
H122   H     0.52602   0.23931   0.63839   0.00000  Uiso   1.00
H123   H     0.34196   0.64804   0.78542   0.00000  Uiso   1.00
H124   H     0.28134   0.65217   0.96798   0.00000  Uiso   1.00
H125   H     0.25875   0.73278   0.64410   0.00000  Uiso   1.00
H126   H     0.49784   0.58161   0.75022   0.00000  Uiso   1.00
H127   H     0.19506   0.62141   0.16077   0.00000  Uiso   1.00
H128   H     0.14747   0.79137   0.47783   0.00000  Uiso   1.00
H129   H     0.65164   0.47261   0.70162   0.00000  Uiso   1.00
O130   O     0.08970   0.50258   0.24790   0.00000  Uiso   1.00
O131   O     0.02727   0.72555   0.35191   0.00000  Uiso   1.00
O132   O     0.68873   0.30735   0.64551   0.00000  Uiso   1.00
N133   N     0.10734   0.44244   0.08738   0.00000  Uiso   1.00
N134   N     0.06283   0.60135   0.44888   0.00000  Uiso   1.00
N135   N     0.53419   0.30334   0.65808   0.00000  Uiso   1.00
N136   N     0.17493   0.56798   0.12140   0.00000  Uiso   1.00
N137   N     0.13043   0.72688   0.48291   0.00000  Uiso   1.00
N138   N     0.60178   0.42888   0.69210   0.00000  Uiso   1.00
C139   C     0.77115   0.56203   0.22850   0.00000  Uiso   1.00
C140   C     0.78811   0.53012   0.33573   0.00000  Uiso   1.00
C141   C     0.84003   0.57322   0.40692   0.00000  Uiso   1.00
C142   C     0.84726   0.53325   0.50074   0.00000  Uiso   1.00
C143   C     0.88020   0.49588   0.66391   0.00000  Uiso   1.00
C144   C     0.80039   0.48632   0.15976   0.00000  Uiso   1.00
C145   C     0.86262   0.49260   0.08300   0.00000  Uiso   1.00
C146   C     0.88018   0.41575   0.02868   0.00000  Uiso   1.00
C147   C     0.93213   0.31041   0.91862   0.00000  Uiso   1.00
C148   C     0.67048   0.56846   0.21743   0.00000  Uiso   1.00
C149   C     0.62349   0.64379   0.18914   0.00000  Uiso   1.00
C150   C     0.53168   0.63609   0.18335   0.00000  Uiso   1.00
C151   C     0.38194   0.65827   0.16282   0.00000  Uiso   1.00
C152   C     0.69166   0.41439   0.26851   0.00000  Uiso   1.00
C153   C     0.74493   0.44993   0.35745   0.00000  Uiso   1.00
C154   C     0.75208   0.40988   0.45119   0.00000  Uiso   1.00
C155   C     0.80400   0.45292   0.52251   0.00000  Uiso   1.00
C156   C     0.75721   0.40614   0.18149   0.00000  Uiso   1.00
C157   C     0.77468   0.32926   0.12726   0.00000  Uiso   1.00
C158   C     0.83693   0.33542   0.05045   0.00000  Uiso   1.00
C159   C     0.62730   0.48827   0.23916   0.00000  Uiso   1.00
C160   C     0.53555   0.48045   0.23340   0.00000  Uiso   1.00
C161   C     0.48843   0.55575   0.20511   0.00000  Uiso   1.00
H162   H     0.80476   0.62445   0.21158   0.00000  Uiso   1.00
H163   H     0.87344   0.63527   0.39008   0.00000  Uiso   1.00
H164   H     0.89602   0.55466   0.06620   0.00000  Uiso   1.00
H165   H     0.65693   0.70583   0.17233   0.00000  Uiso   1.00
H166   H     0.93056   0.61189   0.59754   0.00000  Uiso   1.00
H167   H     0.97815   0.44193   0.91461   0.00000  Uiso   1.00
H168   H     0.47398   0.76069   0.13839   0.00000  Uiso   1.00
H169   H     0.65804   0.35196   0.28542   0.00000  Uiso   1.00
H170   H     0.71866   0.34783   0.46798   0.00000  Uiso   1.00
H171   H     0.74125   0.26722   0.14410   0.00000  Uiso   1.00
H172   H     0.50216   0.41839   0.25022   0.00000  Uiso   1.00
H173   H     0.80494   0.37859   0.66077   0.00000  Uiso   1.00
H174   H     0.85253   0.20863   0.97783   0.00000  Uiso   1.00
H175   H     0.34836   0.52739   0.20162   0.00000  Uiso   1.00
O176   O     0.91030   0.49742   0.74790   0.00000  Uiso   1.00
O177   O     0.97273   0.27445   0.85191   0.00000  Uiso   1.00
O178   O     0.31127   0.69265   0.14551   0.00000  Uiso   1.00
N179   N     0.89266   0.55756   0.58738   0.00000  Uiso   1.00
N180   N     0.93717   0.39865   0.94888   0.00000  Uiso   1.00
N181   N     0.46581   0.69666   0.15808   0.00000  Uiso   1.00
N182   N     0.82507   0.43202   0.62140   0.00000  Uiso   1.00
N183   N     0.86957   0.27312   0.98291   0.00000  Uiso   1.00
N184   N     0.39822   0.57112   0.19210   0.00000  Uiso   1.00
