data_job_00272
_audit_creation_date              2018-12-19
_audit_creation_method            'Materials Studio'
_symmetry_space_group_name_H-M    'P1'
_symmetry_Int_Tables_number       1
_symmetry_cell_setting            triclinic
loop_
_symmetry_equiv_pos_as_xyz
  x,y,z
_cell_length_a                    9.6331
_cell_length_b                    12.9063
_cell_length_c                    23.2953
_cell_angle_alpha                 90.0000
_cell_angle_beta                  126.0690
_cell_angle_gamma                 90.0000
loop_
_atom_site_label
_atom_site_type_symbol
_atom_site_fract_x
_atom_site_fract_y
_atom_site_fract_z
_atom_site_U_iso_or_equiv
_atom_site_adp_type
_atom_site_occupancy
C1     C     0.48609   0.38590   0.24528   0.00000  Uiso   1.00
C2     C     0.44673   0.44364   0.29128   0.00000  Uiso   1.00
C3     C     0.29636   0.43554   0.28633   0.00000  Uiso   1.00
C4     C     0.28519   0.49478   0.33322   0.00000  Uiso   1.00
C5     C     0.20358   0.57459   0.39701   0.00000  Uiso   1.00
C6     C     0.52820   0.46888   0.21111   0.00000  Uiso   1.00
C7     C     0.44634   0.48200   0.13876   0.00000  Uiso   1.00
C8     C     0.50377   0.56248   0.11817   0.00000  Uiso   1.00
C9     C     0.54873   0.68143   0.05750   0.00000  Uiso   1.00
C10    C     0.65299   0.32716   0.29655   0.00000  Uiso   1.00
C11    C     0.67609   0.22111   0.29603   0.00000  Uiso   1.00
C12    C     0.83861   0.18227   0.34737   0.00000  Uiso   1.00
C13    C     0.07733   0.08117   0.41936   0.00000  Uiso   1.00
C14    C     0.73367   0.50550   0.33736   0.00000  Uiso   1.00
C15    C     0.58121   0.50860   0.34129   0.00000  Uiso   1.00
C16    C     0.57027   0.56787   0.38820   0.00000  Uiso   1.00
C17    C     0.41991   0.55986   0.38332   0.00000  Uiso   1.00
C18    C     0.66267   0.53384   0.26112   0.00000  Uiso   1.00
C19    C     0.72025   0.61432   0.24063   0.00000  Uiso   1.00
C20    C     0.63849   0.62756   0.16827   0.00000  Uiso   1.00
C21    C     0.78747   0.39212   0.34657   0.00000  Uiso   1.00
C22    C     0.95000   0.35343   0.39791   0.00000  Uiso   1.00
C23    C     0.97333   0.24735   0.39747   0.00000  Uiso   1.00
H24    H     0.38140   0.33533   0.20634   0.00000  Uiso   1.00
H25    H     0.19231   0.38527   0.24761   0.00000  Uiso   1.00
H26    H     0.34229   0.43171   0.10007   0.00000  Uiso   1.00
H27    H     0.57199   0.17086   0.25732   0.00000  Uiso   1.00
H28    H     0.04195   0.46931   0.31541   0.00000  Uiso   1.00
H29    H     0.35822   0.56721   0.00431   0.00000  Uiso   1.00
H30    H     0.84261   0.01716   0.33590   0.00000  Uiso   1.00
H31    H     0.83837   0.55608   0.37629   0.00000  Uiso   1.00
H32    H     0.67436   0.61813   0.42690   0.00000  Uiso   1.00
H33    H     0.82432   0.66457   0.27935   0.00000  Uiso   1.00
H34    H     0.05403   0.40373   0.43660   0.00000  Uiso   1.00
H35    H     0.43319   0.65832   0.46092   0.00000  Uiso   1.00
H36    H     0.74946   0.75621   0.14981   0.00000  Uiso   1.00
H37    H     0.23385   0.20617   0.48141   0.00000  Uiso   1.00
O38    O     0.12141   0.60068   0.41837   0.00000  Uiso   1.00
O39    O     0.53636   0.72910   0.01021   0.00000  Uiso   1.00
O40    O     0.17186   0.00745   0.44526   0.00000  Uiso   1.00
N41    N     0.15655   0.50526   0.34272   0.00000  Uiso   1.00
N42    N     0.45222   0.59680   0.05186   0.00000  Uiso   1.00
N43    N     0.90510   0.08256   0.36186   0.00000  Uiso   1.00
N44    N     0.36708   0.60696   0.42102   0.00000  Uiso   1.00
N45    N     0.66275   0.69850   0.13015   0.00000  Uiso   1.00
N46    N     0.11562   0.18426   0.44015   0.00000  Uiso   1.00
C47    C     0.51391   0.88590   0.25472   0.00000  Uiso   1.00
C48    C     0.55327   0.94364   0.20872   0.00000  Uiso   1.00
C49    C     0.70364   0.93554   0.21367   0.00000  Uiso   1.00
C50    C     0.71481   0.99478   0.16678   0.00000  Uiso   1.00
C51    C     0.79642   0.07459   0.10299   0.00000  Uiso   1.00
C52    C     0.47180   0.96888   0.28889   0.00000  Uiso   1.00
C53    C     0.55366   0.98200   0.36124   0.00000  Uiso   1.00
C54    C     0.49623   0.06248   0.38183   0.00000  Uiso   1.00
C55    C     0.45127   0.18143   0.44250   0.00000  Uiso   1.00
C56    C     0.34701   0.82716   0.20345   0.00000  Uiso   1.00
C57    C     0.32391   0.72111   0.20397   0.00000  Uiso   1.00
C58    C     0.16139   0.68227   0.15263   0.00000  Uiso   1.00
C59    C     0.92267   0.58117   0.08064   0.00000  Uiso   1.00
C60    C     0.26633   0.00550   0.16264   0.00000  Uiso   1.00
C61    C     0.41879   0.00860   0.15871   0.00000  Uiso   1.00
C62    C     0.42973   0.06787   0.11180   0.00000  Uiso   1.00
C63    C     0.58009   0.05986   0.11668   0.00000  Uiso   1.00
C64    C     0.33733   0.03384   0.23888   0.00000  Uiso   1.00
C65    C     0.27975   0.11432   0.25937   0.00000  Uiso   1.00
C66    C     0.36151   0.12756   0.33173   0.00000  Uiso   1.00
C67    C     0.21253   0.89212   0.15343   0.00000  Uiso   1.00
C68    C     0.05000   0.85343   0.10209   0.00000  Uiso   1.00
C69    C     0.02667   0.74735   0.10253   0.00000  Uiso   1.00
H70    H     0.61860   0.83533   0.29366   0.00000  Uiso   1.00
H71    H     0.80769   0.88527   0.25239   0.00000  Uiso   1.00
H72    H     0.65771   0.93171   0.39993   0.00000  Uiso   1.00
H73    H     0.42801   0.67086   0.24268   0.00000  Uiso   1.00
H74    H     0.95805   0.96931   0.18459   0.00000  Uiso   1.00
H75    H     0.64178   0.06721   0.49569   0.00000  Uiso   1.00
H76    H     0.15739   0.51716   0.16410   0.00000  Uiso   1.00
H77    H     0.16163   0.05608   0.12371   0.00000  Uiso   1.00
H78    H     0.32564   0.11813   0.07310   0.00000  Uiso   1.00
H79    H     0.17568   0.16457   0.22065   0.00000  Uiso   1.00
H80    H     0.94597   0.90373   0.06340   0.00000  Uiso   1.00
H81    H     0.56681   0.15832   0.03908   0.00000  Uiso   1.00
H82    H     0.25054   0.25621   0.35019   0.00000  Uiso   1.00
H83    H     0.76615   0.70617   0.01859   0.00000  Uiso   1.00
O84    O     0.87859   0.10068   0.08163   0.00000  Uiso   1.00
O85    O     0.46364   0.22910   0.48979   0.00000  Uiso   1.00
O86    O     0.82814   0.50745   0.05474   0.00000  Uiso   1.00
N87    N     0.84345   0.00526   0.15728   0.00000  Uiso   1.00
N88    N     0.54778   0.09680   0.44814   0.00000  Uiso   1.00
N89    N     0.09490   0.58256   0.13814   0.00000  Uiso   1.00
N90    N     0.63292   0.10696   0.07898   0.00000  Uiso   1.00
N91    N     0.33725   0.19850   0.36985   0.00000  Uiso   1.00
N92    N     0.88438   0.68426   0.05985   0.00000  Uiso   1.00
C93    C     0.51391   0.61410   0.75472   0.00000  Uiso   1.00
C94    C     0.55327   0.55636   0.70872   0.00000  Uiso   1.00
C95    C     0.70364   0.56446   0.71367   0.00000  Uiso   1.00
C96    C     0.71481   0.50522   0.66678   0.00000  Uiso   1.00
C97    C     0.79642   0.42541   0.60299   0.00000  Uiso   1.00
C98    C     0.47180   0.53112   0.78889   0.00000  Uiso   1.00
C99    C     0.55366   0.51800   0.86124   0.00000  Uiso   1.00
C100   C     0.49623   0.43752   0.88183   0.00000  Uiso   1.00
C101   C     0.45127   0.31857   0.94250   0.00000  Uiso   1.00
C102   C     0.34701   0.67284   0.70345   0.00000  Uiso   1.00
C103   C     0.32391   0.77889   0.70397   0.00000  Uiso   1.00
C104   C     0.16139   0.81773   0.65263   0.00000  Uiso   1.00
C105   C     0.92267   0.91883   0.58064   0.00000  Uiso   1.00
C106   C     0.26633   0.49450   0.66264   0.00000  Uiso   1.00
C107   C     0.41879   0.49140   0.65871   0.00000  Uiso   1.00
C108   C     0.42973   0.43213   0.61180   0.00000  Uiso   1.00
C109   C     0.58009   0.44014   0.61668   0.00000  Uiso   1.00
C110   C     0.33733   0.46616   0.73888   0.00000  Uiso   1.00
C111   C     0.27975   0.38568   0.75937   0.00000  Uiso   1.00
C112   C     0.36151   0.37244   0.83173   0.00000  Uiso   1.00
C113   C     0.21253   0.60788   0.65343   0.00000  Uiso   1.00
C114   C     0.05000   0.64657   0.60209   0.00000  Uiso   1.00
C115   C     0.02667   0.75265   0.60253   0.00000  Uiso   1.00
H116   H     0.61860   0.66467   0.79366   0.00000  Uiso   1.00
H117   H     0.80769   0.61473   0.75239   0.00000  Uiso   1.00
H118   H     0.65771   0.56829   0.89993   0.00000  Uiso   1.00
H119   H     0.42801   0.82914   0.74268   0.00000  Uiso   1.00
H120   H     0.95805   0.53069   0.68459   0.00000  Uiso   1.00
H121   H     0.64178   0.43279   0.99569   0.00000  Uiso   1.00
H122   H     0.15739   0.98284   0.66410   0.00000  Uiso   1.00
H123   H     0.16163   0.44392   0.62371   0.00000  Uiso   1.00
H124   H     0.32564   0.38187   0.57310   0.00000  Uiso   1.00
H125   H     0.17568   0.33543   0.72065   0.00000  Uiso   1.00
H126   H     0.94597   0.59627   0.56340   0.00000  Uiso   1.00
H127   H     0.56681   0.34168   0.53908   0.00000  Uiso   1.00
H128   H     0.25054   0.24379   0.85019   0.00000  Uiso   1.00
H129   H     0.76615   0.79383   0.51859   0.00000  Uiso   1.00
O130   O     0.87859   0.39932   0.58163   0.00000  Uiso   1.00
O131   O     0.46364   0.27090   0.98979   0.00000  Uiso   1.00
O132   O     0.82814   0.99255   0.55474   0.00000  Uiso   1.00
N133   N     0.84345   0.49474   0.65728   0.00000  Uiso   1.00
N134   N     0.54778   0.40320   0.94814   0.00000  Uiso   1.00
N135   N     0.09490   0.91744   0.63814   0.00000  Uiso   1.00
N136   N     0.63292   0.39304   0.57898   0.00000  Uiso   1.00
N137   N     0.33725   0.30150   0.86985   0.00000  Uiso   1.00
N138   N     0.88438   0.81574   0.55985   0.00000  Uiso   1.00
C139   C     0.48609   0.11410   0.74528   0.00000  Uiso   1.00
C140   C     0.44673   0.05636   0.79128   0.00000  Uiso   1.00
C141   C     0.29636   0.06446   0.78633   0.00000  Uiso   1.00
C142   C     0.28519   0.00522   0.83322   0.00000  Uiso   1.00
C143   C     0.20358   0.92541   0.89701   0.00000  Uiso   1.00
C144   C     0.52820   0.03112   0.71111   0.00000  Uiso   1.00
C145   C     0.44634   0.01800   0.63876   0.00000  Uiso   1.00
C146   C     0.50377   0.93752   0.61817   0.00000  Uiso   1.00
C147   C     0.54873   0.81857   0.55750   0.00000  Uiso   1.00
C148   C     0.65299   0.17284   0.79655   0.00000  Uiso   1.00
C149   C     0.67609   0.27889   0.79603   0.00000  Uiso   1.00
C150   C     0.83861   0.31773   0.84737   0.00000  Uiso   1.00
C151   C     0.07733   0.41883   0.91936   0.00000  Uiso   1.00
C152   C     0.73367   0.99450   0.83736   0.00000  Uiso   1.00
C153   C     0.58121   0.99140   0.84129   0.00000  Uiso   1.00
C154   C     0.57027   0.93213   0.88820   0.00000  Uiso   1.00
C155   C     0.41991   0.94014   0.88332   0.00000  Uiso   1.00
C156   C     0.66267   0.96616   0.76112   0.00000  Uiso   1.00
C157   C     0.72025   0.88568   0.74063   0.00000  Uiso   1.00
C158   C     0.63849   0.87244   0.66827   0.00000  Uiso   1.00
C159   C     0.78747   0.10788   0.84657   0.00000  Uiso   1.00
C160   C     0.95000   0.14657   0.89791   0.00000  Uiso   1.00
C161   C     0.97333   0.25265   0.89747   0.00000  Uiso   1.00
H162   H     0.38140   0.16467   0.70634   0.00000  Uiso   1.00
H163   H     0.19231   0.11473   0.74761   0.00000  Uiso   1.00
H164   H     0.34229   0.06829   0.60007   0.00000  Uiso   1.00
H165   H     0.57199   0.32914   0.75732   0.00000  Uiso   1.00
H166   H     0.04195   0.03069   0.81541   0.00000  Uiso   1.00
H167   H     0.35822   0.93279   0.50431   0.00000  Uiso   1.00
H168   H     0.84261   0.48284   0.83590   0.00000  Uiso   1.00
H169   H     0.83837   0.94392   0.87629   0.00000  Uiso   1.00
H170   H     0.67436   0.88187   0.92690   0.00000  Uiso   1.00
H171   H     0.82432   0.83543   0.77935   0.00000  Uiso   1.00
H172   H     0.05403   0.09627   0.93660   0.00000  Uiso   1.00
H173   H     0.43319   0.84168   0.96092   0.00000  Uiso   1.00
H174   H     0.74946   0.74379   0.64981   0.00000  Uiso   1.00
H175   H     0.23385   0.29383   0.98141   0.00000  Uiso   1.00
O176   O     0.12141   0.89932   0.91837   0.00000  Uiso   1.00
O177   O     0.53636   0.77090   0.51021   0.00000  Uiso   1.00
O178   O     0.17186   0.49255   0.94526   0.00000  Uiso   1.00
N179   N     0.15655   0.99474   0.84272   0.00000  Uiso   1.00
N180   N     0.45222   0.90320   0.55186   0.00000  Uiso   1.00
N181   N     0.90510   0.41744   0.86186   0.00000  Uiso   1.00
N182   N     0.36708   0.89304   0.92102   0.00000  Uiso   1.00
N183   N     0.66275   0.80150   0.63015   0.00000  Uiso   1.00
N184   N     0.11562   0.31574   0.94015   0.00000  Uiso   1.00
