data_job_01147
_audit_creation_date              2018-12-19
_audit_creation_method            'Materials Studio'
_symmetry_space_group_name_H-M    'P1'
_symmetry_Int_Tables_number       1
_symmetry_cell_setting            triclinic
loop_
_symmetry_equiv_pos_as_xyz
  x,y,z
_cell_length_a                    24.4542
_cell_length_b                    17.7727
_cell_length_c                    11.9157
_cell_angle_alpha                 90.0000
_cell_angle_beta                  90.0000
_cell_angle_gamma                 90.0000
loop_
_atom_site_label
_atom_site_type_symbol
_atom_site_fract_x
_atom_site_fract_y
_atom_site_fract_z
_atom_site_U_iso_or_equiv
_atom_site_adp_type
_atom_site_occupancy
C1     C     0.14904   0.15873   0.07748   0.00000  Uiso   1.00
C2     C     0.09691   0.20571   0.08195   0.00000  Uiso   1.00
C3     C     0.09328   0.27982   0.11786   0.00000  Uiso   1.00
C4     C     0.04185   0.31289   0.11562   0.00000  Uiso   1.00
C5     C     0.96791   0.39187   0.12822   0.00000  Uiso   1.00
C6     C     0.13770   0.08863   0.14752   0.00000  Uiso   1.00
C7     C     0.16837   0.06430   0.23855   0.00000  Uiso   1.00
C8     C     0.15128   0.99880   0.29149   0.00000  Uiso   1.00
C9     C     0.14070   0.89598   0.40584   0.00000  Uiso   1.00
C10    C     0.15435   0.13176   0.95648   0.00000  Uiso   1.00
C11    C     0.19903   0.14367   0.88689   0.00000  Uiso   1.00
C12    C     0.19596   0.11446   0.77900   0.00000  Uiso   1.00
C13    C     0.21123   0.07861   0.59673   0.00000  Uiso   1.00
C14    C     0.06417   0.08566   0.00963   0.00000  Uiso   1.00
C15    C     0.05081   0.16602   0.04510   0.00000  Uiso   1.00
C16    C     0.99937   0.19899   0.04280   0.00000  Uiso   1.00
C17    C     0.99567   0.27313   0.07870   0.00000  Uiso   1.00
C18    C     0.09160   0.04894   0.11067   0.00000  Uiso   1.00
C19    C     0.07447   0.98346   0.16349   0.00000  Uiso   1.00
C20    C     0.10510   0.95904   0.25458   0.00000  Uiso   1.00
C21    C     0.10825   0.09207   0.91963   0.00000  Uiso   1.00
C22    C     0.10512   0.06283   0.81183   0.00000  Uiso   1.00
C23    C     0.14978   0.07470   0.74208   0.00000  Uiso   1.00
H24    H     0.18493   0.18962   0.10617   0.00000  Uiso   1.00
H25    H     0.12896   0.31052   0.14638   0.00000  Uiso   1.00
H26    H     0.20405   0.09502   0.26704   0.00000  Uiso   1.00
H27    H     0.23469   0.17438   0.91544   0.00000  Uiso   1.00
H28    H     0.04657   0.42704   0.17475   0.00000  Uiso   1.00
H29    H     0.20490   0.97264   0.42914   0.00000  Uiso   1.00
H30    H     0.26953   0.13999   0.68772   0.00000  Uiso   1.00
H31    H     0.02828   0.05476   0.98094   0.00000  Uiso   1.00
H32    H     0.96371   0.16826   0.01427   0.00000  Uiso   1.00
H33    H     0.03879   0.95276   0.13494   0.00000  Uiso   1.00
H34    H     0.06944   0.03213   0.78334   0.00000  Uiso   1.00
H35    H     0.91245   0.31158   0.06753   0.00000  Uiso   1.00
H36    H     0.07078   0.85718   0.32193   0.00000  Uiso   1.00
H37    H     0.13541   0.02453   0.58050   0.00000  Uiso   1.00
O38    O     0.93986   0.44640   0.14537   0.00000  Uiso   1.00
O39    O     0.14759   0.85024   0.47911   0.00000  Uiso   1.00
O40    O     0.23238   0.06980   0.50638   0.00000  Uiso   1.00
N41    N     0.02387   0.38430   0.14492   0.00000  Uiso   1.00
N42    N     0.17190   0.95947   0.38278   0.00000  Uiso   1.00
N43    N     0.23232   0.11591   0.68961   0.00000  Uiso   1.00
N44    N     0.95170   0.32217   0.08723   0.00000  Uiso   1.00
N45    N     0.09972   0.89734   0.32508   0.00000  Uiso   1.00
N46    N     0.16015   0.05378   0.63192   0.00000  Uiso   1.00
C47    C     0.35096   0.84127   0.07748   0.00000  Uiso   1.00
C48    C     0.40309   0.79429   0.08195   0.00000  Uiso   1.00
C49    C     0.40672   0.72018   0.11786   0.00000  Uiso   1.00
C50    C     0.45815   0.68711   0.11562   0.00000  Uiso   1.00
C51    C     0.53209   0.60813   0.12822   0.00000  Uiso   1.00
C52    C     0.36230   0.91137   0.14752   0.00000  Uiso   1.00
C53    C     0.33163   0.93570   0.23855   0.00000  Uiso   1.00
C54    C     0.34872   0.00120   0.29149   0.00000  Uiso   1.00
C55    C     0.35930   0.10402   0.40584   0.00000  Uiso   1.00
C56    C     0.34565   0.86824   0.95648   0.00000  Uiso   1.00
C57    C     0.30097   0.85633   0.88689   0.00000  Uiso   1.00
C58    C     0.30404   0.88554   0.77900   0.00000  Uiso   1.00
C59    C     0.28877   0.92139   0.59673   0.00000  Uiso   1.00
C60    C     0.43583   0.91434   0.00963   0.00000  Uiso   1.00
C61    C     0.44919   0.83398   0.04510   0.00000  Uiso   1.00
C62    C     0.50063   0.80101   0.04280   0.00000  Uiso   1.00
C63    C     0.50433   0.72687   0.07870   0.00000  Uiso   1.00
C64    C     0.40840   0.95106   0.11067   0.00000  Uiso   1.00
C65    C     0.42553   0.01654   0.16349   0.00000  Uiso   1.00
C66    C     0.39490   0.04096   0.25458   0.00000  Uiso   1.00
C67    C     0.39175   0.90793   0.91963   0.00000  Uiso   1.00
C68    C     0.39488   0.93717   0.81183   0.00000  Uiso   1.00
C69    C     0.35022   0.92530   0.74208   0.00000  Uiso   1.00
H70    H     0.31507   0.81038   0.10617   0.00000  Uiso   1.00
H71    H     0.37104   0.68948   0.14638   0.00000  Uiso   1.00
H72    H     0.29595   0.90498   0.26704   0.00000  Uiso   1.00
H73    H     0.26531   0.82562   0.91544   0.00000  Uiso   1.00
H74    H     0.45343   0.57296   0.17475   0.00000  Uiso   1.00
H75    H     0.29510   0.02736   0.42914   0.00000  Uiso   1.00
H76    H     0.23047   0.86001   0.68772   0.00000  Uiso   1.00
H77    H     0.47172   0.94524   0.98094   0.00000  Uiso   1.00
H78    H     0.53629   0.83174   0.01427   0.00000  Uiso   1.00
H79    H     0.46121   0.04724   0.13494   0.00000  Uiso   1.00
H80    H     0.43056   0.96787   0.78334   0.00000  Uiso   1.00
H81    H     0.58755   0.68842   0.06753   0.00000  Uiso   1.00
H82    H     0.42922   0.14282   0.32193   0.00000  Uiso   1.00
H83    H     0.36459   0.97547   0.58050   0.00000  Uiso   1.00
O84    O     0.56014   0.55360   0.14537   0.00000  Uiso   1.00
O85    O     0.35241   0.14976   0.47911   0.00000  Uiso   1.00
O86    O     0.26762   0.93020   0.50638   0.00000  Uiso   1.00
N87    N     0.47613   0.61570   0.14492   0.00000  Uiso   1.00
N88    N     0.32810   0.04053   0.38278   0.00000  Uiso   1.00
N89    N     0.26768   0.88409   0.68961   0.00000  Uiso   1.00
N90    N     0.54830   0.67783   0.08723   0.00000  Uiso   1.00
N91    N     0.40028   0.10266   0.32508   0.00000  Uiso   1.00
N92    N     0.33985   0.94622   0.63192   0.00000  Uiso   1.00
C93    C     0.35096   0.65873   0.42252   0.00000  Uiso   1.00
C94    C     0.40309   0.70571   0.41805   0.00000  Uiso   1.00
C95    C     0.40672   0.77982   0.38214   0.00000  Uiso   1.00
C96    C     0.45815   0.81289   0.38438   0.00000  Uiso   1.00
C97    C     0.53209   0.89187   0.37178   0.00000  Uiso   1.00
C98    C     0.36230   0.58863   0.35248   0.00000  Uiso   1.00
C99    C     0.33163   0.56430   0.26145   0.00000  Uiso   1.00
C100   C     0.34872   0.49880   0.20851   0.00000  Uiso   1.00
C101   C     0.35930   0.39598   0.09416   0.00000  Uiso   1.00
C102   C     0.34565   0.63176   0.54352   0.00000  Uiso   1.00
C103   C     0.30097   0.64367   0.61311   0.00000  Uiso   1.00
C104   C     0.30404   0.61446   0.72100   0.00000  Uiso   1.00
C105   C     0.28877   0.57861   0.90327   0.00000  Uiso   1.00
C106   C     0.43583   0.58566   0.49037   0.00000  Uiso   1.00
C107   C     0.44919   0.66602   0.45490   0.00000  Uiso   1.00
C108   C     0.50063   0.69899   0.45720   0.00000  Uiso   1.00
C109   C     0.50433   0.77313   0.42130   0.00000  Uiso   1.00
C110   C     0.40840   0.54894   0.38933   0.00000  Uiso   1.00
C111   C     0.42553   0.48346   0.33651   0.00000  Uiso   1.00
C112   C     0.39490   0.45904   0.24542   0.00000  Uiso   1.00
C113   C     0.39175   0.59207   0.58037   0.00000  Uiso   1.00
C114   C     0.39488   0.56283   0.68817   0.00000  Uiso   1.00
C115   C     0.35022   0.57470   0.75792   0.00000  Uiso   1.00
H116   H     0.31507   0.68962   0.39383   0.00000  Uiso   1.00
H117   H     0.37104   0.81052   0.35362   0.00000  Uiso   1.00
H118   H     0.29595   0.59502   0.23296   0.00000  Uiso   1.00
H119   H     0.26531   0.67438   0.58456   0.00000  Uiso   1.00
H120   H     0.45343   0.92704   0.32525   0.00000  Uiso   1.00
H121   H     0.29510   0.47264   0.07086   0.00000  Uiso   1.00
H122   H     0.23047   0.63999   0.81228   0.00000  Uiso   1.00
H123   H     0.47172   0.55476   0.51906   0.00000  Uiso   1.00
H124   H     0.53629   0.66826   0.48573   0.00000  Uiso   1.00
H125   H     0.46121   0.45276   0.36506   0.00000  Uiso   1.00
H126   H     0.43056   0.53213   0.71666   0.00000  Uiso   1.00
H127   H     0.58755   0.81158   0.43247   0.00000  Uiso   1.00
H128   H     0.42922   0.35718   0.17807   0.00000  Uiso   1.00
H129   H     0.36459   0.52453   0.91950   0.00000  Uiso   1.00
O130   O     0.56014   0.94640   0.35463   0.00000  Uiso   1.00
O131   O     0.35241   0.35024   0.02089   0.00000  Uiso   1.00
O132   O     0.26762   0.56980   0.99362   0.00000  Uiso   1.00
N133   N     0.47613   0.88430   0.35508   0.00000  Uiso   1.00
N134   N     0.32810   0.45947   0.11722   0.00000  Uiso   1.00
N135   N     0.26768   0.61591   0.81039   0.00000  Uiso   1.00
N136   N     0.54830   0.82217   0.41277   0.00000  Uiso   1.00
N137   N     0.40028   0.39734   0.17492   0.00000  Uiso   1.00
N138   N     0.33985   0.55378   0.86808   0.00000  Uiso   1.00
C139   C     0.14904   0.34127   0.42252   0.00000  Uiso   1.00
C140   C     0.09691   0.29429   0.41805   0.00000  Uiso   1.00
C141   C     0.09328   0.22018   0.38214   0.00000  Uiso   1.00
C142   C     0.04185   0.18711   0.38438   0.00000  Uiso   1.00
C143   C     0.96791   0.10813   0.37178   0.00000  Uiso   1.00
C144   C     0.13770   0.41137   0.35248   0.00000  Uiso   1.00
C145   C     0.16837   0.43570   0.26145   0.00000  Uiso   1.00
C146   C     0.15128   0.50120   0.20851   0.00000  Uiso   1.00
C147   C     0.14070   0.60402   0.09416   0.00000  Uiso   1.00
C148   C     0.15435   0.36824   0.54352   0.00000  Uiso   1.00
C149   C     0.19903   0.35633   0.61311   0.00000  Uiso   1.00
C150   C     0.19596   0.38554   0.72100   0.00000  Uiso   1.00
C151   C     0.21123   0.42139   0.90327   0.00000  Uiso   1.00
C152   C     0.06417   0.41434   0.49037   0.00000  Uiso   1.00
C153   C     0.05081   0.33398   0.45490   0.00000  Uiso   1.00
C154   C     0.99937   0.30101   0.45720   0.00000  Uiso   1.00
C155   C     0.99567   0.22687   0.42130   0.00000  Uiso   1.00
C156   C     0.09160   0.45106   0.38933   0.00000  Uiso   1.00
C157   C     0.07447   0.51654   0.33651   0.00000  Uiso   1.00
C158   C     0.10510   0.54096   0.24542   0.00000  Uiso   1.00
C159   C     0.10825   0.40793   0.58037   0.00000  Uiso   1.00
C160   C     0.10512   0.43717   0.68817   0.00000  Uiso   1.00
C161   C     0.14978   0.42530   0.75792   0.00000  Uiso   1.00
H162   H     0.18493   0.31038   0.39383   0.00000  Uiso   1.00
H163   H     0.12896   0.18948   0.35362   0.00000  Uiso   1.00
H164   H     0.20405   0.40498   0.23296   0.00000  Uiso   1.00
H165   H     0.23469   0.32562   0.58456   0.00000  Uiso   1.00
H166   H     0.04657   0.07296   0.32525   0.00000  Uiso   1.00
H167   H     0.20490   0.52736   0.07086   0.00000  Uiso   1.00
H168   H     0.26953   0.36001   0.81228   0.00000  Uiso   1.00
H169   H     0.02828   0.44524   0.51906   0.00000  Uiso   1.00
H170   H     0.96371   0.33174   0.48573   0.00000  Uiso   1.00
H171   H     0.03879   0.54724   0.36506   0.00000  Uiso   1.00
H172   H     0.06944   0.46787   0.71666   0.00000  Uiso   1.00
H173   H     0.91245   0.18842   0.43247   0.00000  Uiso   1.00
H174   H     0.07078   0.64282   0.17807   0.00000  Uiso   1.00
H175   H     0.13541   0.47547   0.91950   0.00000  Uiso   1.00
O176   O     0.93986   0.05360   0.35463   0.00000  Uiso   1.00
O177   O     0.14759   0.64976   0.02089   0.00000  Uiso   1.00
O178   O     0.23238   0.43020   0.99362   0.00000  Uiso   1.00
N179   N     0.02387   0.11570   0.35508   0.00000  Uiso   1.00
N180   N     0.17190   0.54053   0.11722   0.00000  Uiso   1.00
N181   N     0.23232   0.38409   0.81039   0.00000  Uiso   1.00
N182   N     0.95170   0.17783   0.41277   0.00000  Uiso   1.00
N183   N     0.09972   0.60266   0.17492   0.00000  Uiso   1.00
N184   N     0.16015   0.44622   0.86808   0.00000  Uiso   1.00
C185   C     0.85096   0.84127   0.92252   0.00000  Uiso   1.00
C186   C     0.90309   0.79429   0.91805   0.00000  Uiso   1.00
C187   C     0.90672   0.72018   0.88214   0.00000  Uiso   1.00
C188   C     0.95815   0.68711   0.88438   0.00000  Uiso   1.00
C189   C     0.03209   0.60813   0.87178   0.00000  Uiso   1.00
C190   C     0.86230   0.91137   0.85248   0.00000  Uiso   1.00
C191   C     0.83163   0.93570   0.76145   0.00000  Uiso   1.00
C192   C     0.84872   0.00120   0.70851   0.00000  Uiso   1.00
C193   C     0.85930   0.10402   0.59416   0.00000  Uiso   1.00
C194   C     0.84565   0.86824   0.04352   0.00000  Uiso   1.00
C195   C     0.80097   0.85633   0.11311   0.00000  Uiso   1.00
C196   C     0.80404   0.88554   0.22100   0.00000  Uiso   1.00
C197   C     0.78877   0.92139   0.40327   0.00000  Uiso   1.00
C198   C     0.93583   0.91434   0.99037   0.00000  Uiso   1.00
C199   C     0.94919   0.83398   0.95490   0.00000  Uiso   1.00
C200   C     0.00063   0.80101   0.95720   0.00000  Uiso   1.00
C201   C     0.00433   0.72687   0.92130   0.00000  Uiso   1.00
C202   C     0.90840   0.95106   0.88933   0.00000  Uiso   1.00
C203   C     0.92553   0.01654   0.83651   0.00000  Uiso   1.00
C204   C     0.89490   0.04096   0.74542   0.00000  Uiso   1.00
C205   C     0.89175   0.90793   0.08037   0.00000  Uiso   1.00
C206   C     0.89488   0.93717   0.18817   0.00000  Uiso   1.00
C207   C     0.85022   0.92530   0.25792   0.00000  Uiso   1.00
H208   H     0.81507   0.81038   0.89383   0.00000  Uiso   1.00
H209   H     0.87104   0.68948   0.85362   0.00000  Uiso   1.00
H210   H     0.79595   0.90498   0.73296   0.00000  Uiso   1.00
H211   H     0.76531   0.82562   0.08456   0.00000  Uiso   1.00
H212   H     0.95343   0.57296   0.82525   0.00000  Uiso   1.00
H213   H     0.79510   0.02736   0.57086   0.00000  Uiso   1.00
H214   H     0.73047   0.86001   0.31228   0.00000  Uiso   1.00
H215   H     0.97172   0.94524   0.01906   0.00000  Uiso   1.00
H216   H     0.03629   0.83174   0.98573   0.00000  Uiso   1.00
H217   H     0.96121   0.04724   0.86506   0.00000  Uiso   1.00
H218   H     0.93056   0.96787   0.21666   0.00000  Uiso   1.00
H219   H     0.08755   0.68842   0.93247   0.00000  Uiso   1.00
H220   H     0.92922   0.14282   0.67807   0.00000  Uiso   1.00
H221   H     0.86459   0.97547   0.41950   0.00000  Uiso   1.00
O222   O     0.06014   0.55360   0.85463   0.00000  Uiso   1.00
O223   O     0.85241   0.14976   0.52089   0.00000  Uiso   1.00
O224   O     0.76762   0.93020   0.49362   0.00000  Uiso   1.00
N225   N     0.97613   0.61570   0.85508   0.00000  Uiso   1.00
N226   N     0.82810   0.04053   0.61722   0.00000  Uiso   1.00
N227   N     0.76768   0.88409   0.31039   0.00000  Uiso   1.00
N228   N     0.04830   0.67783   0.91277   0.00000  Uiso   1.00
N229   N     0.90028   0.10266   0.67492   0.00000  Uiso   1.00
N230   N     0.83985   0.94622   0.36808   0.00000  Uiso   1.00
C231   C     0.64904   0.15873   0.92252   0.00000  Uiso   1.00
C232   C     0.59691   0.20571   0.91805   0.00000  Uiso   1.00
C233   C     0.59328   0.27982   0.88214   0.00000  Uiso   1.00
C234   C     0.54185   0.31289   0.88438   0.00000  Uiso   1.00
C235   C     0.46791   0.39187   0.87178   0.00000  Uiso   1.00
C236   C     0.63770   0.08863   0.85248   0.00000  Uiso   1.00
C237   C     0.66837   0.06430   0.76145   0.00000  Uiso   1.00
C238   C     0.65128   0.99880   0.70851   0.00000  Uiso   1.00
C239   C     0.64070   0.89598   0.59416   0.00000  Uiso   1.00
C240   C     0.65435   0.13176   0.04352   0.00000  Uiso   1.00
C241   C     0.69903   0.14367   0.11311   0.00000  Uiso   1.00
C242   C     0.69596   0.11446   0.22100   0.00000  Uiso   1.00
C243   C     0.71123   0.07861   0.40327   0.00000  Uiso   1.00
C244   C     0.56417   0.08566   0.99037   0.00000  Uiso   1.00
C245   C     0.55081   0.16602   0.95490   0.00000  Uiso   1.00
C246   C     0.49937   0.19899   0.95720   0.00000  Uiso   1.00
C247   C     0.49567   0.27313   0.92130   0.00000  Uiso   1.00
C248   C     0.59160   0.04894   0.88933   0.00000  Uiso   1.00
C249   C     0.57447   0.98346   0.83651   0.00000  Uiso   1.00
C250   C     0.60510   0.95904   0.74542   0.00000  Uiso   1.00
C251   C     0.60825   0.09207   0.08037   0.00000  Uiso   1.00
C252   C     0.60512   0.06283   0.18817   0.00000  Uiso   1.00
C253   C     0.64978   0.07470   0.25792   0.00000  Uiso   1.00
H254   H     0.68493   0.18962   0.89383   0.00000  Uiso   1.00
H255   H     0.62896   0.31052   0.85362   0.00000  Uiso   1.00
H256   H     0.70405   0.09502   0.73296   0.00000  Uiso   1.00
H257   H     0.73469   0.17438   0.08456   0.00000  Uiso   1.00
H258   H     0.54657   0.42704   0.82525   0.00000  Uiso   1.00
H259   H     0.70490   0.97264   0.57086   0.00000  Uiso   1.00
H260   H     0.76953   0.13999   0.31228   0.00000  Uiso   1.00
H261   H     0.52828   0.05476   0.01906   0.00000  Uiso   1.00
H262   H     0.46371   0.16826   0.98573   0.00000  Uiso   1.00
H263   H     0.53879   0.95276   0.86506   0.00000  Uiso   1.00
H264   H     0.56944   0.03213   0.21666   0.00000  Uiso   1.00
H265   H     0.41245   0.31158   0.93247   0.00000  Uiso   1.00
H266   H     0.57078   0.85718   0.67807   0.00000  Uiso   1.00
H267   H     0.63541   0.02453   0.41950   0.00000  Uiso   1.00
O268   O     0.43986   0.44640   0.85463   0.00000  Uiso   1.00
O269   O     0.64759   0.85024   0.52089   0.00000  Uiso   1.00
O270   O     0.73238   0.06980   0.49362   0.00000  Uiso   1.00
N271   N     0.52387   0.38430   0.85508   0.00000  Uiso   1.00
N272   N     0.67190   0.95947   0.61722   0.00000  Uiso   1.00
N273   N     0.73232   0.11591   0.31039   0.00000  Uiso   1.00
N274   N     0.45170   0.32217   0.91277   0.00000  Uiso   1.00
N275   N     0.59972   0.89734   0.67492   0.00000  Uiso   1.00
N276   N     0.66015   0.05378   0.36808   0.00000  Uiso   1.00
C277   C     0.64904   0.34127   0.57748   0.00000  Uiso   1.00
C278   C     0.59691   0.29429   0.58195   0.00000  Uiso   1.00
C279   C     0.59328   0.22018   0.61786   0.00000  Uiso   1.00
C280   C     0.54185   0.18711   0.61562   0.00000  Uiso   1.00
C281   C     0.46791   0.10813   0.62822   0.00000  Uiso   1.00
C282   C     0.63770   0.41137   0.64752   0.00000  Uiso   1.00
C283   C     0.66837   0.43570   0.73855   0.00000  Uiso   1.00
C284   C     0.65128   0.50120   0.79149   0.00000  Uiso   1.00
C285   C     0.64070   0.60402   0.90584   0.00000  Uiso   1.00
C286   C     0.65435   0.36824   0.45648   0.00000  Uiso   1.00
C287   C     0.69903   0.35633   0.38689   0.00000  Uiso   1.00
C288   C     0.69596   0.38554   0.27900   0.00000  Uiso   1.00
C289   C     0.71123   0.42139   0.09673   0.00000  Uiso   1.00
C290   C     0.56417   0.41434   0.50963   0.00000  Uiso   1.00
C291   C     0.55081   0.33398   0.54510   0.00000  Uiso   1.00
C292   C     0.49937   0.30101   0.54280   0.00000  Uiso   1.00
C293   C     0.49567   0.22687   0.57870   0.00000  Uiso   1.00
C294   C     0.59160   0.45106   0.61067   0.00000  Uiso   1.00
C295   C     0.57447   0.51654   0.66349   0.00000  Uiso   1.00
C296   C     0.60510   0.54096   0.75458   0.00000  Uiso   1.00
C297   C     0.60825   0.40793   0.41963   0.00000  Uiso   1.00
C298   C     0.60512   0.43717   0.31183   0.00000  Uiso   1.00
C299   C     0.64978   0.42530   0.24208   0.00000  Uiso   1.00
H300   H     0.68493   0.31038   0.60617   0.00000  Uiso   1.00
H301   H     0.62896   0.18948   0.64638   0.00000  Uiso   1.00
H302   H     0.70405   0.40498   0.76704   0.00000  Uiso   1.00
H303   H     0.73469   0.32562   0.41544   0.00000  Uiso   1.00
H304   H     0.54657   0.07296   0.67475   0.00000  Uiso   1.00
H305   H     0.70490   0.52736   0.92914   0.00000  Uiso   1.00
H306   H     0.76953   0.36001   0.18772   0.00000  Uiso   1.00
H307   H     0.52828   0.44524   0.48094   0.00000  Uiso   1.00
H308   H     0.46371   0.33174   0.51427   0.00000  Uiso   1.00
H309   H     0.53879   0.54724   0.63494   0.00000  Uiso   1.00
H310   H     0.56944   0.46787   0.28334   0.00000  Uiso   1.00
H311   H     0.41245   0.18842   0.56753   0.00000  Uiso   1.00
H312   H     0.57078   0.64282   0.82193   0.00000  Uiso   1.00
H313   H     0.63541   0.47547   0.08050   0.00000  Uiso   1.00
O314   O     0.43986   0.05360   0.64537   0.00000  Uiso   1.00
O315   O     0.64759   0.64976   0.97911   0.00000  Uiso   1.00
O316   O     0.73238   0.43020   0.00638   0.00000  Uiso   1.00
N317   N     0.52387   0.11570   0.64492   0.00000  Uiso   1.00
N318   N     0.67190   0.54053   0.88278   0.00000  Uiso   1.00
N319   N     0.73232   0.38409   0.18961   0.00000  Uiso   1.00
N320   N     0.45170   0.17783   0.58723   0.00000  Uiso   1.00
N321   N     0.59972   0.60266   0.82508   0.00000  Uiso   1.00
N322   N     0.66015   0.44622   0.13192   0.00000  Uiso   1.00
C323   C     0.85096   0.65873   0.57748   0.00000  Uiso   1.00
C324   C     0.90309   0.70571   0.58195   0.00000  Uiso   1.00
C325   C     0.90672   0.77982   0.61786   0.00000  Uiso   1.00
C326   C     0.95815   0.81289   0.61562   0.00000  Uiso   1.00
C327   C     0.03209   0.89187   0.62822   0.00000  Uiso   1.00
C328   C     0.86230   0.58863   0.64752   0.00000  Uiso   1.00
C329   C     0.83163   0.56430   0.73855   0.00000  Uiso   1.00
C330   C     0.84872   0.49880   0.79149   0.00000  Uiso   1.00
C331   C     0.85930   0.39598   0.90584   0.00000  Uiso   1.00
C332   C     0.84565   0.63176   0.45648   0.00000  Uiso   1.00
C333   C     0.80097   0.64367   0.38689   0.00000  Uiso   1.00
C334   C     0.80404   0.61446   0.27900   0.00000  Uiso   1.00
C335   C     0.78877   0.57861   0.09673   0.00000  Uiso   1.00
C336   C     0.93583   0.58566   0.50963   0.00000  Uiso   1.00
C337   C     0.94919   0.66602   0.54510   0.00000  Uiso   1.00
C338   C     0.00063   0.69899   0.54280   0.00000  Uiso   1.00
C339   C     0.00433   0.77313   0.57870   0.00000  Uiso   1.00
C340   C     0.90840   0.54894   0.61067   0.00000  Uiso   1.00
C341   C     0.92553   0.48346   0.66349   0.00000  Uiso   1.00
C342   C     0.89490   0.45904   0.75458   0.00000  Uiso   1.00
C343   C     0.89175   0.59207   0.41963   0.00000  Uiso   1.00
C344   C     0.89488   0.56283   0.31183   0.00000  Uiso   1.00
C345   C     0.85022   0.57470   0.24208   0.00000  Uiso   1.00
H346   H     0.81507   0.68962   0.60617   0.00000  Uiso   1.00
H347   H     0.87104   0.81052   0.64638   0.00000  Uiso   1.00
H348   H     0.79595   0.59502   0.76704   0.00000  Uiso   1.00
H349   H     0.76531   0.67438   0.41544   0.00000  Uiso   1.00
H350   H     0.95343   0.92704   0.67475   0.00000  Uiso   1.00
H351   H     0.79510   0.47264   0.92914   0.00000  Uiso   1.00
H352   H     0.73047   0.63999   0.18772   0.00000  Uiso   1.00
H353   H     0.97172   0.55476   0.48094   0.00000  Uiso   1.00
H354   H     0.03629   0.66826   0.51427   0.00000  Uiso   1.00
H355   H     0.96121   0.45276   0.63494   0.00000  Uiso   1.00
H356   H     0.93056   0.53213   0.28334   0.00000  Uiso   1.00
H357   H     0.08755   0.81158   0.56753   0.00000  Uiso   1.00
H358   H     0.92922   0.35718   0.82193   0.00000  Uiso   1.00
H359   H     0.86459   0.52453   0.08050   0.00000  Uiso   1.00
O360   O     0.06014   0.94640   0.64537   0.00000  Uiso   1.00
O361   O     0.85241   0.35024   0.97911   0.00000  Uiso   1.00
O362   O     0.76762   0.56980   0.00638   0.00000  Uiso   1.00
N363   N     0.97613   0.88430   0.64492   0.00000  Uiso   1.00
N364   N     0.82810   0.45947   0.88278   0.00000  Uiso   1.00
N365   N     0.76768   0.61591   0.18961   0.00000  Uiso   1.00
N366   N     0.04830   0.82217   0.58723   0.00000  Uiso   1.00
N367   N     0.90028   0.39734   0.82508   0.00000  Uiso   1.00
N368   N     0.83985   0.55378   0.13192   0.00000  Uiso   1.00
