data_job_02583
_audit_creation_date              2018-12-19
_audit_creation_method            'Materials Studio'
_symmetry_space_group_name_H-M    'P1'
_symmetry_Int_Tables_number       1
_symmetry_cell_setting            triclinic
loop_
_symmetry_equiv_pos_as_xyz
  x,y,z
_cell_length_a                    20.8744
_cell_length_b                    12.4105
_cell_length_c                    19.4629
_cell_angle_alpha                 90.0000
_cell_angle_beta                  90.0000
_cell_angle_gamma                 90.0000
loop_
_atom_site_label
_atom_site_type_symbol
_atom_site_fract_x
_atom_site_fract_y
_atom_site_fract_z
_atom_site_U_iso_or_equiv
_atom_site_adp_type
_atom_site_occupancy
C1     C     0.68898   0.29177   0.20338   0.00000  Uiso   1.00
C2     C     0.71145   0.24223   0.13585   0.00000  Uiso   1.00
C3     C     0.77291   0.24909   0.10902   0.00000  Uiso   1.00
C4     C     0.78385   0.19832   0.04655   0.00000  Uiso   1.00
C5     C     0.82617   0.12991   0.94690   0.00000  Uiso   1.00
C6     C     0.63225   0.36380   0.18529   0.00000  Uiso   1.00
C7     C     0.62712   0.47288   0.20003   0.00000  Uiso   1.00
C8     C     0.57138   0.52443   0.17918   0.00000  Uiso   1.00
C9     C     0.49072   0.64475   0.15633   0.00000  Uiso   1.00
C10    C     0.66165   0.19911   0.24567   0.00000  Uiso   1.00
C11    C     0.68121   0.16972   0.31119   0.00000  Uiso   1.00
C12    C     0.65021   0.08263   0.34119   0.00000  Uiso   1.00
C13    C     0.61518   0.94724   0.41209   0.00000  Uiso   1.00
C14    C     0.59912   0.18939   0.14015   0.00000  Uiso   1.00
C15    C     0.66264   0.18663   0.10151   0.00000  Uiso   1.00
C16    C     0.67349   0.13582   0.03906   0.00000  Uiso   1.00
C17    C     0.73496   0.14260   0.01214   0.00000  Uiso   1.00
C18    C     0.58344   0.30820   0.15095   0.00000  Uiso   1.00
C19    C     0.52770   0.35960   0.13008   0.00000  Uiso   1.00
C20    C     0.52248   0.46873   0.14478   0.00000  Uiso   1.00
C21    C     0.61283   0.14350   0.21133   0.00000  Uiso   1.00
C22    C     0.58179   0.05645   0.24123   0.00000  Uiso   1.00
C23    C     0.60131   0.02693   0.30678   0.00000  Uiso   1.00
H24    H     0.72698   0.33506   0.23012   0.00000  Uiso   1.00
H25    H     0.81067   0.29214   0.13561   0.00000  Uiso   1.00
H26    H     0.66490   0.51588   0.22662   0.00000  Uiso   1.00
H27    H     0.71898   0.21277   0.33775   0.00000  Uiso   1.00
H28    H     0.88193   0.22007   0.01567   0.00000  Uiso   1.00
H29    H     0.57455   0.69183   0.20758   0.00000  Uiso   1.00
H30    H     0.68860   0.05266   0.44194   0.00000  Uiso   1.00
H31    H     0.56111   0.14609   0.11342   0.00000  Uiso   1.00
H32    H     0.63571   0.09279   0.01250   0.00000  Uiso   1.00
H33    H     0.48994   0.31654   0.10350   0.00000  Uiso   1.00
H34    H     0.54402   0.01343   0.21464   0.00000  Uiso   1.00
H35    H     0.73993   0.05827   0.91575   0.00000  Uiso   1.00
H36    H     0.43254   0.53004   0.10766   0.00000  Uiso   1.00
H37    H     0.54659   0.89087   0.34201   0.00000  Uiso   1.00
O38    O     0.86299   0.10755   0.90142   0.00000  Uiso   1.00
O39    O     0.45971   0.72648   0.15321   0.00000  Uiso   1.00
O40    O     0.60934   0.88791   0.46068   0.00000  Uiso   1.00
N41    N     0.83828   0.18928   0.00601   0.00000  Uiso   1.00
N42    N     0.55090   0.63036   0.18543   0.00000  Uiso   1.00
N43    N     0.65751   0.03281   0.40454   0.00000  Uiso   1.00
N44    N     0.76186   0.10222   0.95224   0.00000  Uiso   1.00
N45    N     0.47449   0.54330   0.13166   0.00000  Uiso   1.00
N46    N     0.58110   0.94575   0.35077   0.00000  Uiso   1.00
C47    C     0.18898   0.79177   0.20338   0.00000  Uiso   1.00
C48    C     0.21145   0.74223   0.13585   0.00000  Uiso   1.00
C49    C     0.27291   0.74909   0.10902   0.00000  Uiso   1.00
C50    C     0.28385   0.69832   0.04655   0.00000  Uiso   1.00
C51    C     0.32617   0.62991   0.94690   0.00000  Uiso   1.00
C52    C     0.13225   0.86380   0.18529   0.00000  Uiso   1.00
C53    C     0.12712   0.97288   0.20003   0.00000  Uiso   1.00
C54    C     0.07138   0.02443   0.17918   0.00000  Uiso   1.00
C55    C     0.99072   0.14475   0.15633   0.00000  Uiso   1.00
C56    C     0.16165   0.69911   0.24567   0.00000  Uiso   1.00
C57    C     0.18121   0.66972   0.31119   0.00000  Uiso   1.00
C58    C     0.15021   0.58263   0.34119   0.00000  Uiso   1.00
C59    C     0.11518   0.44724   0.41209   0.00000  Uiso   1.00
C60    C     0.09912   0.68939   0.14015   0.00000  Uiso   1.00
C61    C     0.16264   0.68663   0.10151   0.00000  Uiso   1.00
C62    C     0.17349   0.63582   0.03906   0.00000  Uiso   1.00
C63    C     0.23496   0.64260   0.01214   0.00000  Uiso   1.00
C64    C     0.08344   0.80820   0.15095   0.00000  Uiso   1.00
C65    C     0.02770   0.85960   0.13008   0.00000  Uiso   1.00
C66    C     0.02248   0.96873   0.14478   0.00000  Uiso   1.00
C67    C     0.11283   0.64350   0.21133   0.00000  Uiso   1.00
C68    C     0.08179   0.55645   0.24123   0.00000  Uiso   1.00
C69    C     0.10131   0.52693   0.30678   0.00000  Uiso   1.00
H70    H     0.22698   0.83506   0.23012   0.00000  Uiso   1.00
H71    H     0.31067   0.79214   0.13561   0.00000  Uiso   1.00
H72    H     0.16490   0.01588   0.22662   0.00000  Uiso   1.00
H73    H     0.21898   0.71277   0.33775   0.00000  Uiso   1.00
H74    H     0.38193   0.72007   0.01567   0.00000  Uiso   1.00
H75    H     0.07455   0.19183   0.20758   0.00000  Uiso   1.00
H76    H     0.18860   0.55266   0.44194   0.00000  Uiso   1.00
H77    H     0.06111   0.64609   0.11342   0.00000  Uiso   1.00
H78    H     0.13571   0.59279   0.01250   0.00000  Uiso   1.00
H79    H     0.98994   0.81654   0.10350   0.00000  Uiso   1.00
H80    H     0.04402   0.51343   0.21464   0.00000  Uiso   1.00
H81    H     0.23993   0.55827   0.91575   0.00000  Uiso   1.00
H82    H     0.93254   0.03004   0.10766   0.00000  Uiso   1.00
H83    H     0.04659   0.39087   0.34201   0.00000  Uiso   1.00
O84    O     0.36299   0.60755   0.90142   0.00000  Uiso   1.00
O85    O     0.95971   0.22648   0.15321   0.00000  Uiso   1.00
O86    O     0.10934   0.38791   0.46068   0.00000  Uiso   1.00
N87    N     0.33828   0.68928   0.00601   0.00000  Uiso   1.00
N88    N     0.05090   0.13036   0.18543   0.00000  Uiso   1.00
N89    N     0.15751   0.53281   0.40454   0.00000  Uiso   1.00
N90    N     0.26186   0.60222   0.95224   0.00000  Uiso   1.00
N91    N     0.97449   0.04330   0.13166   0.00000  Uiso   1.00
N92    N     0.08110   0.44575   0.35077   0.00000  Uiso   1.00
C93    C     0.31102   0.70823   0.70338   0.00000  Uiso   1.00
C94    C     0.28855   0.75777   0.63585   0.00000  Uiso   1.00
C95    C     0.22709   0.75091   0.60902   0.00000  Uiso   1.00
C96    C     0.21615   0.80168   0.54655   0.00000  Uiso   1.00
C97    C     0.17383   0.87009   0.44690   0.00000  Uiso   1.00
C98    C     0.36775   0.63620   0.68529   0.00000  Uiso   1.00
C99    C     0.37288   0.52712   0.70003   0.00000  Uiso   1.00
C100   C     0.42862   0.47557   0.67918   0.00000  Uiso   1.00
C101   C     0.50928   0.35525   0.65633   0.00000  Uiso   1.00
C102   C     0.33835   0.80089   0.74567   0.00000  Uiso   1.00
C103   C     0.31879   0.83028   0.81119   0.00000  Uiso   1.00
C104   C     0.34979   0.91737   0.84119   0.00000  Uiso   1.00
C105   C     0.38482   0.05276   0.91209   0.00000  Uiso   1.00
C106   C     0.40088   0.81061   0.64015   0.00000  Uiso   1.00
C107   C     0.33736   0.81337   0.60151   0.00000  Uiso   1.00
C108   C     0.32651   0.86418   0.53906   0.00000  Uiso   1.00
C109   C     0.26504   0.85740   0.51214   0.00000  Uiso   1.00
C110   C     0.41656   0.69180   0.65095   0.00000  Uiso   1.00
C111   C     0.47230   0.64040   0.63008   0.00000  Uiso   1.00
C112   C     0.47752   0.53127   0.64478   0.00000  Uiso   1.00
C113   C     0.38717   0.85650   0.71133   0.00000  Uiso   1.00
C114   C     0.41821   0.94355   0.74123   0.00000  Uiso   1.00
C115   C     0.39869   0.97307   0.80678   0.00000  Uiso   1.00
H116   H     0.27302   0.66494   0.73012   0.00000  Uiso   1.00
H117   H     0.18933   0.70786   0.63561   0.00000  Uiso   1.00
H118   H     0.33510   0.48412   0.72662   0.00000  Uiso   1.00
H119   H     0.28102   0.78723   0.83775   0.00000  Uiso   1.00
H120   H     0.11807   0.77993   0.51567   0.00000  Uiso   1.00
H121   H     0.42545   0.30817   0.70758   0.00000  Uiso   1.00
H122   H     0.31140   0.94734   0.94194   0.00000  Uiso   1.00
H123   H     0.43889   0.85391   0.61342   0.00000  Uiso   1.00
H124   H     0.36429   0.90721   0.51250   0.00000  Uiso   1.00
H125   H     0.51006   0.68346   0.60350   0.00000  Uiso   1.00
H126   H     0.45598   0.98657   0.71464   0.00000  Uiso   1.00
H127   H     0.26007   0.94173   0.41575   0.00000  Uiso   1.00
H128   H     0.56746   0.46996   0.60766   0.00000  Uiso   1.00
H129   H     0.45341   0.10913   0.84201   0.00000  Uiso   1.00
O130   O     0.13701   0.89245   0.40142   0.00000  Uiso   1.00
O131   O     0.54029   0.27352   0.65321   0.00000  Uiso   1.00
O132   O     0.39066   0.11209   0.96068   0.00000  Uiso   1.00
N133   N     0.16172   0.81072   0.50601   0.00000  Uiso   1.00
N134   N     0.44910   0.36964   0.68543   0.00000  Uiso   1.00
N135   N     0.34249   0.96719   0.90454   0.00000  Uiso   1.00
N136   N     0.23814   0.89778   0.45224   0.00000  Uiso   1.00
N137   N     0.52551   0.45670   0.63166   0.00000  Uiso   1.00
N138   N     0.41890   0.05425   0.85077   0.00000  Uiso   1.00
C139   C     0.81102   0.20823   0.70338   0.00000  Uiso   1.00
C140   C     0.78855   0.25777   0.63585   0.00000  Uiso   1.00
C141   C     0.72709   0.25091   0.60902   0.00000  Uiso   1.00
C142   C     0.71615   0.30168   0.54655   0.00000  Uiso   1.00
C143   C     0.67383   0.37009   0.44690   0.00000  Uiso   1.00
C144   C     0.86775   0.13620   0.68529   0.00000  Uiso   1.00
C145   C     0.87288   0.02712   0.70003   0.00000  Uiso   1.00
C146   C     0.92862   0.97557   0.67918   0.00000  Uiso   1.00
C147   C     0.00928   0.85525   0.65633   0.00000  Uiso   1.00
C148   C     0.83835   0.30089   0.74567   0.00000  Uiso   1.00
C149   C     0.81879   0.33028   0.81119   0.00000  Uiso   1.00
C150   C     0.84979   0.41737   0.84119   0.00000  Uiso   1.00
C151   C     0.88482   0.55276   0.91209   0.00000  Uiso   1.00
C152   C     0.90088   0.31061   0.64015   0.00000  Uiso   1.00
C153   C     0.83736   0.31337   0.60151   0.00000  Uiso   1.00
C154   C     0.82651   0.36418   0.53906   0.00000  Uiso   1.00
C155   C     0.76504   0.35740   0.51214   0.00000  Uiso   1.00
C156   C     0.91656   0.19180   0.65095   0.00000  Uiso   1.00
C157   C     0.97230   0.14040   0.63008   0.00000  Uiso   1.00
C158   C     0.97752   0.03127   0.64478   0.00000  Uiso   1.00
C159   C     0.88717   0.35650   0.71133   0.00000  Uiso   1.00
C160   C     0.91821   0.44355   0.74123   0.00000  Uiso   1.00
C161   C     0.89869   0.47307   0.80678   0.00000  Uiso   1.00
H162   H     0.77302   0.16494   0.73012   0.00000  Uiso   1.00
H163   H     0.68933   0.20786   0.63561   0.00000  Uiso   1.00
H164   H     0.83510   0.98412   0.72662   0.00000  Uiso   1.00
H165   H     0.78102   0.28723   0.83775   0.00000  Uiso   1.00
H166   H     0.61807   0.27993   0.51567   0.00000  Uiso   1.00
H167   H     0.92545   0.80817   0.70758   0.00000  Uiso   1.00
H168   H     0.81140   0.44734   0.94194   0.00000  Uiso   1.00
H169   H     0.93889   0.35391   0.61342   0.00000  Uiso   1.00
H170   H     0.86429   0.40721   0.51250   0.00000  Uiso   1.00
H171   H     0.01006   0.18346   0.60350   0.00000  Uiso   1.00
H172   H     0.95598   0.48657   0.71464   0.00000  Uiso   1.00
H173   H     0.76007   0.44173   0.41575   0.00000  Uiso   1.00
H174   H     0.06746   0.96996   0.60766   0.00000  Uiso   1.00
H175   H     0.95341   0.60913   0.84201   0.00000  Uiso   1.00
O176   O     0.63701   0.39245   0.40142   0.00000  Uiso   1.00
O177   O     0.04029   0.77352   0.65321   0.00000  Uiso   1.00
O178   O     0.89066   0.61209   0.96068   0.00000  Uiso   1.00
N179   N     0.66172   0.31072   0.50601   0.00000  Uiso   1.00
N180   N     0.94910   0.86964   0.68543   0.00000  Uiso   1.00
N181   N     0.84249   0.46719   0.90454   0.00000  Uiso   1.00
N182   N     0.73814   0.39778   0.45224   0.00000  Uiso   1.00
N183   N     0.02551   0.95670   0.63166   0.00000  Uiso   1.00
N184   N     0.91890   0.55425   0.85077   0.00000  Uiso   1.00
C185   C     0.31102   0.29177   0.29662   0.00000  Uiso   1.00
C186   C     0.28855   0.24223   0.36415   0.00000  Uiso   1.00
C187   C     0.22709   0.24909   0.39098   0.00000  Uiso   1.00
C188   C     0.21615   0.19832   0.45345   0.00000  Uiso   1.00
C189   C     0.17383   0.12991   0.55310   0.00000  Uiso   1.00
C190   C     0.36775   0.36380   0.31471   0.00000  Uiso   1.00
C191   C     0.37288   0.47288   0.29997   0.00000  Uiso   1.00
C192   C     0.42862   0.52443   0.32082   0.00000  Uiso   1.00
C193   C     0.50928   0.64475   0.34367   0.00000  Uiso   1.00
C194   C     0.33835   0.19911   0.25433   0.00000  Uiso   1.00
C195   C     0.31879   0.16972   0.18881   0.00000  Uiso   1.00
C196   C     0.34979   0.08263   0.15881   0.00000  Uiso   1.00
C197   C     0.38482   0.94724   0.08791   0.00000  Uiso   1.00
C198   C     0.40088   0.18939   0.35985   0.00000  Uiso   1.00
C199   C     0.33736   0.18663   0.39849   0.00000  Uiso   1.00
C200   C     0.32651   0.13582   0.46094   0.00000  Uiso   1.00
C201   C     0.26504   0.14260   0.48786   0.00000  Uiso   1.00
C202   C     0.41656   0.30820   0.34905   0.00000  Uiso   1.00
C203   C     0.47230   0.35960   0.36992   0.00000  Uiso   1.00
C204   C     0.47752   0.46873   0.35522   0.00000  Uiso   1.00
C205   C     0.38717   0.14350   0.28867   0.00000  Uiso   1.00
C206   C     0.41821   0.05645   0.25877   0.00000  Uiso   1.00
C207   C     0.39869   0.02693   0.19322   0.00000  Uiso   1.00
H208   H     0.27302   0.33506   0.26988   0.00000  Uiso   1.00
H209   H     0.18933   0.29214   0.36439   0.00000  Uiso   1.00
H210   H     0.33510   0.51588   0.27338   0.00000  Uiso   1.00
H211   H     0.28102   0.21277   0.16225   0.00000  Uiso   1.00
H212   H     0.11807   0.22007   0.48433   0.00000  Uiso   1.00
H213   H     0.42545   0.69183   0.29242   0.00000  Uiso   1.00
H214   H     0.31140   0.05266   0.05806   0.00000  Uiso   1.00
H215   H     0.43889   0.14609   0.38658   0.00000  Uiso   1.00
H216   H     0.36429   0.09279   0.48750   0.00000  Uiso   1.00
H217   H     0.51006   0.31654   0.39650   0.00000  Uiso   1.00
H218   H     0.45598   0.01343   0.28536   0.00000  Uiso   1.00
H219   H     0.26007   0.05827   0.58425   0.00000  Uiso   1.00
H220   H     0.56746   0.53004   0.39234   0.00000  Uiso   1.00
H221   H     0.45341   0.89087   0.15799   0.00000  Uiso   1.00
O222   O     0.13701   0.10755   0.59858   0.00000  Uiso   1.00
O223   O     0.54029   0.72648   0.34679   0.00000  Uiso   1.00
O224   O     0.39066   0.88791   0.03932   0.00000  Uiso   1.00
N225   N     0.16172   0.18928   0.49399   0.00000  Uiso   1.00
N226   N     0.44910   0.63036   0.31457   0.00000  Uiso   1.00
N227   N     0.34249   0.03281   0.09546   0.00000  Uiso   1.00
N228   N     0.23814   0.10222   0.54776   0.00000  Uiso   1.00
N229   N     0.52551   0.54330   0.36834   0.00000  Uiso   1.00
N230   N     0.41890   0.94575   0.14923   0.00000  Uiso   1.00
C231   C     0.81102   0.79177   0.29662   0.00000  Uiso   1.00
C232   C     0.78855   0.74223   0.36415   0.00000  Uiso   1.00
C233   C     0.72709   0.74909   0.39098   0.00000  Uiso   1.00
C234   C     0.71615   0.69832   0.45345   0.00000  Uiso   1.00
C235   C     0.67383   0.62991   0.55310   0.00000  Uiso   1.00
C236   C     0.86775   0.86380   0.31471   0.00000  Uiso   1.00
C237   C     0.87288   0.97288   0.29997   0.00000  Uiso   1.00
C238   C     0.92862   0.02443   0.32082   0.00000  Uiso   1.00
C239   C     0.00928   0.14475   0.34367   0.00000  Uiso   1.00
C240   C     0.83835   0.69911   0.25433   0.00000  Uiso   1.00
C241   C     0.81879   0.66972   0.18881   0.00000  Uiso   1.00
C242   C     0.84979   0.58263   0.15881   0.00000  Uiso   1.00
C243   C     0.88482   0.44724   0.08791   0.00000  Uiso   1.00
C244   C     0.90088   0.68939   0.35985   0.00000  Uiso   1.00
C245   C     0.83736   0.68663   0.39849   0.00000  Uiso   1.00
C246   C     0.82651   0.63582   0.46094   0.00000  Uiso   1.00
C247   C     0.76504   0.64260   0.48786   0.00000  Uiso   1.00
C248   C     0.91656   0.80820   0.34905   0.00000  Uiso   1.00
C249   C     0.97230   0.85960   0.36992   0.00000  Uiso   1.00
C250   C     0.97752   0.96873   0.35522   0.00000  Uiso   1.00
C251   C     0.88717   0.64350   0.28867   0.00000  Uiso   1.00
C252   C     0.91821   0.55645   0.25877   0.00000  Uiso   1.00
C253   C     0.89869   0.52693   0.19322   0.00000  Uiso   1.00
H254   H     0.77302   0.83506   0.26988   0.00000  Uiso   1.00
H255   H     0.68933   0.79214   0.36439   0.00000  Uiso   1.00
H256   H     0.83510   0.01588   0.27338   0.00000  Uiso   1.00
H257   H     0.78102   0.71277   0.16225   0.00000  Uiso   1.00
H258   H     0.61807   0.72007   0.48433   0.00000  Uiso   1.00
H259   H     0.92545   0.19183   0.29242   0.00000  Uiso   1.00
H260   H     0.81140   0.55266   0.05806   0.00000  Uiso   1.00
H261   H     0.93889   0.64609   0.38658   0.00000  Uiso   1.00
H262   H     0.86429   0.59279   0.48750   0.00000  Uiso   1.00
H263   H     0.01006   0.81654   0.39650   0.00000  Uiso   1.00
H264   H     0.95598   0.51343   0.28536   0.00000  Uiso   1.00
H265   H     0.76007   0.55827   0.58425   0.00000  Uiso   1.00
H266   H     0.06746   0.03004   0.39234   0.00000  Uiso   1.00
H267   H     0.95341   0.39087   0.15799   0.00000  Uiso   1.00
O268   O     0.63701   0.60755   0.59858   0.00000  Uiso   1.00
O269   O     0.04029   0.22648   0.34679   0.00000  Uiso   1.00
O270   O     0.89066   0.38791   0.03932   0.00000  Uiso   1.00
N271   N     0.66172   0.68928   0.49399   0.00000  Uiso   1.00
N272   N     0.94910   0.13036   0.31457   0.00000  Uiso   1.00
N273   N     0.84249   0.53281   0.09546   0.00000  Uiso   1.00
N274   N     0.73814   0.60222   0.54776   0.00000  Uiso   1.00
N275   N     0.02551   0.04330   0.36834   0.00000  Uiso   1.00
N276   N     0.91890   0.44575   0.14923   0.00000  Uiso   1.00
C277   C     0.68898   0.70823   0.79662   0.00000  Uiso   1.00
C278   C     0.71145   0.75777   0.86415   0.00000  Uiso   1.00
C279   C     0.77291   0.75091   0.89098   0.00000  Uiso   1.00
C280   C     0.78385   0.80168   0.95345   0.00000  Uiso   1.00
C281   C     0.82617   0.87009   0.05310   0.00000  Uiso   1.00
C282   C     0.63225   0.63620   0.81471   0.00000  Uiso   1.00
C283   C     0.62712   0.52712   0.79997   0.00000  Uiso   1.00
C284   C     0.57138   0.47557   0.82082   0.00000  Uiso   1.00
C285   C     0.49072   0.35525   0.84367   0.00000  Uiso   1.00
C286   C     0.66165   0.80089   0.75433   0.00000  Uiso   1.00
C287   C     0.68121   0.83028   0.68881   0.00000  Uiso   1.00
C288   C     0.65021   0.91737   0.65881   0.00000  Uiso   1.00
C289   C     0.61518   0.05276   0.58791   0.00000  Uiso   1.00
C290   C     0.59912   0.81061   0.85985   0.00000  Uiso   1.00
C291   C     0.66264   0.81337   0.89849   0.00000  Uiso   1.00
C292   C     0.67349   0.86418   0.96094   0.00000  Uiso   1.00
C293   C     0.73496   0.85740   0.98786   0.00000  Uiso   1.00
C294   C     0.58344   0.69180   0.84905   0.00000  Uiso   1.00
C295   C     0.52770   0.64040   0.86992   0.00000  Uiso   1.00
C296   C     0.52248   0.53127   0.85522   0.00000  Uiso   1.00
C297   C     0.61283   0.85650   0.78867   0.00000  Uiso   1.00
C298   C     0.58179   0.94355   0.75877   0.00000  Uiso   1.00
C299   C     0.60131   0.97307   0.69322   0.00000  Uiso   1.00
H300   H     0.72698   0.66494   0.76988   0.00000  Uiso   1.00
H301   H     0.81067   0.70786   0.86439   0.00000  Uiso   1.00
H302   H     0.66490   0.48412   0.77338   0.00000  Uiso   1.00
H303   H     0.71898   0.78723   0.66225   0.00000  Uiso   1.00
H304   H     0.88193   0.77993   0.98433   0.00000  Uiso   1.00
H305   H     0.57455   0.30817   0.79242   0.00000  Uiso   1.00
H306   H     0.68860   0.94734   0.55806   0.00000  Uiso   1.00
H307   H     0.56111   0.85391   0.88658   0.00000  Uiso   1.00
H308   H     0.63571   0.90721   0.98750   0.00000  Uiso   1.00
H309   H     0.48994   0.68346   0.89650   0.00000  Uiso   1.00
H310   H     0.54402   0.98657   0.78536   0.00000  Uiso   1.00
H311   H     0.73993   0.94173   0.08425   0.00000  Uiso   1.00
H312   H     0.43254   0.46996   0.89234   0.00000  Uiso   1.00
H313   H     0.54659   0.10913   0.65799   0.00000  Uiso   1.00
O314   O     0.86299   0.89245   0.09858   0.00000  Uiso   1.00
O315   O     0.45971   0.27352   0.84679   0.00000  Uiso   1.00
O316   O     0.60934   0.11209   0.53932   0.00000  Uiso   1.00
N317   N     0.83828   0.81072   0.99399   0.00000  Uiso   1.00
N318   N     0.55090   0.36964   0.81457   0.00000  Uiso   1.00
N319   N     0.65751   0.96719   0.59546   0.00000  Uiso   1.00
N320   N     0.76186   0.89778   0.04776   0.00000  Uiso   1.00
N321   N     0.47449   0.45670   0.86834   0.00000  Uiso   1.00
N322   N     0.58110   0.05425   0.64923   0.00000  Uiso   1.00
C323   C     0.18898   0.20823   0.79662   0.00000  Uiso   1.00
C324   C     0.21145   0.25777   0.86415   0.00000  Uiso   1.00
C325   C     0.27291   0.25091   0.89098   0.00000  Uiso   1.00
C326   C     0.28385   0.30168   0.95345   0.00000  Uiso   1.00
C327   C     0.32617   0.37009   0.05310   0.00000  Uiso   1.00
C328   C     0.13225   0.13620   0.81471   0.00000  Uiso   1.00
C329   C     0.12712   0.02712   0.79997   0.00000  Uiso   1.00
C330   C     0.07138   0.97557   0.82082   0.00000  Uiso   1.00
C331   C     0.99072   0.85525   0.84367   0.00000  Uiso   1.00
C332   C     0.16165   0.30089   0.75433   0.00000  Uiso   1.00
C333   C     0.18121   0.33028   0.68881   0.00000  Uiso   1.00
C334   C     0.15021   0.41737   0.65881   0.00000  Uiso   1.00
C335   C     0.11518   0.55276   0.58791   0.00000  Uiso   1.00
C336   C     0.09912   0.31061   0.85985   0.00000  Uiso   1.00
C337   C     0.16264   0.31337   0.89849   0.00000  Uiso   1.00
C338   C     0.17349   0.36418   0.96094   0.00000  Uiso   1.00
C339   C     0.23496   0.35740   0.98786   0.00000  Uiso   1.00
C340   C     0.08344   0.19180   0.84905   0.00000  Uiso   1.00
C341   C     0.02770   0.14040   0.86992   0.00000  Uiso   1.00
C342   C     0.02248   0.03127   0.85522   0.00000  Uiso   1.00
C343   C     0.11283   0.35650   0.78867   0.00000  Uiso   1.00
C344   C     0.08179   0.44355   0.75877   0.00000  Uiso   1.00
C345   C     0.10131   0.47307   0.69322   0.00000  Uiso   1.00
H346   H     0.22698   0.16494   0.76988   0.00000  Uiso   1.00
H347   H     0.31067   0.20786   0.86439   0.00000  Uiso   1.00
H348   H     0.16490   0.98412   0.77338   0.00000  Uiso   1.00
H349   H     0.21898   0.28723   0.66225   0.00000  Uiso   1.00
H350   H     0.38193   0.27993   0.98433   0.00000  Uiso   1.00
H351   H     0.07455   0.80817   0.79242   0.00000  Uiso   1.00
H352   H     0.18860   0.44734   0.55806   0.00000  Uiso   1.00
H353   H     0.06111   0.35391   0.88658   0.00000  Uiso   1.00
H354   H     0.13571   0.40721   0.98750   0.00000  Uiso   1.00
H355   H     0.98994   0.18346   0.89650   0.00000  Uiso   1.00
H356   H     0.04402   0.48657   0.78536   0.00000  Uiso   1.00
H357   H     0.23993   0.44173   0.08425   0.00000  Uiso   1.00
H358   H     0.93254   0.96996   0.89234   0.00000  Uiso   1.00
H359   H     0.04659   0.60913   0.65799   0.00000  Uiso   1.00
O360   O     0.36299   0.39245   0.09858   0.00000  Uiso   1.00
O361   O     0.95971   0.77352   0.84679   0.00000  Uiso   1.00
O362   O     0.10934   0.61209   0.53932   0.00000  Uiso   1.00
N363   N     0.33828   0.31072   0.99399   0.00000  Uiso   1.00
N364   N     0.05090   0.86964   0.81457   0.00000  Uiso   1.00
N365   N     0.15751   0.46719   0.59546   0.00000  Uiso   1.00
N366   N     0.26186   0.39778   0.04776   0.00000  Uiso   1.00
N367   N     0.97449   0.95670   0.86834   0.00000  Uiso   1.00
N368   N     0.08110   0.55425   0.64923   0.00000  Uiso   1.00
