data_job_06185
_audit_creation_date              2018-12-19
_audit_creation_method            'Materials Studio'
_symmetry_space_group_name_H-M    'P1'
_symmetry_Int_Tables_number       1
_symmetry_cell_setting            triclinic
loop_
_symmetry_equiv_pos_as_xyz
  x,y,z
_cell_length_a                    16.3385
_cell_length_b                    16.1064
_cell_length_c                    15.5134
_cell_angle_alpha                 90.9410
_cell_angle_beta                  90.8731
_cell_angle_gamma                 89.8126
loop_
_atom_site_label
_atom_site_type_symbol
_atom_site_fract_x
_atom_site_fract_y
_atom_site_fract_z
_atom_site_U_iso_or_equiv
_atom_site_adp_type
_atom_site_occupancy
C1     C     0.86629   0.53150   0.80775   0.00000  Uiso   1.00
C2     C     0.82228   0.51419   0.72198   0.00000  Uiso   1.00
C3     C     0.82158   0.56582   0.65123   0.00000  Uiso   1.00
C4     C     0.77770   0.53885   0.57876   0.00000  Uiso   1.00
C5     C     0.71566   0.52355   0.44583   0.00000  Uiso   1.00
C6     C     0.80103   0.52699   0.87673   0.00000  Uiso   1.00
C7     C     0.78246   0.58938   0.93610   0.00000  Uiso   1.00
C8     C     0.72070   0.57317   0.99392   0.00000  Uiso   1.00
C9     C     0.62570   0.57771   0.10128   0.00000  Uiso   1.00
C10    C     0.92304   0.45758   0.82258   0.00000  Uiso   1.00
C11    C     0.00706   0.46160   0.83644   0.00000  Uiso   1.00
C12    C     0.04802   0.38695   0.84869   0.00000  Uiso   1.00
C13    C     0.14246   0.28371   0.87198   0.00000  Uiso   1.00
C14    C     0.78964   0.39179   0.80487   0.00000  Uiso   1.00
C15    C     0.78064   0.43831   0.72042   0.00000  Uiso   1.00
C16    C     0.73676   0.41125   0.64804   0.00000  Uiso   1.00
C17    C     0.73600   0.46283   0.57720   0.00000  Uiso   1.00
C18    C     0.75939   0.45111   0.87517   0.00000  Uiso   1.00
C19    C     0.69765   0.43480   0.93292   0.00000  Uiso   1.00
C20    C     0.67899   0.49715   0.99235   0.00000  Uiso   1.00
C21    C     0.88140   0.38169   0.82101   0.00000  Uiso   1.00
C22    C     0.92224   0.30702   0.83325   0.00000  Uiso   1.00
C23    C     0.00631   0.31093   0.84713   0.00000  Uiso   1.00
H24    H     0.89871   0.59058   0.80897   0.00000  Uiso   1.00
H25    H     0.85380   0.62455   0.65247   0.00000  Uiso   1.00
H26    H     0.81470   0.64809   0.93730   0.00000  Uiso   1.00
H27    H     0.03926   0.52033   0.83765   0.00000  Uiso   1.00
H28    H     0.78563   0.62876   0.47827   0.00000  Uiso   1.00
H29    H     0.70319   0.67839   0.07887   0.00000  Uiso   1.00
H30    H     0.17672   0.40899   0.86875   0.00000  Uiso   1.00
H31    H     0.75722   0.33271   0.80366   0.00000  Uiso   1.00
H32    H     0.70455   0.35252   0.64685   0.00000  Uiso   1.00
H33    H     0.66544   0.37607   0.93169   0.00000  Uiso   1.00
H34    H     0.89000   0.24831   0.83204   0.00000  Uiso   1.00
H35    H     0.66448   0.40798   0.47371   0.00000  Uiso   1.00
H36    H     0.58205   0.45761   0.07433   0.00000  Uiso   1.00
H37    H     0.05558   0.18820   0.86419   0.00000  Uiso   1.00
O38    O     0.69294   0.53607   0.37294   0.00000  Uiso   1.00
O39    O     0.58480   0.60118   0.16093   0.00000  Uiso   1.00
O40    O     0.20605   0.24773   0.88524   0.00000  Uiso   1.00
N41    N     0.76436   0.57407   0.49871   0.00000  Uiso   1.00
N42    N     0.68728   0.62048   0.06023   0.00000  Uiso   1.00
N43    N     0.12998   0.36861   0.86380   0.00000  Uiso   1.00
N44    N     0.69917   0.45527   0.49626   0.00000  Uiso   1.00
N45    N     0.62209   0.50168   0.05778   0.00000  Uiso   1.00
N46    N     0.06480   0.24981   0.86135   0.00000  Uiso   1.00
C47    C     0.80254   0.86651   0.53419   0.00000  Uiso   1.00
C48    C     0.72184   0.82206   0.51513   0.00000  Uiso   1.00
C49    C     0.65428   0.82203   0.56827   0.00000  Uiso   1.00
C50    C     0.58630   0.77761   0.53928   0.00000  Uiso   1.00
C51    C     0.46106   0.71508   0.52177   0.00000  Uiso   1.00
C52    C     0.86900   0.79998   0.52915   0.00000  Uiso   1.00
C53    C     0.92517   0.78139   0.59407   0.00000  Uiso   1.00
C54    C     0.98106   0.71839   0.57686   0.00000  Uiso   1.00
C55    C     0.08433   0.62162   0.58109   0.00000  Uiso   1.00
C56    C     0.81637   0.92343   0.45823   0.00000  Uiso   1.00
C57    C     0.82832   0.00865   0.46353   0.00000  Uiso   1.00
C58    C     0.83993   0.04958   0.38661   0.00000  Uiso   1.00
C59    C     0.86148   0.14449   0.28074   0.00000  Uiso   1.00
C60    C     0.80194   0.78767   0.38819   0.00000  Uiso   1.00
C61    C     0.72152   0.77924   0.43583   0.00000  Uiso   1.00
C62    C     0.65362   0.73480   0.40674   0.00000  Uiso   1.00
C63    C     0.58597   0.73471   0.45983   0.00000  Uiso   1.00
C64    C     0.86868   0.75716   0.44985   0.00000  Uiso   1.00
C65    C     0.92451   0.69417   0.43254   0.00000  Uiso   1.00
C66    C     0.98074   0.67548   0.49741   0.00000  Uiso   1.00
C67    C     0.81605   0.88061   0.37893   0.00000  Uiso   1.00
C68    C     0.82765   0.92142   0.30199   0.00000  Uiso   1.00
C69    C     0.83961   0.00667   0.30717   0.00000  Uiso   1.00
H70    H     0.80280   0.89984   0.59593   0.00000  Uiso   1.00
H71    H     0.65456   0.85517   0.62964   0.00000  Uiso   1.00
H72    H     0.92541   0.81455   0.65543   0.00000  Uiso   1.00
H73    H     0.82856   0.04176   0.52490   0.00000  Uiso   1.00
H74    H     0.49007   0.78674   0.63207   0.00000  Uiso   1.00
H75    H     0.06119   0.70110   0.68642   0.00000  Uiso   1.00
H76    H     0.85699   0.18023   0.41119   0.00000  Uiso   1.00
H77    H     0.80169   0.75432   0.32644   0.00000  Uiso   1.00
H78    H     0.65339   0.70167   0.34537   0.00000  Uiso   1.00
H79    H     0.92424   0.66104   0.37116   0.00000  Uiso   1.00
H80    H     0.82740   0.88826   0.24064   0.00000  Uiso   1.00
H81    H     0.48913   0.66215   0.40134   0.00000  Uiso   1.00
H82    H     0.06025   0.57651   0.45570   0.00000  Uiso   1.00
H83    H     0.85604   0.05564   0.18047   0.00000  Uiso   1.00
O84    O     0.39207   0.69241   0.53403   0.00000  Uiso   1.00
O85    O     0.14137   0.58007   0.60534   0.00000  Uiso   1.00
O86    O     0.87345   0.20867   0.24424   0.00000  Uiso   1.00
N87    N     0.51020   0.76466   0.57516   0.00000  Uiso   1.00
N88    N     0.04415   0.68458   0.62599   0.00000  Uiso   1.00
N89    N     0.85326   0.13252   0.36867   0.00000  Uiso   1.00
N90    N     0.50969   0.69762   0.45101   0.00000  Uiso   1.00
N91    N     0.04364   0.61754   0.50184   0.00000  Uiso   1.00
N92    N     0.85275   0.06548   0.24452   0.00000  Uiso   1.00
C93    C     0.52999   0.80360   0.86826   0.00000  Uiso   1.00
C94    C     0.51338   0.72147   0.82101   0.00000  Uiso   1.00
C95    C     0.56480   0.65272   0.82049   0.00000  Uiso   1.00
C96    C     0.53856   0.58352   0.77335   0.00000  Uiso   1.00
C97    C     0.52418   0.45605   0.70679   0.00000  Uiso   1.00
C98    C     0.52477   0.87053   0.79998   0.00000  Uiso   1.00
C99    C     0.58576   0.92711   0.78179   0.00000  Uiso   1.00
C100   C     0.56910   0.98339   0.71695   0.00000  Uiso   1.00
C101   C     0.57239   0.08738   0.61778   0.00000  Uiso   1.00
C102   C     0.45724   0.81838   0.92705   0.00000  Uiso   1.00
C103   C     0.46146   0.83114   0.01570   0.00000  Uiso   1.00
C104   C     0.38795   0.84354   0.05784   0.00000  Uiso   1.00
C105   C     0.28640   0.86657   0.15596   0.00000  Uiso   1.00
C106   C     0.39196   0.80297   0.78547   0.00000  Uiso   1.00
C107   C     0.43840   0.72113   0.77604   0.00000  Uiso   1.00
C108   C     0.41207   0.65202   0.72889   0.00000  Uiso   1.00
C109   C     0.46344   0.58317   0.72830   0.00000  Uiso   1.00
C110   C     0.44980   0.87019   0.75501   0.00000  Uiso   1.00
C111   C     0.43304   0.92641   0.69019   0.00000  Uiso   1.00
C112   C     0.49399   0.98305   0.67190   0.00000  Uiso   1.00
C113   C     0.38227   0.81804   0.88208   0.00000  Uiso   1.00
C114   C     0.30874   0.83043   0.92409   0.00000  Uiso   1.00
C115   C     0.31284   0.84320   0.01278   0.00000  Uiso   1.00
H116   H     0.58837   0.80388   0.90327   0.00000  Uiso   1.00
H117   H     0.62282   0.65301   0.85530   0.00000  Uiso   1.00
H118   H     0.64377   0.92736   0.81660   0.00000  Uiso   1.00
H119   H     0.51949   0.83140   0.05047   0.00000  Uiso   1.00
H120   H     0.62796   0.48561   0.78225   0.00000  Uiso   1.00
H121   H     0.67214   0.06411   0.70069   0.00000  Uiso   1.00
H122   H     0.41007   0.86177   0.19384   0.00000  Uiso   1.00
H123   H     0.33358   0.80271   0.75046   0.00000  Uiso   1.00
H124   H     0.35405   0.65177   0.69410   0.00000  Uiso   1.00
H125   H     0.37501   0.92612   0.65541   0.00000  Uiso   1.00
H126   H     0.25073   0.83016   0.88927   0.00000  Uiso   1.00
H127   H     0.40982   0.48460   0.65141   0.00000  Uiso   1.00
H128   H     0.45400   0.06311   0.56985   0.00000  Uiso   1.00
H129   H     0.19193   0.86076   0.06301   0.00000  Uiso   1.00
O130   O     0.53697   0.38585   0.68249   0.00000  Uiso   1.00
O131   O     0.59492   0.14483   0.57550   0.00000  Uiso   1.00
O132   O     0.25109   0.87935   0.22250   0.00000  Uiso   1.00
N133   N     0.57381   0.50608   0.75921   0.00000  Uiso   1.00
N134   N     0.61511   0.04694   0.68294   0.00000  Uiso   1.00
N135   N     0.37010   0.85778   0.14400   0.00000  Uiso   1.00
N136   N     0.45643   0.50554   0.68881   0.00000  Uiso   1.00
N137   N     0.49773   0.04640   0.61254   0.00000  Uiso   1.00
N138   N     0.25272   0.85724   0.07360   0.00000  Uiso   1.00
C139   C     0.13371   0.46850   0.19225   0.00000  Uiso   1.00
C140   C     0.17772   0.48581   0.27802   0.00000  Uiso   1.00
C141   C     0.17842   0.43418   0.34877   0.00000  Uiso   1.00
C142   C     0.22230   0.46115   0.42124   0.00000  Uiso   1.00
C143   C     0.28434   0.47645   0.55417   0.00000  Uiso   1.00
C144   C     0.19897   0.47301   0.12327   0.00000  Uiso   1.00
C145   C     0.21754   0.41062   0.06390   0.00000  Uiso   1.00
C146   C     0.27930   0.42683   0.00608   0.00000  Uiso   1.00
C147   C     0.37430   0.42229   0.89872   0.00000  Uiso   1.00
C148   C     0.07696   0.54242   0.17742   0.00000  Uiso   1.00
C149   C     0.99295   0.53840   0.16356   0.00000  Uiso   1.00
C150   C     0.95198   0.61305   0.15131   0.00000  Uiso   1.00
C151   C     0.85754   0.71629   0.12802   0.00000  Uiso   1.00
C152   C     0.21036   0.60821   0.19513   0.00000  Uiso   1.00
C153   C     0.21936   0.56169   0.27958   0.00000  Uiso   1.00
C154   C     0.26324   0.58875   0.35196   0.00000  Uiso   1.00
C155   C     0.26400   0.53717   0.42280   0.00000  Uiso   1.00
C156   C     0.24061   0.54889   0.12483   0.00000  Uiso   1.00
C157   C     0.30235   0.56520   0.06708   0.00000  Uiso   1.00
C158   C     0.32101   0.50285   0.00765   0.00000  Uiso   1.00
C159   C     0.11860   0.61831   0.17899   0.00000  Uiso   1.00
C160   C     0.07776   0.69298   0.16675   0.00000  Uiso   1.00
C161   C     0.99369   0.68907   0.15287   0.00000  Uiso   1.00
H162   H     0.10129   0.40942   0.19103   0.00000  Uiso   1.00
H163   H     0.14620   0.37545   0.34753   0.00000  Uiso   1.00
H164   H     0.18530   0.35191   0.06270   0.00000  Uiso   1.00
H165   H     0.96075   0.47967   0.16235   0.00000  Uiso   1.00
H166   H     0.21437   0.37124   0.52173   0.00000  Uiso   1.00
H167   H     0.29681   0.32161   0.92113   0.00000  Uiso   1.00
H168   H     0.82328   0.59101   0.13125   0.00000  Uiso   1.00
H169   H     0.24278   0.66729   0.19634   0.00000  Uiso   1.00
H170   H     0.29545   0.64748   0.35315   0.00000  Uiso   1.00
H171   H     0.33456   0.62393   0.06831   0.00000  Uiso   1.00
H172   H     0.11000   0.75169   0.16796   0.00000  Uiso   1.00
H173   H     0.33552   0.59202   0.52629   0.00000  Uiso   1.00
H174   H     0.41795   0.54239   0.92567   0.00000  Uiso   1.00
H175   H     0.94442   0.81180   0.13581   0.00000  Uiso   1.00
O176   O     0.30706   0.46393   0.62706   0.00000  Uiso   1.00
O177   O     0.41520   0.39882   0.83907   0.00000  Uiso   1.00
O178   O     0.79395   0.75227   0.11476   0.00000  Uiso   1.00
N179   N     0.23564   0.42593   0.50129   0.00000  Uiso   1.00
N180   N     0.31272   0.37952   0.93977   0.00000  Uiso   1.00
N181   N     0.87002   0.63139   0.13620   0.00000  Uiso   1.00
N182   N     0.30083   0.54473   0.50374   0.00000  Uiso   1.00
N183   N     0.37791   0.49832   0.94222   0.00000  Uiso   1.00
N184   N     0.93520   0.75019   0.13865   0.00000  Uiso   1.00
C185   C     0.19746   0.13349   0.46581   0.00000  Uiso   1.00
C186   C     0.27816   0.17794   0.48487   0.00000  Uiso   1.00
C187   C     0.34572   0.17797   0.43173   0.00000  Uiso   1.00
C188   C     0.41370   0.22239   0.46072   0.00000  Uiso   1.00
C189   C     0.53894   0.28492   0.47823   0.00000  Uiso   1.00
C190   C     0.13100   0.20002   0.47085   0.00000  Uiso   1.00
C191   C     0.07483   0.21861   0.40593   0.00000  Uiso   1.00
C192   C     0.01894   0.28161   0.42314   0.00000  Uiso   1.00
C193   C     0.91567   0.37838   0.41891   0.00000  Uiso   1.00
C194   C     0.18363   0.07657   0.54177   0.00000  Uiso   1.00
C195   C     0.17168   0.99135   0.53647   0.00000  Uiso   1.00
C196   C     0.16007   0.95042   0.61339   0.00000  Uiso   1.00
C197   C     0.13852   0.85551   0.71926   0.00000  Uiso   1.00
C198   C     0.19806   0.21233   0.61181   0.00000  Uiso   1.00
C199   C     0.27848   0.22076   0.56417   0.00000  Uiso   1.00
C200   C     0.34638   0.26520   0.59326   0.00000  Uiso   1.00
C201   C     0.41403   0.26529   0.54017   0.00000  Uiso   1.00
C202   C     0.13132   0.24284   0.55015   0.00000  Uiso   1.00
C203   C     0.07549   0.30583   0.56746   0.00000  Uiso   1.00
C204   C     0.01926   0.32452   0.50259   0.00000  Uiso   1.00
C205   C     0.18395   0.11939   0.62107   0.00000  Uiso   1.00
C206   C     0.17235   0.07858   0.69801   0.00000  Uiso   1.00
C207   C     0.16039   0.99333   0.69283   0.00000  Uiso   1.00
H208   H     0.19720   0.10016   0.40407   0.00000  Uiso   1.00
H209   H     0.34544   0.14483   0.37036   0.00000  Uiso   1.00
H210   H     0.07459   0.18545   0.34457   0.00000  Uiso   1.00
H211   H     0.17144   0.95824   0.47510   0.00000  Uiso   1.00
H212   H     0.50993   0.21326   0.36793   0.00000  Uiso   1.00
H213   H     0.93881   0.29890   0.31358   0.00000  Uiso   1.00
H214   H     0.14301   0.81977   0.58881   0.00000  Uiso   1.00
H215   H     0.19831   0.24568   0.67356   0.00000  Uiso   1.00
H216   H     0.34661   0.29833   0.65463   0.00000  Uiso   1.00
H217   H     0.07576   0.33896   0.62884   0.00000  Uiso   1.00
H218   H     0.17260   0.11174   0.75936   0.00000  Uiso   1.00
H219   H     0.51087   0.33785   0.59866   0.00000  Uiso   1.00
H220   H     0.93975   0.42349   0.54430   0.00000  Uiso   1.00
H221   H     0.14396   0.94436   0.81953   0.00000  Uiso   1.00
O222   O     0.60793   0.30759   0.46597   0.00000  Uiso   1.00
O223   O     0.85863   0.41993   0.39466   0.00000  Uiso   1.00
O224   O     0.12655   0.79133   0.75576   0.00000  Uiso   1.00
N225   N     0.48980   0.23534   0.42484   0.00000  Uiso   1.00
N226   N     0.95585   0.31542   0.37401   0.00000  Uiso   1.00
N227   N     0.14674   0.86748   0.63133   0.00000  Uiso   1.00
N228   N     0.49031   0.30238   0.54899   0.00000  Uiso   1.00
N229   N     0.95636   0.38246   0.49816   0.00000  Uiso   1.00
N230   N     0.14725   0.93452   0.75548   0.00000  Uiso   1.00
C231   C     0.47001   0.19640   0.13174   0.00000  Uiso   1.00
C232   C     0.48662   0.27853   0.17899   0.00000  Uiso   1.00
C233   C     0.43520   0.34728   0.17951   0.00000  Uiso   1.00
C234   C     0.46144   0.41648   0.22665   0.00000  Uiso   1.00
C235   C     0.47582   0.54395   0.29321   0.00000  Uiso   1.00
C236   C     0.47523   0.12947   0.20002   0.00000  Uiso   1.00
C237   C     0.41424   0.07289   0.21821   0.00000  Uiso   1.00
C238   C     0.43090   0.01661   0.28305   0.00000  Uiso   1.00
C239   C     0.42761   0.91262   0.38222   0.00000  Uiso   1.00
C240   C     0.54276   0.18162   0.07295   0.00000  Uiso   1.00
C241   C     0.53854   0.16886   0.98430   0.00000  Uiso   1.00
C242   C     0.61205   0.15646   0.94217   0.00000  Uiso   1.00
C243   C     0.71360   0.13343   0.84404   0.00000  Uiso   1.00
C244   C     0.60804   0.19703   0.21453   0.00000  Uiso   1.00
C245   C     0.56160   0.27887   0.22396   0.00000  Uiso   1.00
C246   C     0.58793   0.34798   0.27111   0.00000  Uiso   1.00
C247   C     0.53656   0.41683   0.27170   0.00000  Uiso   1.00
C248   C     0.55020   0.12981   0.24499   0.00000  Uiso   1.00
C249   C     0.56696   0.07359   0.30981   0.00000  Uiso   1.00
C250   C     0.50601   0.01695   0.32810   0.00000  Uiso   1.00
C251   C     0.61773   0.18196   0.11792   0.00000  Uiso   1.00
C252   C     0.69126   0.16957   0.07591   0.00000  Uiso   1.00
C253   C     0.68716   0.15680   0.98722   0.00000  Uiso   1.00
H254   H     0.41163   0.19612   0.09673   0.00000  Uiso   1.00
H255   H     0.37718   0.34699   0.14470   0.00000  Uiso   1.00
H256   H     0.35623   0.07264   0.18340   0.00000  Uiso   1.00
H257   H     0.48051   0.16860   0.94953   0.00000  Uiso   1.00
H258   H     0.37204   0.51439   0.21775   0.00000  Uiso   1.00
H259   H     0.32786   0.93589   0.29931   0.00000  Uiso   1.00
H260   H     0.58993   0.13823   0.80616   0.00000  Uiso   1.00
H261   H     0.66642   0.19730   0.24954   0.00000  Uiso   1.00
H262   H     0.64595   0.34823   0.30590   0.00000  Uiso   1.00
H263   H     0.62499   0.07388   0.34459   0.00000  Uiso   1.00
H264   H     0.74927   0.16984   0.11073   0.00000  Uiso   1.00
H265   H     0.59018   0.51540   0.34859   0.00000  Uiso   1.00
H266   H     0.54600   0.93689   0.43015   0.00000  Uiso   1.00
H267   H     0.80807   0.13924   0.93699   0.00000  Uiso   1.00
O268   O     0.46303   0.61415   0.31751   0.00000  Uiso   1.00
O269   O     0.40508   0.85517   0.42450   0.00000  Uiso   1.00
O270   O     0.74891   0.12065   0.77750   0.00000  Uiso   1.00
N271   N     0.42619   0.49392   0.24079   0.00000  Uiso   1.00
N272   N     0.38489   0.95306   0.31706   0.00000  Uiso   1.00
N273   N     0.62990   0.14222   0.85600   0.00000  Uiso   1.00
N274   N     0.54357   0.49446   0.31119   0.00000  Uiso   1.00
N275   N     0.50227   0.95360   0.38746   0.00000  Uiso   1.00
N276   N     0.74728   0.14276   0.92640   0.00000  Uiso   1.00
