data_job_03945
_audit_creation_date              2018-12-19
_audit_creation_method            'Materials Studio'
_symmetry_space_group_name_H-M    'P1'
_symmetry_Int_Tables_number       1
_symmetry_cell_setting            triclinic
loop_
_symmetry_equiv_pos_as_xyz
  x,y,z
_cell_length_a                    12.6196
_cell_length_b                    13.0585
_cell_length_c                    12.5289
_cell_angle_alpha                 90.0000
_cell_angle_beta                  100.0913
_cell_angle_gamma                 90.0000
loop_
_atom_site_label
_atom_site_type_symbol
_atom_site_fract_x
_atom_site_fract_y
_atom_site_fract_z
_atom_site_U_iso_or_equiv
_atom_site_adp_type
_atom_site_occupancy
C1     C     0.73867   0.43486   0.39747   0.00000  Uiso   1.00
C2     C     0.78330   0.51182   0.48548   0.00000  Uiso   1.00
C3     C     0.83829   0.48786   0.58831   0.00000  Uiso   1.00
C4     C     0.87258   0.56927   0.65701   0.00000  Uiso   1.00
C5     C     0.94489   0.67330   0.79872   0.00000  Uiso   1.00
C6     C     0.61887   0.45840   0.36633   0.00000  Uiso   1.00
C7     C     0.53561   0.38953   0.36897   0.00000  Uiso   1.00
C8     C     0.43148   0.42597   0.33735   0.00000  Uiso   1.00
C9     C     0.24852   0.44705   0.29399   0.00000  Uiso   1.00
C10    C     0.78854   0.46263   0.29890   0.00000  Uiso   1.00
C11    C     0.84791   0.39731   0.24481   0.00000  Uiso   1.00
C12    C     0.88660   0.43731   0.15640   0.00000  Uiso   1.00
C13    C     0.96707   0.46496   0.00835   0.00000  Uiso   1.00
C14    C     0.70179   0.62204   0.33661   0.00000  Uiso   1.00
C15    C     0.76327   0.61348   0.45243   0.00000  Uiso   1.00
C16    C     0.79749   0.69495   0.52098   0.00000  Uiso   1.00
C17    C     0.85252   0.67112   0.62390   0.00000  Uiso   1.00
C18    C     0.59884   0.56006   0.33328   0.00000  Uiso   1.00
C19    C     0.49481   0.59662   0.30164   0.00000  Uiso   1.00
C20    C     0.41141   0.52782   0.30423   0.00000  Uiso   1.00
C21    C     0.76851   0.56430   0.26584   0.00000  Uiso   1.00
C22    C     0.80711   0.60440   0.17749   0.00000  Uiso   1.00
C23    C     0.86653   0.53916   0.12329   0.00000  Uiso   1.00
H24    H     0.75425   0.35571   0.42320   0.00000  Uiso   1.00
H25    H     0.85376   0.40918   0.61387   0.00000  Uiso   1.00
H26    H     0.55114   0.31086   0.39454   0.00000  Uiso   1.00
H27    H     0.86339   0.31865   0.27042   0.00000  Uiso   1.00
H28    H     0.95522   0.51329   0.81069   0.00000  Uiso   1.00
H29    H     0.31712   0.30597   0.34820   0.00000  Uiso   1.00
H30    H     0.97556   0.32238   0.08645   0.00000  Uiso   1.00
H31    H     0.68619   0.70119   0.31088   0.00000  Uiso   1.00
H32    H     0.78197   0.77361   0.49538   0.00000  Uiso   1.00
H33    H     0.47934   0.67529   0.27606   0.00000  Uiso   1.00
H34    H     0.79159   0.68308   0.15193   0.00000  Uiso   1.00
H35    H     0.89695   0.80908   0.71452   0.00000  Uiso   1.00
H36    H     0.25884   0.60176   0.25202   0.00000  Uiso   1.00
H37    H     0.91729   0.61817   0.99028   0.00000  Uiso   1.00
O38    O     0.99029   0.70259   0.88602   0.00000  Uiso   1.00
O39    O     0.15313   0.43059   0.27922   0.00000  Uiso   1.00
O40    O     0.01699   0.45213   0.93583   0.00000  Uiso   1.00
N41    N     0.92838   0.57296   0.76273   0.00000  Uiso   1.00
N42    N     0.33179   0.37914   0.33034   0.00000  Uiso   1.00
N43    N     0.94736   0.39447   0.08561   0.00000  Uiso   1.00
N44    N     0.89703   0.73212   0.71098   0.00000  Uiso   1.00
N45    N     0.30044   0.53830   0.27859   0.00000  Uiso   1.00
N46    N     0.91600   0.55363   0.03387   0.00000  Uiso   1.00
C47    C     0.26133   0.93486   0.60253   0.00000  Uiso   1.00
C48    C     0.21670   0.01182   0.51452   0.00000  Uiso   1.00
C49    C     0.16171   0.98786   0.41169   0.00000  Uiso   1.00
C50    C     0.12742   0.06927   0.34299   0.00000  Uiso   1.00
C51    C     0.05511   0.17330   0.20128   0.00000  Uiso   1.00
C52    C     0.38113   0.95840   0.63367   0.00000  Uiso   1.00
C53    C     0.46439   0.88953   0.63103   0.00000  Uiso   1.00
C54    C     0.56852   0.92597   0.66265   0.00000  Uiso   1.00
C55    C     0.75148   0.94705   0.70601   0.00000  Uiso   1.00
C56    C     0.21146   0.96263   0.70110   0.00000  Uiso   1.00
C57    C     0.15209   0.89731   0.75519   0.00000  Uiso   1.00
C58    C     0.11340   0.93731   0.84360   0.00000  Uiso   1.00
C59    C     0.03293   0.96496   0.99165   0.00000  Uiso   1.00
C60    C     0.29821   0.12204   0.66339   0.00000  Uiso   1.00
C61    C     0.23673   0.11348   0.54757   0.00000  Uiso   1.00
C62    C     0.20251   0.19495   0.47902   0.00000  Uiso   1.00
C63    C     0.14748   0.17112   0.37610   0.00000  Uiso   1.00
C64    C     0.40116   0.06006   0.66672   0.00000  Uiso   1.00
C65    C     0.50519   0.09662   0.69836   0.00000  Uiso   1.00
C66    C     0.58859   0.02782   0.69577   0.00000  Uiso   1.00
C67    C     0.23149   0.06430   0.73416   0.00000  Uiso   1.00
C68    C     0.19289   0.10440   0.82251   0.00000  Uiso   1.00
C69    C     0.13347   0.03916   0.87671   0.00000  Uiso   1.00
H70    H     0.24575   0.85571   0.57680   0.00000  Uiso   1.00
H71    H     0.14624   0.90918   0.38613   0.00000  Uiso   1.00
H72    H     0.44886   0.81086   0.60546   0.00000  Uiso   1.00
H73    H     0.13661   0.81865   0.72958   0.00000  Uiso   1.00
H74    H     0.04478   0.01329   0.18931   0.00000  Uiso   1.00
H75    H     0.68288   0.80597   0.65180   0.00000  Uiso   1.00
H76    H     0.02444   0.82238   0.91355   0.00000  Uiso   1.00
H77    H     0.31381   0.20119   0.68912   0.00000  Uiso   1.00
H78    H     0.21803   0.27361   0.50462   0.00000  Uiso   1.00
H79    H     0.52066   0.17529   0.72394   0.00000  Uiso   1.00
H80    H     0.20841   0.18308   0.84807   0.00000  Uiso   1.00
H81    H     0.10305   0.30908   0.28548   0.00000  Uiso   1.00
H82    H     0.74116   0.10176   0.74798   0.00000  Uiso   1.00
H83    H     0.08271   0.11817   0.00972   0.00000  Uiso   1.00
O84    O     0.00971   0.20259   0.11398   0.00000  Uiso   1.00
O85    O     0.84687   0.93059   0.72078   0.00000  Uiso   1.00
O86    O     0.98301   0.95213   0.06417   0.00000  Uiso   1.00
N87    N     0.07162   0.07296   0.23727   0.00000  Uiso   1.00
N88    N     0.66821   0.87914   0.66966   0.00000  Uiso   1.00
N89    N     0.05264   0.89447   0.91439   0.00000  Uiso   1.00
N90    N     0.10297   0.23212   0.28902   0.00000  Uiso   1.00
N91    N     0.69956   0.03830   0.72141   0.00000  Uiso   1.00
N92    N     0.08400   0.05363   0.96613   0.00000  Uiso   1.00
