data_job_03920
_audit_creation_date              2018-12-19
_audit_creation_method            'Materials Studio'
_symmetry_space_group_name_H-M    'P1'
_symmetry_Int_Tables_number       1
_symmetry_cell_setting            triclinic
loop_
_symmetry_equiv_pos_as_xyz
  x,y,z
_cell_length_a                    9.5747
_cell_length_b                    21.2618
_cell_length_c                    14.0493
_cell_angle_alpha                 90.0000
_cell_angle_beta                  98.2413
_cell_angle_gamma                 90.0000
loop_
_atom_site_label
_atom_site_type_symbol
_atom_site_fract_x
_atom_site_fract_y
_atom_site_fract_z
_atom_site_U_iso_or_equiv
_atom_site_adp_type
_atom_site_occupancy
C1     C     0.72894   0.65844   0.53937   0.00000  Uiso   1.00
C2     C     0.60633   0.62536   0.57676   0.00000  Uiso   1.00
C3     C     0.61090   0.59753   0.66650   0.00000  Uiso   1.00
C4     C     0.48751   0.56967   0.68704   0.00000  Uiso   1.00
C5     C     0.31593   0.51827   0.75524   0.00000  Uiso   1.00
C6     C     0.74772   0.62537   0.44573   0.00000  Uiso   1.00
C7     C     0.87116   0.59756   0.42531   0.00000  Uiso   1.00
C8     C     0.86679   0.56971   0.33554   0.00000  Uiso   1.00
C9     C     0.91474   0.51837   0.20030   0.00000  Uiso   1.00
C10    C     0.67703   0.72459   0.51125   0.00000  Uiso   1.00
C11    C     0.74106   0.78022   0.54589   0.00000  Uiso   1.00
C12    C     0.67720   0.83592   0.51127   0.00000  Uiso   1.00
C13    C     0.61540   0.93865   0.47775   0.00000  Uiso   1.00
C14    C     0.50168   0.65844   0.41625   0.00000  Uiso   1.00
C15    C     0.48290   0.62536   0.50988   0.00000  Uiso   1.00
C16    C     0.35947   0.59754   0.53028   0.00000  Uiso   1.00
C17    C     0.36385   0.56968   0.62004   0.00000  Uiso   1.00
C18    C     0.62429   0.62537   0.37886   0.00000  Uiso   1.00
C19    C     0.61973   0.59756   0.28909   0.00000  Uiso   1.00
C20    C     0.74313   0.56971   0.26854   0.00000  Uiso   1.00
C21    C     0.55359   0.72460   0.44437   0.00000  Uiso   1.00
C22    C     0.48962   0.78022   0.40968   0.00000  Uiso   1.00
C23    C     0.55354   0.83592   0.44427   0.00000  Uiso   1.00
H24    H     0.82504   0.65844   0.59143   0.00000  Uiso   1.00
H25    H     0.70645   0.59753   0.71823   0.00000  Uiso   1.00
H26    H     0.96667   0.59757   0.47707   0.00000  Uiso   1.00
H27    H     0.83658   0.78020   0.59764   0.00000  Uiso   1.00
H28    H     0.52054   0.52999   0.82931   0.00000  Uiso   1.00
H29    H     0.06925   0.53008   0.32081   0.00000  Uiso   1.00
H30    H     0.79495   0.91520   0.57505   0.00000  Uiso   1.00
H31    H     0.40558   0.65845   0.36418   0.00000  Uiso   1.00
H32    H     0.26396   0.59755   0.47851   0.00000  Uiso   1.00
H33    H     0.52419   0.59757   0.23736   0.00000  Uiso   1.00
H34    H     0.39411   0.78021   0.35793   0.00000  Uiso   1.00
H35    H     0.16141   0.53000   0.63474   0.00000  Uiso   1.00
H36    H     0.71012   0.53009   0.12624   0.00000  Uiso   1.00
H37    H     0.43581   0.91521   0.38048   0.00000  Uiso   1.00
O38    O     0.25540   0.48992   0.81133   0.00000  Uiso   1.00
O39    O     0.97529   0.49004   0.14419   0.00000  Uiso   1.00
O40    O     0.61540   0.99531   0.47775   0.00000  Uiso   1.00
N41    N     0.45545   0.53837   0.76783   0.00000  Uiso   1.00
N42    N     0.96845   0.53843   0.29242   0.00000  Uiso   1.00
N43    N     0.71202   0.89849   0.53009   0.00000  Uiso   1.00
N44    N     0.26220   0.53837   0.66314   0.00000  Uiso   1.00
N45    N     0.77521   0.53844   0.18773   0.00000  Uiso   1.00
N46    N     0.51877   0.89849   0.42540   0.00000  Uiso   1.00
C47    C     0.22894   0.15844   0.53937   0.00000  Uiso   1.00
C48    C     0.10633   0.12536   0.57676   0.00000  Uiso   1.00
C49    C     0.11090   0.09753   0.66650   0.00000  Uiso   1.00
C50    C     0.98751   0.06967   0.68704   0.00000  Uiso   1.00
C51    C     0.81593   0.01827   0.75524   0.00000  Uiso   1.00
C52    C     0.24772   0.12537   0.44573   0.00000  Uiso   1.00
C53    C     0.37116   0.09756   0.42531   0.00000  Uiso   1.00
C54    C     0.36679   0.06971   0.33554   0.00000  Uiso   1.00
C55    C     0.41474   0.01837   0.20030   0.00000  Uiso   1.00
C56    C     0.17703   0.22459   0.51125   0.00000  Uiso   1.00
C57    C     0.24106   0.28022   0.54589   0.00000  Uiso   1.00
C58    C     0.17720   0.33592   0.51127   0.00000  Uiso   1.00
C59    C     0.11540   0.43865   0.47775   0.00000  Uiso   1.00
C60    C     0.00168   0.15844   0.41625   0.00000  Uiso   1.00
C61    C     0.98290   0.12536   0.50988   0.00000  Uiso   1.00
C62    C     0.85947   0.09754   0.53028   0.00000  Uiso   1.00
C63    C     0.86385   0.06968   0.62004   0.00000  Uiso   1.00
C64    C     0.12429   0.12537   0.37886   0.00000  Uiso   1.00
C65    C     0.11973   0.09756   0.28909   0.00000  Uiso   1.00
C66    C     0.24313   0.06971   0.26854   0.00000  Uiso   1.00
C67    C     0.05359   0.22460   0.44437   0.00000  Uiso   1.00
C68    C     0.98962   0.28022   0.40968   0.00000  Uiso   1.00
C69    C     0.05354   0.33592   0.44427   0.00000  Uiso   1.00
H70    H     0.32504   0.15844   0.59143   0.00000  Uiso   1.00
H71    H     0.20645   0.09753   0.71823   0.00000  Uiso   1.00
H72    H     0.46667   0.09757   0.47707   0.00000  Uiso   1.00
H73    H     0.33658   0.28020   0.59764   0.00000  Uiso   1.00
H74    H     0.02054   0.02999   0.82931   0.00000  Uiso   1.00
H75    H     0.56925   0.03008   0.32081   0.00000  Uiso   1.00
H76    H     0.29495   0.41520   0.57505   0.00000  Uiso   1.00
H77    H     0.90558   0.15845   0.36418   0.00000  Uiso   1.00
H78    H     0.76396   0.09755   0.47851   0.00000  Uiso   1.00
H79    H     0.02419   0.09757   0.23736   0.00000  Uiso   1.00
H80    H     0.89411   0.28021   0.35793   0.00000  Uiso   1.00
H81    H     0.66141   0.03000   0.63474   0.00000  Uiso   1.00
H82    H     0.21012   0.03009   0.12624   0.00000  Uiso   1.00
H83    H     0.93581   0.41521   0.38048   0.00000  Uiso   1.00
O84    O     0.75540   0.98992   0.81133   0.00000  Uiso   1.00
O85    O     0.47529   0.99004   0.14419   0.00000  Uiso   1.00
O86    O     0.11540   0.49531   0.47775   0.00000  Uiso   1.00
N87    N     0.95545   0.03837   0.76783   0.00000  Uiso   1.00
N88    N     0.46845   0.03843   0.29242   0.00000  Uiso   1.00
N89    N     0.21202   0.39849   0.53009   0.00000  Uiso   1.00
N90    N     0.76220   0.03837   0.66314   0.00000  Uiso   1.00
N91    N     0.27521   0.03844   0.18773   0.00000  Uiso   1.00
N92    N     0.01877   0.39849   0.42540   0.00000  Uiso   1.00
C93    C     0.72894   0.34156   0.03937   0.00000  Uiso   1.00
C94    C     0.60633   0.37464   0.07676   0.00000  Uiso   1.00
C95    C     0.61090   0.40247   0.16650   0.00000  Uiso   1.00
C96    C     0.48751   0.43033   0.18704   0.00000  Uiso   1.00
C97    C     0.31593   0.48173   0.25524   0.00000  Uiso   1.00
C98    C     0.74772   0.37463   0.94573   0.00000  Uiso   1.00
C99    C     0.87116   0.40244   0.92531   0.00000  Uiso   1.00
C100   C     0.86679   0.43029   0.83554   0.00000  Uiso   1.00
C101   C     0.91474   0.48163   0.70030   0.00000  Uiso   1.00
C102   C     0.67703   0.27541   0.01125   0.00000  Uiso   1.00
C103   C     0.74106   0.21978   0.04589   0.00000  Uiso   1.00
C104   C     0.67720   0.16408   0.01127   0.00000  Uiso   1.00
C105   C     0.61540   0.06135   0.97775   0.00000  Uiso   1.00
C106   C     0.50168   0.34156   0.91625   0.00000  Uiso   1.00
C107   C     0.48290   0.37464   0.00988   0.00000  Uiso   1.00
C108   C     0.35947   0.40246   0.03028   0.00000  Uiso   1.00
C109   C     0.36385   0.43032   0.12004   0.00000  Uiso   1.00
C110   C     0.62429   0.37463   0.87886   0.00000  Uiso   1.00
C111   C     0.61973   0.40244   0.78909   0.00000  Uiso   1.00
C112   C     0.74313   0.43029   0.76854   0.00000  Uiso   1.00
C113   C     0.55359   0.27540   0.94437   0.00000  Uiso   1.00
C114   C     0.48962   0.21978   0.90968   0.00000  Uiso   1.00
C115   C     0.55354   0.16408   0.94427   0.00000  Uiso   1.00
H116   H     0.82504   0.34156   0.09143   0.00000  Uiso   1.00
H117   H     0.70645   0.40247   0.21823   0.00000  Uiso   1.00
H118   H     0.96667   0.40243   0.97707   0.00000  Uiso   1.00
H119   H     0.83658   0.21980   0.09764   0.00000  Uiso   1.00
H120   H     0.52054   0.47001   0.32931   0.00000  Uiso   1.00
H121   H     0.06925   0.46992   0.82081   0.00000  Uiso   1.00
H122   H     0.79495   0.08480   0.07505   0.00000  Uiso   1.00
H123   H     0.40558   0.34155   0.86418   0.00000  Uiso   1.00
H124   H     0.26396   0.40245   0.97851   0.00000  Uiso   1.00
H125   H     0.52419   0.40243   0.73736   0.00000  Uiso   1.00
H126   H     0.39411   0.21979   0.85793   0.00000  Uiso   1.00
H127   H     0.16141   0.47000   0.13474   0.00000  Uiso   1.00
H128   H     0.71012   0.46991   0.62624   0.00000  Uiso   1.00
H129   H     0.43581   0.08479   0.88048   0.00000  Uiso   1.00
O130   O     0.25540   0.51008   0.31133   0.00000  Uiso   1.00
O131   O     0.97529   0.50996   0.64419   0.00000  Uiso   1.00
O132   O     0.61540   0.00469   0.97775   0.00000  Uiso   1.00
N133   N     0.45545   0.46163   0.26783   0.00000  Uiso   1.00
N134   N     0.96845   0.46157   0.79242   0.00000  Uiso   1.00
N135   N     0.71202   0.10151   0.03009   0.00000  Uiso   1.00
N136   N     0.26220   0.46163   0.16314   0.00000  Uiso   1.00
N137   N     0.77521   0.46156   0.68773   0.00000  Uiso   1.00
N138   N     0.51877   0.10151   0.92540   0.00000  Uiso   1.00
C139   C     0.22894   0.84156   0.03937   0.00000  Uiso   1.00
C140   C     0.10633   0.87464   0.07676   0.00000  Uiso   1.00
C141   C     0.11090   0.90247   0.16650   0.00000  Uiso   1.00
C142   C     0.98751   0.93033   0.18704   0.00000  Uiso   1.00
C143   C     0.81593   0.98173   0.25524   0.00000  Uiso   1.00
C144   C     0.24772   0.87463   0.94573   0.00000  Uiso   1.00
C145   C     0.37116   0.90244   0.92531   0.00000  Uiso   1.00
C146   C     0.36679   0.93029   0.83554   0.00000  Uiso   1.00
C147   C     0.41474   0.98163   0.70030   0.00000  Uiso   1.00
C148   C     0.17703   0.77541   0.01125   0.00000  Uiso   1.00
C149   C     0.24106   0.71978   0.04589   0.00000  Uiso   1.00
C150   C     0.17720   0.66408   0.01127   0.00000  Uiso   1.00
C151   C     0.11540   0.56135   0.97775   0.00000  Uiso   1.00
C152   C     0.00168   0.84156   0.91625   0.00000  Uiso   1.00
C153   C     0.98290   0.87464   0.00988   0.00000  Uiso   1.00
C154   C     0.85947   0.90246   0.03028   0.00000  Uiso   1.00
C155   C     0.86385   0.93032   0.12004   0.00000  Uiso   1.00
C156   C     0.12429   0.87463   0.87886   0.00000  Uiso   1.00
C157   C     0.11973   0.90244   0.78909   0.00000  Uiso   1.00
C158   C     0.24313   0.93029   0.76854   0.00000  Uiso   1.00
C159   C     0.05359   0.77540   0.94437   0.00000  Uiso   1.00
C160   C     0.98962   0.71978   0.90968   0.00000  Uiso   1.00
C161   C     0.05354   0.66408   0.94427   0.00000  Uiso   1.00
H162   H     0.32504   0.84156   0.09143   0.00000  Uiso   1.00
H163   H     0.20645   0.90247   0.21823   0.00000  Uiso   1.00
H164   H     0.46667   0.90243   0.97707   0.00000  Uiso   1.00
H165   H     0.33658   0.71980   0.09764   0.00000  Uiso   1.00
H166   H     0.02054   0.97001   0.32931   0.00000  Uiso   1.00
H167   H     0.56925   0.96992   0.82081   0.00000  Uiso   1.00
H168   H     0.29495   0.58480   0.07505   0.00000  Uiso   1.00
H169   H     0.90558   0.84155   0.86418   0.00000  Uiso   1.00
H170   H     0.76396   0.90245   0.97851   0.00000  Uiso   1.00
H171   H     0.02419   0.90243   0.73736   0.00000  Uiso   1.00
H172   H     0.89411   0.71979   0.85793   0.00000  Uiso   1.00
H173   H     0.66141   0.97000   0.13474   0.00000  Uiso   1.00
H174   H     0.21012   0.96991   0.62624   0.00000  Uiso   1.00
H175   H     0.93581   0.58479   0.88048   0.00000  Uiso   1.00
O176   O     0.75540   0.01008   0.31133   0.00000  Uiso   1.00
O177   O     0.47529   0.00996   0.64419   0.00000  Uiso   1.00
O178   O     0.11540   0.50469   0.97775   0.00000  Uiso   1.00
N179   N     0.95545   0.96163   0.26783   0.00000  Uiso   1.00
N180   N     0.46845   0.96157   0.79242   0.00000  Uiso   1.00
N181   N     0.21202   0.60151   0.03009   0.00000  Uiso   1.00
N182   N     0.76220   0.96163   0.16314   0.00000  Uiso   1.00
N183   N     0.27521   0.96156   0.68773   0.00000  Uiso   1.00
N184   N     0.01877   0.60151   0.92540   0.00000  Uiso   1.00
