data_job_03287
_audit_creation_date              2018-12-19
_audit_creation_method            'Materials Studio'
_symmetry_space_group_name_H-M    'P1'
_symmetry_Int_Tables_number       1
_symmetry_cell_setting            triclinic
loop_
_symmetry_equiv_pos_as_xyz
  x,y,z
_cell_length_a                    26.7926
_cell_length_b                    26.7926
_cell_length_c                    9.0121
_cell_angle_alpha                 90.0000
_cell_angle_beta                  90.0000
_cell_angle_gamma                 90.0000
loop_
_atom_site_label
_atom_site_type_symbol
_atom_site_fract_x
_atom_site_fract_y
_atom_site_fract_z
_atom_site_U_iso_or_equiv
_atom_site_adp_type
_atom_site_occupancy
C1     C     0.75923   0.60473   0.51955   0.00000  Uiso   1.00
C2     C     0.75725   0.55263   0.58742   0.00000  Uiso   1.00
C3     C     0.73252   0.51175   0.52793   0.00000  Uiso   1.00
C4     C     0.73517   0.46734   0.60693   0.00000  Uiso   1.00
C5     C     0.72806   0.38696   0.69202   0.00000  Uiso   1.00
C6     C     0.73935   0.64013   0.63813   0.00000  Uiso   1.00
C7     C     0.69958   0.67283   0.62126   0.00000  Uiso   1.00
C8     C     0.68717   0.70209   0.74295   0.00000  Uiso   1.00
C9     C     0.65230   0.75759   0.90674   0.00000  Uiso   1.00
C10    C     0.81443   0.61719   0.50175   0.00000  Uiso   1.00
C11    C     0.83779   0.63061   0.37022   0.00000  Uiso   1.00
C12    C     0.88860   0.64057   0.37710   0.00000  Uiso   1.00
C13    C     0.97030   0.66045   0.32913   0.00000  Uiso   1.00
C14    C     0.80791   0.59855   0.76564   0.00000  Uiso   1.00
C15    C     0.78369   0.54927   0.72109   0.00000  Uiso   1.00
C16    C     0.78639   0.50491   0.80020   0.00000  Uiso   1.00
C17    C     0.76167   0.46398   0.74083   0.00000  Uiso   1.00
C18    C     0.76580   0.63678   0.77179   0.00000  Uiso   1.00
C19    C     0.75345   0.66600   0.89353   0.00000  Uiso   1.00
C20    C     0.71367   0.69873   0.87686   0.00000  Uiso   1.00
C21    C     0.84088   0.61383   0.63542   0.00000  Uiso   1.00
C22    C     0.89166   0.62378   0.64250   0.00000  Uiso   1.00
C23    C     0.91509   0.63721   0.51101   0.00000  Uiso   1.00
H24    H     0.73864   0.60734   0.41549   0.00000  Uiso   1.00
H25    H     0.71205   0.51436   0.42449   0.00000  Uiso   1.00
H26    H     0.67913   0.67542   0.51781   0.00000  Uiso   1.00
H27    H     0.81732   0.63321   0.26681   0.00000  Uiso   1.00
H28    H     0.69423   0.40980   0.49344   0.00000  Uiso   1.00
H29    H     0.62481   0.74942   0.69019   0.00000  Uiso   1.00
H30    H     0.91621   0.66040   0.16091   0.00000  Uiso   1.00
H31    H     0.82850   0.59594   0.86971   0.00000  Uiso   1.00
H32    H     0.80685   0.50233   0.90364   0.00000  Uiso   1.00
H33    H     0.77392   0.66339   0.99695   0.00000  Uiso   1.00
H34    H     0.91211   0.62118   0.74595   0.00000  Uiso   1.00
H35    H     0.77117   0.40004   0.88234   0.00000  Uiso   1.00
H36    H     0.70175   0.73966   0.07909   0.00000  Uiso   1.00
H37    H     0.99315   0.65064   0.54980   0.00000  Uiso   1.00
O38    O     0.71682   0.34355   0.70204   0.00000  Uiso   1.00
O39    O     0.62575   0.78913   0.96015   0.00000  Uiso   1.00
O40    O     0.00806   0.67233   0.26574   0.00000  Uiso   1.00
N41    N     0.71532   0.42035   0.58030   0.00000  Uiso   1.00
N42    N     0.65041   0.73787   0.76425   0.00000  Uiso   1.00
N43    N     0.92284   0.65465   0.26942   0.00000  Uiso   1.00
N44    N     0.75672   0.41509   0.78956   0.00000  Uiso   1.00
N45    N     0.69181   0.73261   0.97352   0.00000  Uiso   1.00
N46    N     0.96424   0.64940   0.47869   0.00000  Uiso   1.00
C47    C     0.24077   0.39527   0.51955   0.00000  Uiso   1.00
C48    C     0.24275   0.44737   0.58742   0.00000  Uiso   1.00
C49    C     0.26748   0.48825   0.52793   0.00000  Uiso   1.00
C50    C     0.26483   0.53266   0.60693   0.00000  Uiso   1.00
C51    C     0.27194   0.61304   0.69202   0.00000  Uiso   1.00
C52    C     0.26065   0.35987   0.63813   0.00000  Uiso   1.00
C53    C     0.30042   0.32717   0.62126   0.00000  Uiso   1.00
C54    C     0.31283   0.29791   0.74295   0.00000  Uiso   1.00
C55    C     0.34770   0.24241   0.90674   0.00000  Uiso   1.00
C56    C     0.18557   0.38281   0.50175   0.00000  Uiso   1.00
C57    C     0.16221   0.36939   0.37022   0.00000  Uiso   1.00
C58    C     0.11140   0.35943   0.37710   0.00000  Uiso   1.00
C59    C     0.02970   0.33955   0.32913   0.00000  Uiso   1.00
C60    C     0.19209   0.40145   0.76564   0.00000  Uiso   1.00
C61    C     0.21631   0.45073   0.72109   0.00000  Uiso   1.00
C62    C     0.21361   0.49509   0.80020   0.00000  Uiso   1.00
C63    C     0.23833   0.53602   0.74083   0.00000  Uiso   1.00
C64    C     0.23420   0.36322   0.77179   0.00000  Uiso   1.00
C65    C     0.24655   0.33400   0.89353   0.00000  Uiso   1.00
C66    C     0.28633   0.30127   0.87686   0.00000  Uiso   1.00
C67    C     0.15912   0.38617   0.63542   0.00000  Uiso   1.00
C68    C     0.10834   0.37622   0.64250   0.00000  Uiso   1.00
C69    C     0.08491   0.36279   0.51101   0.00000  Uiso   1.00
H70    H     0.26136   0.39266   0.41549   0.00000  Uiso   1.00
H71    H     0.28795   0.48564   0.42449   0.00000  Uiso   1.00
H72    H     0.32087   0.32458   0.51781   0.00000  Uiso   1.00
H73    H     0.18268   0.36679   0.26681   0.00000  Uiso   1.00
H74    H     0.30577   0.59020   0.49344   0.00000  Uiso   1.00
H75    H     0.37519   0.25058   0.69019   0.00000  Uiso   1.00
H76    H     0.08379   0.33960   0.16091   0.00000  Uiso   1.00
H77    H     0.17150   0.40406   0.86971   0.00000  Uiso   1.00
H78    H     0.19315   0.49767   0.90364   0.00000  Uiso   1.00
H79    H     0.22608   0.33661   0.99695   0.00000  Uiso   1.00
H80    H     0.08789   0.37882   0.74595   0.00000  Uiso   1.00
H81    H     0.22883   0.59996   0.88234   0.00000  Uiso   1.00
H82    H     0.29825   0.26034   0.07909   0.00000  Uiso   1.00
H83    H     0.00685   0.34936   0.54980   0.00000  Uiso   1.00
O84    O     0.28318   0.65645   0.70204   0.00000  Uiso   1.00
O85    O     0.37425   0.21087   0.96015   0.00000  Uiso   1.00
O86    O     0.99194   0.32767   0.26574   0.00000  Uiso   1.00
N87    N     0.28468   0.57965   0.58030   0.00000  Uiso   1.00
N88    N     0.34959   0.26213   0.76425   0.00000  Uiso   1.00
N89    N     0.07716   0.34535   0.26942   0.00000  Uiso   1.00
N90    N     0.24328   0.58491   0.78956   0.00000  Uiso   1.00
N91    N     0.30819   0.26739   0.97352   0.00000  Uiso   1.00
N92    N     0.03576   0.35060   0.47869   0.00000  Uiso   1.00
C93    C     0.89527   0.25923   0.51955   0.00000  Uiso   1.00
C94    C     0.94737   0.25725   0.58742   0.00000  Uiso   1.00
C95    C     0.98825   0.23252   0.52793   0.00000  Uiso   1.00
C96    C     0.03266   0.23517   0.60693   0.00000  Uiso   1.00
C97    C     0.11304   0.22806   0.69202   0.00000  Uiso   1.00
C98    C     0.85987   0.23935   0.63813   0.00000  Uiso   1.00
C99    C     0.82717   0.19958   0.62126   0.00000  Uiso   1.00
C100   C     0.79791   0.18717   0.74295   0.00000  Uiso   1.00
C101   C     0.74241   0.15230   0.90674   0.00000  Uiso   1.00
C102   C     0.88281   0.31443   0.50175   0.00000  Uiso   1.00
C103   C     0.86939   0.33779   0.37022   0.00000  Uiso   1.00
C104   C     0.85943   0.38860   0.37710   0.00000  Uiso   1.00
C105   C     0.83955   0.47030   0.32913   0.00000  Uiso   1.00
C106   C     0.90145   0.30791   0.76564   0.00000  Uiso   1.00
C107   C     0.95073   0.28369   0.72109   0.00000  Uiso   1.00
C108   C     0.99509   0.28639   0.80020   0.00000  Uiso   1.00
C109   C     0.03602   0.26167   0.74083   0.00000  Uiso   1.00
C110   C     0.86322   0.26580   0.77179   0.00000  Uiso   1.00
C111   C     0.83400   0.25345   0.89353   0.00000  Uiso   1.00
C112   C     0.80127   0.21367   0.87686   0.00000  Uiso   1.00
C113   C     0.88617   0.34088   0.63542   0.00000  Uiso   1.00
C114   C     0.87622   0.39166   0.64250   0.00000  Uiso   1.00
C115   C     0.86279   0.41509   0.51101   0.00000  Uiso   1.00
H116   H     0.89266   0.23864   0.41549   0.00000  Uiso   1.00
H117   H     0.98564   0.21205   0.42449   0.00000  Uiso   1.00
H118   H     0.82458   0.17913   0.51781   0.00000  Uiso   1.00
H119   H     0.86679   0.31732   0.26681   0.00000  Uiso   1.00
H120   H     0.09020   0.19423   0.49344   0.00000  Uiso   1.00
H121   H     0.75058   0.12481   0.69019   0.00000  Uiso   1.00
H122   H     0.83960   0.41621   0.16091   0.00000  Uiso   1.00
H123   H     0.90406   0.32850   0.86971   0.00000  Uiso   1.00
H124   H     0.99767   0.30685   0.90364   0.00000  Uiso   1.00
H125   H     0.83661   0.27392   0.99695   0.00000  Uiso   1.00
H126   H     0.87882   0.41211   0.74595   0.00000  Uiso   1.00
H127   H     0.09996   0.27117   0.88234   0.00000  Uiso   1.00
H128   H     0.76034   0.20175   0.07909   0.00000  Uiso   1.00
H129   H     0.84936   0.49315   0.54980   0.00000  Uiso   1.00
O130   O     0.15645   0.21682   0.70204   0.00000  Uiso   1.00
O131   O     0.71087   0.12575   0.96015   0.00000  Uiso   1.00
O132   O     0.82767   0.50806   0.26574   0.00000  Uiso   1.00
N133   N     0.07965   0.21532   0.58030   0.00000  Uiso   1.00
N134   N     0.76213   0.15041   0.76425   0.00000  Uiso   1.00
N135   N     0.84535   0.42284   0.26942   0.00000  Uiso   1.00
N136   N     0.08491   0.25672   0.78956   0.00000  Uiso   1.00
N137   N     0.76739   0.19181   0.97352   0.00000  Uiso   1.00
N138   N     0.85060   0.46424   0.47869   0.00000  Uiso   1.00
C139   C     0.10473   0.74077   0.51955   0.00000  Uiso   1.00
C140   C     0.05263   0.74275   0.58742   0.00000  Uiso   1.00
C141   C     0.01175   0.76748   0.52793   0.00000  Uiso   1.00
C142   C     0.96734   0.76483   0.60693   0.00000  Uiso   1.00
C143   C     0.88696   0.77194   0.69202   0.00000  Uiso   1.00
C144   C     0.14013   0.76065   0.63813   0.00000  Uiso   1.00
C145   C     0.17283   0.80042   0.62126   0.00000  Uiso   1.00
C146   C     0.20209   0.81283   0.74295   0.00000  Uiso   1.00
C147   C     0.25759   0.84770   0.90674   0.00000  Uiso   1.00
C148   C     0.11719   0.68557   0.50175   0.00000  Uiso   1.00
C149   C     0.13061   0.66221   0.37022   0.00000  Uiso   1.00
C150   C     0.14057   0.61140   0.37710   0.00000  Uiso   1.00
C151   C     0.16045   0.52970   0.32913   0.00000  Uiso   1.00
C152   C     0.09855   0.69209   0.76564   0.00000  Uiso   1.00
C153   C     0.04927   0.71631   0.72109   0.00000  Uiso   1.00
C154   C     0.00491   0.71361   0.80020   0.00000  Uiso   1.00
C155   C     0.96398   0.73833   0.74083   0.00000  Uiso   1.00
C156   C     0.13678   0.73420   0.77179   0.00000  Uiso   1.00
C157   C     0.16600   0.74655   0.89353   0.00000  Uiso   1.00
C158   C     0.19873   0.78633   0.87686   0.00000  Uiso   1.00
C159   C     0.11383   0.65912   0.63542   0.00000  Uiso   1.00
C160   C     0.12378   0.60834   0.64250   0.00000  Uiso   1.00
C161   C     0.13721   0.58491   0.51101   0.00000  Uiso   1.00
H162   H     0.10734   0.76136   0.41549   0.00000  Uiso   1.00
H163   H     0.01436   0.78795   0.42449   0.00000  Uiso   1.00
H164   H     0.17542   0.82087   0.51781   0.00000  Uiso   1.00
H165   H     0.13321   0.68268   0.26681   0.00000  Uiso   1.00
H166   H     0.90980   0.80577   0.49344   0.00000  Uiso   1.00
H167   H     0.24942   0.87519   0.69019   0.00000  Uiso   1.00
H168   H     0.16040   0.58379   0.16091   0.00000  Uiso   1.00
H169   H     0.09594   0.67150   0.86971   0.00000  Uiso   1.00
H170   H     0.00233   0.69315   0.90364   0.00000  Uiso   1.00
H171   H     0.16339   0.72608   0.99695   0.00000  Uiso   1.00
H172   H     0.12118   0.58789   0.74595   0.00000  Uiso   1.00
H173   H     0.90004   0.72883   0.88234   0.00000  Uiso   1.00
H174   H     0.23966   0.79825   0.07909   0.00000  Uiso   1.00
H175   H     0.15064   0.50685   0.54980   0.00000  Uiso   1.00
O176   O     0.84355   0.78318   0.70204   0.00000  Uiso   1.00
O177   O     0.28913   0.87425   0.96015   0.00000  Uiso   1.00
O178   O     0.17233   0.49194   0.26574   0.00000  Uiso   1.00
N179   N     0.92035   0.78468   0.58030   0.00000  Uiso   1.00
N180   N     0.23787   0.84959   0.76425   0.00000  Uiso   1.00
N181   N     0.15465   0.57716   0.26942   0.00000  Uiso   1.00
N182   N     0.91509   0.74328   0.78956   0.00000  Uiso   1.00
N183   N     0.23261   0.80819   0.97352   0.00000  Uiso   1.00
N184   N     0.14940   0.53576   0.47869   0.00000  Uiso   1.00
C185   C     0.74077   0.89527   0.48045   0.00000  Uiso   1.00
C186   C     0.74275   0.94737   0.41258   0.00000  Uiso   1.00
C187   C     0.76748   0.98825   0.47207   0.00000  Uiso   1.00
C188   C     0.76483   0.03266   0.39307   0.00000  Uiso   1.00
C189   C     0.77194   0.11304   0.30798   0.00000  Uiso   1.00
C190   C     0.76065   0.85987   0.36187   0.00000  Uiso   1.00
C191   C     0.80042   0.82717   0.37874   0.00000  Uiso   1.00
C192   C     0.81283   0.79791   0.25705   0.00000  Uiso   1.00
C193   C     0.84770   0.74241   0.09326   0.00000  Uiso   1.00
C194   C     0.68557   0.88281   0.49825   0.00000  Uiso   1.00
C195   C     0.66221   0.86939   0.62978   0.00000  Uiso   1.00
C196   C     0.61140   0.85943   0.62290   0.00000  Uiso   1.00
C197   C     0.52970   0.83955   0.67087   0.00000  Uiso   1.00
C198   C     0.69209   0.90145   0.23436   0.00000  Uiso   1.00
C199   C     0.71631   0.95073   0.27891   0.00000  Uiso   1.00
C200   C     0.71361   0.99509   0.19980   0.00000  Uiso   1.00
C201   C     0.73833   0.03602   0.25917   0.00000  Uiso   1.00
C202   C     0.73420   0.86322   0.22821   0.00000  Uiso   1.00
C203   C     0.74655   0.83400   0.10647   0.00000  Uiso   1.00
C204   C     0.78633   0.80127   0.12314   0.00000  Uiso   1.00
C205   C     0.65912   0.88617   0.36458   0.00000  Uiso   1.00
C206   C     0.60834   0.87622   0.35750   0.00000  Uiso   1.00
C207   C     0.58491   0.86279   0.48899   0.00000  Uiso   1.00
H208   H     0.76136   0.89266   0.58451   0.00000  Uiso   1.00
H209   H     0.78795   0.98564   0.57551   0.00000  Uiso   1.00
H210   H     0.82087   0.82458   0.48219   0.00000  Uiso   1.00
H211   H     0.68268   0.86679   0.73319   0.00000  Uiso   1.00
H212   H     0.80577   0.09020   0.50656   0.00000  Uiso   1.00
H213   H     0.87519   0.75058   0.30981   0.00000  Uiso   1.00
H214   H     0.58379   0.83960   0.83909   0.00000  Uiso   1.00
H215   H     0.67150   0.90406   0.13029   0.00000  Uiso   1.00
H216   H     0.69315   0.99767   0.09636   0.00000  Uiso   1.00
H217   H     0.72608   0.83661   0.00305   0.00000  Uiso   1.00
H218   H     0.58789   0.87882   0.25405   0.00000  Uiso   1.00
H219   H     0.72883   0.09996   0.11766   0.00000  Uiso   1.00
H220   H     0.79825   0.76034   0.92091   0.00000  Uiso   1.00
H221   H     0.50685   0.84936   0.45020   0.00000  Uiso   1.00
O222   O     0.78318   0.15645   0.29796   0.00000  Uiso   1.00
O223   O     0.87425   0.71087   0.03985   0.00000  Uiso   1.00
O224   O     0.49194   0.82767   0.73426   0.00000  Uiso   1.00
N225   N     0.78468   0.07965   0.41970   0.00000  Uiso   1.00
N226   N     0.84959   0.76213   0.23575   0.00000  Uiso   1.00
N227   N     0.57716   0.84535   0.73058   0.00000  Uiso   1.00
N228   N     0.74328   0.08491   0.21044   0.00000  Uiso   1.00
N229   N     0.80819   0.76739   0.02648   0.00000  Uiso   1.00
N230   N     0.53576   0.85060   0.52131   0.00000  Uiso   1.00
C231   C     0.25923   0.10473   0.48045   0.00000  Uiso   1.00
C232   C     0.25725   0.05263   0.41258   0.00000  Uiso   1.00
C233   C     0.23252   0.01175   0.47207   0.00000  Uiso   1.00
C234   C     0.23517   0.96734   0.39307   0.00000  Uiso   1.00
C235   C     0.22806   0.88696   0.30798   0.00000  Uiso   1.00
C236   C     0.23935   0.14013   0.36187   0.00000  Uiso   1.00
C237   C     0.19958   0.17283   0.37874   0.00000  Uiso   1.00
C238   C     0.18717   0.20209   0.25705   0.00000  Uiso   1.00
C239   C     0.15230   0.25759   0.09326   0.00000  Uiso   1.00
C240   C     0.31443   0.11719   0.49825   0.00000  Uiso   1.00
C241   C     0.33779   0.13061   0.62978   0.00000  Uiso   1.00
C242   C     0.38860   0.14057   0.62290   0.00000  Uiso   1.00
C243   C     0.47030   0.16045   0.67087   0.00000  Uiso   1.00
C244   C     0.30791   0.09855   0.23436   0.00000  Uiso   1.00
C245   C     0.28369   0.04927   0.27891   0.00000  Uiso   1.00
C246   C     0.28639   0.00491   0.19980   0.00000  Uiso   1.00
C247   C     0.26167   0.96398   0.25917   0.00000  Uiso   1.00
C248   C     0.26580   0.13678   0.22821   0.00000  Uiso   1.00
C249   C     0.25345   0.16600   0.10647   0.00000  Uiso   1.00
C250   C     0.21367   0.19873   0.12314   0.00000  Uiso   1.00
C251   C     0.34088   0.11383   0.36458   0.00000  Uiso   1.00
C252   C     0.39166   0.12378   0.35750   0.00000  Uiso   1.00
C253   C     0.41509   0.13721   0.48899   0.00000  Uiso   1.00
H254   H     0.23864   0.10734   0.58451   0.00000  Uiso   1.00
H255   H     0.21205   0.01436   0.57551   0.00000  Uiso   1.00
H256   H     0.17913   0.17542   0.48219   0.00000  Uiso   1.00
H257   H     0.31732   0.13321   0.73319   0.00000  Uiso   1.00
H258   H     0.19423   0.90980   0.50656   0.00000  Uiso   1.00
H259   H     0.12481   0.24942   0.30981   0.00000  Uiso   1.00
H260   H     0.41621   0.16040   0.83909   0.00000  Uiso   1.00
H261   H     0.32850   0.09594   0.13029   0.00000  Uiso   1.00
H262   H     0.30685   0.00233   0.09636   0.00000  Uiso   1.00
H263   H     0.27392   0.16339   0.00305   0.00000  Uiso   1.00
H264   H     0.41211   0.12118   0.25405   0.00000  Uiso   1.00
H265   H     0.27117   0.90004   0.11766   0.00000  Uiso   1.00
H266   H     0.20175   0.23966   0.92091   0.00000  Uiso   1.00
H267   H     0.49315   0.15064   0.45020   0.00000  Uiso   1.00
O268   O     0.21682   0.84355   0.29796   0.00000  Uiso   1.00
O269   O     0.12575   0.28913   0.03985   0.00000  Uiso   1.00
O270   O     0.50806   0.17233   0.73426   0.00000  Uiso   1.00
N271   N     0.21532   0.92035   0.41970   0.00000  Uiso   1.00
N272   N     0.15041   0.23787   0.23575   0.00000  Uiso   1.00
N273   N     0.42284   0.15465   0.73058   0.00000  Uiso   1.00
N274   N     0.25672   0.91509   0.21044   0.00000  Uiso   1.00
N275   N     0.19181   0.23261   0.02648   0.00000  Uiso   1.00
N276   N     0.46424   0.14940   0.52131   0.00000  Uiso   1.00
C277   C     0.60473   0.24077   0.48045   0.00000  Uiso   1.00
C278   C     0.55263   0.24275   0.41258   0.00000  Uiso   1.00
C279   C     0.51175   0.26748   0.47207   0.00000  Uiso   1.00
C280   C     0.46734   0.26483   0.39307   0.00000  Uiso   1.00
C281   C     0.38696   0.27194   0.30798   0.00000  Uiso   1.00
C282   C     0.64013   0.26065   0.36187   0.00000  Uiso   1.00
C283   C     0.67283   0.30042   0.37874   0.00000  Uiso   1.00
C284   C     0.70209   0.31283   0.25705   0.00000  Uiso   1.00
C285   C     0.75759   0.34770   0.09326   0.00000  Uiso   1.00
C286   C     0.61719   0.18557   0.49825   0.00000  Uiso   1.00
C287   C     0.63061   0.16221   0.62978   0.00000  Uiso   1.00
C288   C     0.64057   0.11140   0.62290   0.00000  Uiso   1.00
C289   C     0.66045   0.02970   0.67087   0.00000  Uiso   1.00
C290   C     0.59855   0.19209   0.23436   0.00000  Uiso   1.00
C291   C     0.54927   0.21631   0.27891   0.00000  Uiso   1.00
C292   C     0.50491   0.21361   0.19980   0.00000  Uiso   1.00
C293   C     0.46398   0.23833   0.25917   0.00000  Uiso   1.00
C294   C     0.63678   0.23420   0.22821   0.00000  Uiso   1.00
C295   C     0.66600   0.24655   0.10647   0.00000  Uiso   1.00
C296   C     0.69873   0.28633   0.12314   0.00000  Uiso   1.00
C297   C     0.61383   0.15912   0.36458   0.00000  Uiso   1.00
C298   C     0.62378   0.10834   0.35750   0.00000  Uiso   1.00
C299   C     0.63721   0.08491   0.48899   0.00000  Uiso   1.00
H300   H     0.60734   0.26136   0.58451   0.00000  Uiso   1.00
H301   H     0.51436   0.28795   0.57551   0.00000  Uiso   1.00
H302   H     0.67542   0.32087   0.48219   0.00000  Uiso   1.00
H303   H     0.63321   0.18268   0.73319   0.00000  Uiso   1.00
H304   H     0.40980   0.30577   0.50656   0.00000  Uiso   1.00
H305   H     0.74942   0.37519   0.30981   0.00000  Uiso   1.00
H306   H     0.66040   0.08379   0.83909   0.00000  Uiso   1.00
H307   H     0.59594   0.17150   0.13029   0.00000  Uiso   1.00
H308   H     0.50233   0.19315   0.09636   0.00000  Uiso   1.00
H309   H     0.66339   0.22608   0.00305   0.00000  Uiso   1.00
H310   H     0.62118   0.08789   0.25405   0.00000  Uiso   1.00
H311   H     0.40004   0.22883   0.11766   0.00000  Uiso   1.00
H312   H     0.73966   0.29825   0.92091   0.00000  Uiso   1.00
H313   H     0.65064   0.00685   0.45020   0.00000  Uiso   1.00
O314   O     0.34355   0.28318   0.29796   0.00000  Uiso   1.00
O315   O     0.78913   0.37425   0.03985   0.00000  Uiso   1.00
O316   O     0.67233   0.99194   0.73426   0.00000  Uiso   1.00
N317   N     0.42035   0.28468   0.41970   0.00000  Uiso   1.00
N318   N     0.73787   0.34959   0.23575   0.00000  Uiso   1.00
N319   N     0.65465   0.07716   0.73058   0.00000  Uiso   1.00
N320   N     0.41509   0.24328   0.21044   0.00000  Uiso   1.00
N321   N     0.73261   0.30819   0.02648   0.00000  Uiso   1.00
N322   N     0.64940   0.03576   0.52131   0.00000  Uiso   1.00
C323   C     0.39527   0.75923   0.48045   0.00000  Uiso   1.00
C324   C     0.44737   0.75725   0.41258   0.00000  Uiso   1.00
C325   C     0.48825   0.73252   0.47207   0.00000  Uiso   1.00
C326   C     0.53266   0.73517   0.39307   0.00000  Uiso   1.00
C327   C     0.61304   0.72806   0.30798   0.00000  Uiso   1.00
C328   C     0.35987   0.73935   0.36187   0.00000  Uiso   1.00
C329   C     0.32717   0.69958   0.37874   0.00000  Uiso   1.00
C330   C     0.29791   0.68717   0.25705   0.00000  Uiso   1.00
C331   C     0.24241   0.65230   0.09326   0.00000  Uiso   1.00
C332   C     0.38281   0.81443   0.49825   0.00000  Uiso   1.00
C333   C     0.36939   0.83779   0.62978   0.00000  Uiso   1.00
C334   C     0.35943   0.88860   0.62290   0.00000  Uiso   1.00
C335   C     0.33955   0.97030   0.67087   0.00000  Uiso   1.00
C336   C     0.40145   0.80791   0.23436   0.00000  Uiso   1.00
C337   C     0.45073   0.78369   0.27891   0.00000  Uiso   1.00
C338   C     0.49509   0.78639   0.19980   0.00000  Uiso   1.00
C339   C     0.53602   0.76167   0.25917   0.00000  Uiso   1.00
C340   C     0.36322   0.76580   0.22821   0.00000  Uiso   1.00
C341   C     0.33400   0.75345   0.10647   0.00000  Uiso   1.00
C342   C     0.30127   0.71367   0.12314   0.00000  Uiso   1.00
C343   C     0.38617   0.84088   0.36458   0.00000  Uiso   1.00
C344   C     0.37622   0.89166   0.35750   0.00000  Uiso   1.00
C345   C     0.36279   0.91509   0.48899   0.00000  Uiso   1.00
H346   H     0.39266   0.73864   0.58451   0.00000  Uiso   1.00
H347   H     0.48564   0.71205   0.57551   0.00000  Uiso   1.00
H348   H     0.32458   0.67913   0.48219   0.00000  Uiso   1.00
H349   H     0.36679   0.81732   0.73319   0.00000  Uiso   1.00
H350   H     0.59020   0.69423   0.50656   0.00000  Uiso   1.00
H351   H     0.25058   0.62481   0.30981   0.00000  Uiso   1.00
H352   H     0.33960   0.91621   0.83909   0.00000  Uiso   1.00
H353   H     0.40406   0.82850   0.13029   0.00000  Uiso   1.00
H354   H     0.49767   0.80685   0.09636   0.00000  Uiso   1.00
H355   H     0.33661   0.77392   0.00305   0.00000  Uiso   1.00
H356   H     0.37882   0.91211   0.25405   0.00000  Uiso   1.00
H357   H     0.59996   0.77117   0.11766   0.00000  Uiso   1.00
H358   H     0.26034   0.70175   0.92091   0.00000  Uiso   1.00
H359   H     0.34936   0.99315   0.45020   0.00000  Uiso   1.00
O360   O     0.65645   0.71682   0.29796   0.00000  Uiso   1.00
O361   O     0.21087   0.62575   0.03985   0.00000  Uiso   1.00
O362   O     0.32767   0.00806   0.73426   0.00000  Uiso   1.00
N363   N     0.57965   0.71532   0.41970   0.00000  Uiso   1.00
N364   N     0.26213   0.65041   0.23575   0.00000  Uiso   1.00
N365   N     0.34535   0.92284   0.73058   0.00000  Uiso   1.00
N366   N     0.58491   0.75672   0.21044   0.00000  Uiso   1.00
N367   N     0.26739   0.69181   0.02648   0.00000  Uiso   1.00
N368   N     0.35060   0.96424   0.52131   0.00000  Uiso   1.00
