data_job_00593
_audit_creation_date              2018-12-19
_audit_creation_method            'Materials Studio'
_symmetry_space_group_name_H-M    'P1'
_symmetry_Int_Tables_number       1
_symmetry_cell_setting            triclinic
loop_
_symmetry_equiv_pos_as_xyz
  x,y,z
_cell_length_a                    7.4240
_cell_length_b                    15.8027
_cell_length_c                    23.6783
_cell_angle_alpha                 90.0000
_cell_angle_beta                  112.0790
_cell_angle_gamma                 90.0000
loop_
_atom_site_label
_atom_site_type_symbol
_atom_site_fract_x
_atom_site_fract_y
_atom_site_fract_z
_atom_site_U_iso_or_equiv
_atom_site_adp_type
_atom_site_occupancy
C1     C     0.40520   0.84926   0.80925   0.00000  Uiso   1.00
C2     C     0.33617   0.78753   0.84637   0.00000  Uiso   1.00
C3     C     0.43930   0.71816   0.87837   0.00000  Uiso   1.00
C4     C     0.35095   0.66946   0.90947   0.00000  Uiso   1.00
C5     C     0.27184   0.57054   0.96722   0.00000  Uiso   1.00
C6     C     0.24930   0.84861   0.74510   0.00000  Uiso   1.00
C7     C     0.27942   0.83061   0.69195   0.00000  Uiso   1.00
C8     C     0.11794   0.83333   0.63779   0.00000  Uiso   1.00
C9     C     0.90400   0.82930   0.53831   0.00000  Uiso   1.00
C10    C     0.39692   0.93689   0.83512   0.00000  Uiso   1.00
C11    C     0.55113   0.99313   0.85766   0.00000  Uiso   1.00
C12    C     0.51392   0.07020   0.87928   0.00000  Uiso   1.00
C13    C     0.52918   0.20324   0.91958   0.00000  Uiso   1.00
C14    C     0.06491   0.88612   0.80757   0.00000  Uiso   1.00
C15    C     0.15133   0.80755   0.84546   0.00000  Uiso   1.00
C16    C     0.06281   0.75894   0.87651   0.00000  Uiso   1.00
C17    C     0.16579   0.68952   0.90855   0.00000  Uiso   1.00
C18    C     0.06447   0.86863   0.74418   0.00000  Uiso   1.00
C19    C     0.90292   0.87139   0.69009   0.00000  Uiso   1.00
C20    C     0.93278   0.85339   0.63687   0.00000  Uiso   1.00
C21    C     0.21208   0.95691   0.83421   0.00000  Uiso   1.00
C22    C     0.17463   0.03391   0.85580   0.00000  Uiso   1.00
C23    C     0.32876   0.09026   0.87836   0.00000  Uiso   1.00
H24    H     0.54909   0.83367   0.80996   0.00000  Uiso   1.00
H25    H     0.58233   0.70268   0.87907   0.00000  Uiso   1.00
H26    H     0.42247   0.81512   0.69267   0.00000  Uiso   1.00
H27    H     0.69414   0.97761   0.85836   0.00000  Uiso   1.00
H28    H     0.53764   0.56627   0.95526   0.00000  Uiso   1.00
H29    H     0.20058   0.80338   0.56224   0.00000  Uiso   1.00
H30    H     0.77345   0.14604   0.91161   0.00000  Uiso   1.00
H31    H     0.92100   0.90171   0.80686   0.00000  Uiso   1.00
H32    H     0.91977   0.77445   0.87580   0.00000  Uiso   1.00
H33    H     0.75991   0.88689   0.68940   0.00000  Uiso   1.00
H34    H     0.03158   0.04939   0.85508   0.00000  Uiso   1.00
H35    H     0.99987   0.62452   0.95260   0.00000  Uiso   1.00
H36    H     0.66282   0.86164   0.55958   0.00000  Uiso   1.00
H37    H     0.23569   0.20429   0.90896   0.00000  Uiso   1.00
O38    O     0.27925   0.51044   0.99932   0.00000  Uiso   1.00
O39    O     0.83706   0.82154   0.48369   0.00000  Uiso   1.00
O40    O     0.58865   0.27109   0.94207   0.00000  Uiso   1.00
N41    N     0.41126   0.59745   0.94519   0.00000  Uiso   1.00
N42    N     0.09612   0.81913   0.57773   0.00000  Uiso   1.00
N43    N     0.63170   0.13949   0.90436   0.00000  Uiso   1.00
N44    N     0.12189   0.62880   0.94376   0.00000  Uiso   1.00
N45    N     0.80676   0.85047   0.57630   0.00000  Uiso   1.00
N46    N     0.34234   0.17083   0.90293   0.00000  Uiso   1.00
C47    C     0.59480   0.34926   0.69075   0.00000  Uiso   1.00
C48    C     0.66383   0.28753   0.65363   0.00000  Uiso   1.00
C49    C     0.56070   0.21816   0.62163   0.00000  Uiso   1.00
C50    C     0.64905   0.16946   0.59053   0.00000  Uiso   1.00
C51    C     0.72816   0.07054   0.53278   0.00000  Uiso   1.00
C52    C     0.75070   0.34861   0.75490   0.00000  Uiso   1.00
C53    C     0.72058   0.33061   0.80805   0.00000  Uiso   1.00
C54    C     0.88206   0.33333   0.86221   0.00000  Uiso   1.00
C55    C     0.09600   0.32930   0.96169   0.00000  Uiso   1.00
C56    C     0.60308   0.43689   0.66488   0.00000  Uiso   1.00
C57    C     0.44887   0.49313   0.64234   0.00000  Uiso   1.00
C58    C     0.48608   0.57020   0.62072   0.00000  Uiso   1.00
C59    C     0.47082   0.70324   0.58042   0.00000  Uiso   1.00
C60    C     0.93509   0.38612   0.69243   0.00000  Uiso   1.00
C61    C     0.84867   0.30755   0.65454   0.00000  Uiso   1.00
C62    C     0.93719   0.25894   0.62349   0.00000  Uiso   1.00
C63    C     0.83421   0.18952   0.59145   0.00000  Uiso   1.00
C64    C     0.93553   0.36863   0.75582   0.00000  Uiso   1.00
C65    C     0.09708   0.37139   0.80991   0.00000  Uiso   1.00
C66    C     0.06722   0.35339   0.86313   0.00000  Uiso   1.00
C67    C     0.78792   0.45691   0.66579   0.00000  Uiso   1.00
C68    C     0.82537   0.53391   0.64420   0.00000  Uiso   1.00
C69    C     0.67124   0.59026   0.62164   0.00000  Uiso   1.00
H70    H     0.45091   0.33367   0.69004   0.00000  Uiso   1.00
H71    H     0.41767   0.20268   0.62093   0.00000  Uiso   1.00
H72    H     0.57753   0.31512   0.80733   0.00000  Uiso   1.00
H73    H     0.30586   0.47761   0.64164   0.00000  Uiso   1.00
H74    H     0.46236   0.06627   0.54474   0.00000  Uiso   1.00
H75    H     0.79942   0.30338   0.93776   0.00000  Uiso   1.00
H76    H     0.22655   0.64604   0.58839   0.00000  Uiso   1.00
H77    H     0.07900   0.40171   0.69314   0.00000  Uiso   1.00
H78    H     0.08023   0.27445   0.62420   0.00000  Uiso   1.00
H79    H     0.24009   0.38689   0.81060   0.00000  Uiso   1.00
H80    H     0.96842   0.54939   0.64492   0.00000  Uiso   1.00
H81    H     0.00013   0.12452   0.54740   0.00000  Uiso   1.00
H82    H     0.33718   0.36164   0.94042   0.00000  Uiso   1.00
H83    H     0.76431   0.70429   0.59104   0.00000  Uiso   1.00
O84    O     0.72075   0.01044   0.50068   0.00000  Uiso   1.00
O85    O     0.16294   0.32154   0.01631   0.00000  Uiso   1.00
O86    O     0.41135   0.77109   0.55793   0.00000  Uiso   1.00
N87    N     0.58874   0.09745   0.55481   0.00000  Uiso   1.00
N88    N     0.90388   0.31913   0.92227   0.00000  Uiso   1.00
N89    N     0.36830   0.63949   0.59564   0.00000  Uiso   1.00
N90    N     0.87811   0.12880   0.55624   0.00000  Uiso   1.00
N91    N     0.19324   0.35047   0.92370   0.00000  Uiso   1.00
N92    N     0.65766   0.67083   0.59707   0.00000  Uiso   1.00
C93    C     0.59480   0.15074   0.19075   0.00000  Uiso   1.00
C94    C     0.66383   0.21247   0.15363   0.00000  Uiso   1.00
C95    C     0.56070   0.28184   0.12163   0.00000  Uiso   1.00
C96    C     0.64905   0.33054   0.09053   0.00000  Uiso   1.00
C97    C     0.72816   0.42946   0.03278   0.00000  Uiso   1.00
C98    C     0.75070   0.15139   0.25490   0.00000  Uiso   1.00
C99    C     0.72058   0.16939   0.30805   0.00000  Uiso   1.00
C100   C     0.88206   0.16667   0.36221   0.00000  Uiso   1.00
C101   C     0.09600   0.17070   0.46169   0.00000  Uiso   1.00
C102   C     0.60308   0.06311   0.16488   0.00000  Uiso   1.00
C103   C     0.44887   0.00687   0.14234   0.00000  Uiso   1.00
C104   C     0.48608   0.92980   0.12072   0.00000  Uiso   1.00
C105   C     0.47082   0.79676   0.08042   0.00000  Uiso   1.00
C106   C     0.93509   0.11388   0.19243   0.00000  Uiso   1.00
C107   C     0.84867   0.19245   0.15454   0.00000  Uiso   1.00
C108   C     0.93719   0.24106   0.12349   0.00000  Uiso   1.00
C109   C     0.83421   0.31048   0.09145   0.00000  Uiso   1.00
C110   C     0.93553   0.13137   0.25582   0.00000  Uiso   1.00
C111   C     0.09708   0.12861   0.30991   0.00000  Uiso   1.00
C112   C     0.06722   0.14661   0.36313   0.00000  Uiso   1.00
C113   C     0.78792   0.04309   0.16579   0.00000  Uiso   1.00
C114   C     0.82537   0.96609   0.14420   0.00000  Uiso   1.00
C115   C     0.67124   0.90974   0.12164   0.00000  Uiso   1.00
H116   H     0.45091   0.16633   0.19004   0.00000  Uiso   1.00
H117   H     0.41767   0.29732   0.12093   0.00000  Uiso   1.00
H118   H     0.57753   0.18488   0.30733   0.00000  Uiso   1.00
H119   H     0.30586   0.02239   0.14164   0.00000  Uiso   1.00
H120   H     0.46236   0.43373   0.04474   0.00000  Uiso   1.00
H121   H     0.79942   0.19662   0.43776   0.00000  Uiso   1.00
H122   H     0.22655   0.85396   0.08839   0.00000  Uiso   1.00
H123   H     0.07900   0.09829   0.19314   0.00000  Uiso   1.00
H124   H     0.08023   0.22555   0.12420   0.00000  Uiso   1.00
H125   H     0.24009   0.11311   0.31060   0.00000  Uiso   1.00
H126   H     0.96842   0.95061   0.14492   0.00000  Uiso   1.00
H127   H     0.00013   0.37548   0.04740   0.00000  Uiso   1.00
H128   H     0.33718   0.13836   0.44042   0.00000  Uiso   1.00
H129   H     0.76431   0.79571   0.09104   0.00000  Uiso   1.00
O130   O     0.72075   0.48956   0.00068   0.00000  Uiso   1.00
O131   O     0.16294   0.17846   0.51631   0.00000  Uiso   1.00
O132   O     0.41135   0.72891   0.05793   0.00000  Uiso   1.00
N133   N     0.58874   0.40255   0.05481   0.00000  Uiso   1.00
N134   N     0.90388   0.18087   0.42227   0.00000  Uiso   1.00
N135   N     0.36830   0.86051   0.09564   0.00000  Uiso   1.00
N136   N     0.87811   0.37120   0.05624   0.00000  Uiso   1.00
N137   N     0.19324   0.14953   0.42370   0.00000  Uiso   1.00
N138   N     0.65766   0.82917   0.09707   0.00000  Uiso   1.00
C139   C     0.40520   0.65074   0.30925   0.00000  Uiso   1.00
C140   C     0.33617   0.71247   0.34637   0.00000  Uiso   1.00
C141   C     0.43930   0.78184   0.37837   0.00000  Uiso   1.00
C142   C     0.35095   0.83054   0.40947   0.00000  Uiso   1.00
C143   C     0.27184   0.92946   0.46722   0.00000  Uiso   1.00
C144   C     0.24930   0.65139   0.24510   0.00000  Uiso   1.00
C145   C     0.27942   0.66939   0.19195   0.00000  Uiso   1.00
C146   C     0.11794   0.66667   0.13779   0.00000  Uiso   1.00
C147   C     0.90400   0.67070   0.03831   0.00000  Uiso   1.00
C148   C     0.39692   0.56311   0.33512   0.00000  Uiso   1.00
C149   C     0.55113   0.50687   0.35766   0.00000  Uiso   1.00
C150   C     0.51392   0.42980   0.37928   0.00000  Uiso   1.00
C151   C     0.52918   0.29676   0.41958   0.00000  Uiso   1.00
C152   C     0.06491   0.61388   0.30757   0.00000  Uiso   1.00
C153   C     0.15133   0.69245   0.34546   0.00000  Uiso   1.00
C154   C     0.06281   0.74106   0.37651   0.00000  Uiso   1.00
C155   C     0.16579   0.81048   0.40855   0.00000  Uiso   1.00
C156   C     0.06447   0.63137   0.24418   0.00000  Uiso   1.00
C157   C     0.90292   0.62861   0.19009   0.00000  Uiso   1.00
C158   C     0.93278   0.64661   0.13687   0.00000  Uiso   1.00
C159   C     0.21208   0.54309   0.33421   0.00000  Uiso   1.00
C160   C     0.17463   0.46609   0.35580   0.00000  Uiso   1.00
C161   C     0.32876   0.40974   0.37836   0.00000  Uiso   1.00
H162   H     0.54909   0.66633   0.30996   0.00000  Uiso   1.00
H163   H     0.58233   0.79732   0.37907   0.00000  Uiso   1.00
H164   H     0.42247   0.68488   0.19267   0.00000  Uiso   1.00
H165   H     0.69414   0.52239   0.35836   0.00000  Uiso   1.00
H166   H     0.53764   0.93373   0.45526   0.00000  Uiso   1.00
H167   H     0.20058   0.69662   0.06224   0.00000  Uiso   1.00
H168   H     0.77345   0.35396   0.41161   0.00000  Uiso   1.00
H169   H     0.92100   0.59829   0.30686   0.00000  Uiso   1.00
H170   H     0.91977   0.72555   0.37580   0.00000  Uiso   1.00
H171   H     0.75991   0.61311   0.18940   0.00000  Uiso   1.00
H172   H     0.03158   0.45061   0.35508   0.00000  Uiso   1.00
H173   H     0.99987   0.87548   0.45260   0.00000  Uiso   1.00
H174   H     0.66282   0.63836   0.05958   0.00000  Uiso   1.00
H175   H     0.23569   0.29571   0.40896   0.00000  Uiso   1.00
O176   O     0.27925   0.98956   0.49932   0.00000  Uiso   1.00
O177   O     0.83706   0.67846   0.98369   0.00000  Uiso   1.00
O178   O     0.58865   0.22891   0.44207   0.00000  Uiso   1.00
N179   N     0.41126   0.90255   0.44519   0.00000  Uiso   1.00
N180   N     0.09612   0.68087   0.07773   0.00000  Uiso   1.00
N181   N     0.63170   0.36051   0.40436   0.00000  Uiso   1.00
N182   N     0.12189   0.87120   0.44376   0.00000  Uiso   1.00
N183   N     0.80676   0.64953   0.07630   0.00000  Uiso   1.00
N184   N     0.34234   0.32917   0.40293   0.00000  Uiso   1.00
