data_job_06262
_audit_creation_date              2018-12-19
_audit_creation_method            'Materials Studio'
_symmetry_space_group_name_H-M    'P1'
_symmetry_Int_Tables_number       1
_symmetry_cell_setting            triclinic
loop_
_symmetry_equiv_pos_as_xyz
  x,y,z
_cell_length_a                    12.6004
_cell_length_b                    20.1203
_cell_length_c                    20.6911
_cell_angle_alpha                 115.7780
_cell_angle_beta                  76.8415
_cell_angle_gamma                 81.4364
loop_
_atom_site_label
_atom_site_type_symbol
_atom_site_fract_x
_atom_site_fract_y
_atom_site_fract_z
_atom_site_U_iso_or_equiv
_atom_site_adp_type
_atom_site_occupancy
C1     C     0.21825   0.16158   0.62377   0.00000  Uiso   1.00
C2     C     0.14619   0.12712   0.66352   0.00000  Uiso   1.00
C3     C     0.08992   0.07379   0.63080   0.00000  Uiso   1.00
C4     C     0.02842   0.04935   0.67667   0.00000  Uiso   1.00
C5     C     0.91724   0.99162   0.72687   0.00000  Uiso   1.00
C6     C     0.16735   0.24860   0.67151   0.00000  Uiso   1.00
C7     C     0.12888   0.29741   0.64549   0.00000  Uiso   1.00
C8     C     0.08521   0.37524   0.69809   0.00000  Uiso   1.00
C9     C     0.00696   0.50611   0.76068   0.00000  Uiso   1.00
C10    C     0.33495   0.14427   0.63199   0.00000  Uiso   1.00
C11    C     0.43741   0.10538   0.57274   0.00000  Uiso   1.00
C12    C     0.53485   0.09539   0.59207   0.00000  Uiso   1.00
C13    C     0.71682   0.06429   0.59329   0.00000  Uiso   1.00
C14    C     0.20912   0.21301   0.76344   0.00000  Uiso   1.00
C15    C     0.14123   0.15505   0.73939   0.00000  Uiso   1.00
C16    C     0.07981   0.13069   0.78532   0.00000  Uiso   1.00
C17    C     0.02346   0.07733   0.75267   0.00000  Uiso   1.00
C18    C     0.16239   0.27653   0.74737   0.00000  Uiso   1.00
C19    C     0.11878   0.35431   0.80002   0.00000  Uiso   1.00
C20    C     0.08024   0.40322   0.77409   0.00000  Uiso   1.00
C21    C     0.32999   0.17220   0.70785   0.00000  Uiso   1.00
C22    C     0.42730   0.16228   0.72727   0.00000  Uiso   1.00
C23    C     0.52989   0.12338   0.66806   0.00000  Uiso   1.00
H24    H     0.22211   0.13984   0.56471   0.00000  Uiso   1.00
H25    H     0.09376   0.05219   0.57209   0.00000  Uiso   1.00
H26    H     0.13274   0.27578   0.58678   0.00000  Uiso   1.00
H27    H     0.44121   0.08378   0.51404   0.00000  Uiso   1.00
H28    H     0.94925   0.96736   0.61373   0.00000  Uiso   1.00
H29    H     0.03146   0.43880   0.64471   0.00000  Uiso   1.00
H30    H     0.68194   0.03394   0.49132   0.00000  Uiso   1.00
H31    H     0.20526   0.23476   0.82250   0.00000  Uiso   1.00
H32    H     0.07599   0.15232   0.84403   0.00000  Uiso   1.00
H33    H     0.11496   0.37590   0.85872   0.00000  Uiso   1.00
H34    H     0.42343   0.18390   0.78598   0.00000  Uiso   1.00
H35    H     0.93482   0.04863   0.83445   0.00000  Uiso   1.00
H36    H     0.01703   0.52007   0.86542   0.00000  Uiso   1.00
H37    H     0.66751   0.11520   0.71204   0.00000  Uiso   1.00
O38    O     0.85727   0.95207   0.73361   0.00000  Uiso   1.00
O39    O     0.96515   0.57058   0.77424   0.00000  Uiso   1.00
O40    O     0.81855   0.03941   0.57300   0.00000  Uiso   1.00
N41    N     0.96361   0.99779   0.66272   0.00000  Uiso   1.00
N42    N     0.04046   0.43856   0.69168   0.00000  Uiso   1.00
N43    N     0.64860   0.06006   0.54828   0.00000  Uiso   1.00
N44    N     0.95585   0.04152   0.78148   0.00000  Uiso   1.00
N45    N     0.03269   0.48229   0.81045   0.00000  Uiso   1.00
N46    N     0.64084   0.10379   0.66705   0.00000  Uiso   1.00
C47    C     0.84332   0.37875   0.53583   0.00000  Uiso   1.00
C48    C     0.81221   0.33771   0.46426   0.00000  Uiso   1.00
C49    C     0.72608   0.36935   0.44574   0.00000  Uiso   1.00
C50    C     0.71113   0.32239   0.37769   0.00000  Uiso   1.00
C51    C     0.65233   0.27018   0.27384   0.00000  Uiso   1.00
C52    C     0.83567   0.32913   0.57432   0.00000  Uiso   1.00
C53    C     0.76927   0.35356   0.64833   0.00000  Uiso   1.00
C54    C     0.77408   0.29938   0.67292   0.00000  Uiso   1.00
C55    C     0.75176   0.23387   0.73995   0.00000  Uiso   1.00
C56    C     0.96883   0.37372   0.50867   0.00000  Uiso   1.00
C57    C     0.01439   0.43563   0.52751   0.00000  Uiso   1.00
C58    C     0.13131   0.41898   0.49684   0.00000  Uiso   1.00
C59    C     0.31574   0.42270   0.46195   0.00000  Uiso   1.00
C60    C     0.96993   0.23910   0.44792   0.00000  Uiso   1.00
C61    C     0.88099   0.26185   0.41651   0.00000  Uiso   1.00
C62    C     0.86617   0.21484   0.34847   0.00000  Uiso   1.00
C63    C     0.78002   0.24640   0.32984   0.00000  Uiso   1.00
C64    C     0.90444   0.25328   0.52657   0.00000  Uiso   1.00
C65    C     0.90935   0.19905   0.55106   0.00000  Uiso   1.00
C66    C     0.84297   0.22339   0.62508   0.00000  Uiso   1.00
C67    C     0.03760   0.29786   0.46092   0.00000  Uiso   1.00
C68    C     0.15447   0.28112   0.43023   0.00000  Uiso   1.00
C69    C     0.20021   0.34299   0.44900   0.00000  Uiso   1.00
H70    H     0.78978   0.43781   0.57301   0.00000  Uiso   1.00
H71    H     0.67287   0.42805   0.48271   0.00000  Uiso   1.00
H72    H     0.71607   0.41227   0.68527   0.00000  Uiso   1.00
H73    H     0.96115   0.49432   0.56446   0.00000  Uiso   1.00
H74    H     0.57356   0.38377   0.36155   0.00000  Uiso   1.00
H75    H     0.66467   0.35050   0.78866   0.00000  Uiso   1.00
H76    H     0.18147   0.52353   0.53392   0.00000  Uiso   1.00
H77    H     0.02348   0.18004   0.41074   0.00000  Uiso   1.00
H78    H     0.91940   0.15614   0.31153   0.00000  Uiso   1.00
H79    H     0.96259   0.14035   0.51409   0.00000  Uiso   1.00
H80    H     0.20767   0.22241   0.39328   0.00000  Uiso   1.00
H81    H     0.77365   0.16307   0.22261   0.00000  Uiso   1.00
H82    H     0.86476   0.12980   0.64973   0.00000  Uiso   1.00
H83    H     0.38156   0.30283   0.39498   0.00000  Uiso   1.00
O84    O     0.60090   0.26234   0.22976   0.00000  Uiso   1.00
O85    O     0.72044   0.21869   0.79011   0.00000  Uiso   1.00
O86    O     0.39847   0.44571   0.45589   0.00000  Uiso   1.00
N87    N     0.63495   0.33511   0.34246   0.00000  Uiso   1.00
N88    N     0.72012   0.30400   0.74178   0.00000  Uiso   1.00
N89    N     0.20329   0.46577   0.50363   0.00000  Uiso   1.00
N90    N     0.74262   0.21636   0.26770   0.00000  Uiso   1.00
N91    N     0.82778   0.18525   0.66702   0.00000  Uiso   1.00
N92    N     0.31095   0.34702   0.42887   0.00000  Uiso   1.00
C93    C     0.37634   0.46519   0.84088   0.00000  Uiso   1.00
C94    C     0.27639   0.53599   0.87229   0.00000  Uiso   1.00
C95    C     0.17056   0.55192   0.92303   0.00000  Uiso   1.00
C96    C     0.09049   0.61968   0.94489   0.00000  Uiso   1.00
C97    C     0.93147   0.72198   0.99787   0.00000  Uiso   1.00
C98    C     0.40903   0.42720   0.75460   0.00000  Uiso   1.00
C99    C     0.41475   0.35166   0.70641   0.00000  Uiso   1.00
C100   C     0.44635   0.32784   0.62921   0.00000  Uiso   1.00
C101   C     0.49335   0.26123   0.49948   0.00000  Uiso   1.00
C102   C     0.47510   0.49545   0.86052   0.00000  Uiso   1.00
C103   C     0.53640   0.47728   0.90136   0.00000  Uiso   1.00
C104   C     0.62366   0.51092   0.91331   0.00000  Uiso   1.00
C105   C     0.77325   0.55028   0.94803   0.00000  Uiso   1.00
C106   C     0.42232   0.55721   0.78947   0.00000  Uiso   1.00
C107   C     0.30136   0.58597   0.84435   0.00000  Uiso   1.00
C108   C     0.22143   0.65373   0.86615   0.00000  Uiso   1.00
C109   C     0.11551   0.66975   0.91692   0.00000  Uiso   1.00
C110   C     0.43401   0.47718   0.72668   0.00000  Uiso   1.00
C111   C     0.46562   0.45347   0.64952   0.00000  Uiso   1.00
C112   C     0.47137   0.37791   0.60123   0.00000  Uiso   1.00
C113   C     0.50008   0.54544   0.83259   0.00000  Uiso   1.00
C114   C     0.58727   0.57910   0.84447   0.00000  Uiso   1.00
C115   C     0.64868   0.56099   0.88533   0.00000  Uiso   1.00
H116   H     0.35690   0.42628   0.86262   0.00000  Uiso   1.00
H117   H     0.15126   0.51322   0.94463   0.00000  Uiso   1.00
H118   H     0.39542   0.31299   0.72804   0.00000  Uiso   1.00
H119   H     0.51705   0.43860   0.92296   0.00000  Uiso   1.00
H120   H     0.93428   0.63164   0.02321   0.00000  Uiso   1.00
H121   H     0.44914   0.20944   0.56652   0.00000  Uiso   1.00
H122   H     0.70563   0.47431   0.97754   0.00000  Uiso   1.00
H123   H     0.44177   0.59613   0.76772   0.00000  Uiso   1.00
H124   H     0.24079   0.69239   0.84452   0.00000  Uiso   1.00
H125   H     0.48495   0.49216   0.62793   0.00000  Uiso   1.00
H126   H     0.60657   0.61777   0.82285   0.00000  Uiso   1.00
H127   H     0.00694   0.77706   0.94196   0.00000  Uiso   1.00
H128   H     0.52181   0.35485   0.48527   0.00000  Uiso   1.00
H129   H     0.77829   0.61973   0.89629   0.00000  Uiso   1.00
O130   O     0.83686   0.76460   0.03480   0.00000  Uiso   1.00
O131   O     0.51235   0.21068   0.43564   0.00000  Uiso   1.00
O132   O     0.84885   0.55819   0.97490   0.00000  Uiso   1.00
N133   N     0.97897   0.65266   0.99356   0.00000  Uiso   1.00
N134   N     0.46032   0.25793   0.56658   0.00000  Uiso   1.00
N135   N     0.70013   0.50555   0.95084   0.00000  Uiso   1.00
N136   N     0.01807   0.73091   0.94984   0.00000  Uiso   1.00
N137   N     0.49941   0.33618   0.52286   0.00000  Uiso   1.00
N138   N     0.73922   0.58380   0.90712   0.00000  Uiso   1.00
C139   C     0.78175   0.83842   0.37623   0.00000  Uiso   1.00
C140   C     0.85381   0.87288   0.33648   0.00000  Uiso   1.00
C141   C     0.91008   0.92621   0.36920   0.00000  Uiso   1.00
C142   C     0.97158   0.95065   0.32333   0.00000  Uiso   1.00
C143   C     0.08276   0.00838   0.27313   0.00000  Uiso   1.00
C144   C     0.83265   0.75140   0.32849   0.00000  Uiso   1.00
C145   C     0.87112   0.70259   0.35451   0.00000  Uiso   1.00
C146   C     0.91479   0.62476   0.30191   0.00000  Uiso   1.00
C147   C     0.99304   0.49389   0.23932   0.00000  Uiso   1.00
C148   C     0.66505   0.85573   0.36801   0.00000  Uiso   1.00
C149   C     0.56259   0.89462   0.42726   0.00000  Uiso   1.00
C150   C     0.46515   0.90461   0.40793   0.00000  Uiso   1.00
C151   C     0.28318   0.93571   0.40671   0.00000  Uiso   1.00
C152   C     0.79088   0.78699   0.23656   0.00000  Uiso   1.00
C153   C     0.85877   0.84495   0.26061   0.00000  Uiso   1.00
C154   C     0.92019   0.86931   0.21468   0.00000  Uiso   1.00
C155   C     0.97654   0.92267   0.24733   0.00000  Uiso   1.00
C156   C     0.83761   0.72347   0.25263   0.00000  Uiso   1.00
C157   C     0.88122   0.64569   0.19998   0.00000  Uiso   1.00
C158   C     0.91976   0.59678   0.22591   0.00000  Uiso   1.00
C159   C     0.67001   0.82780   0.29215   0.00000  Uiso   1.00
C160   C     0.57270   0.83772   0.27273   0.00000  Uiso   1.00
C161   C     0.47012   0.87662   0.33194   0.00000  Uiso   1.00
H162   H     0.77789   0.86016   0.43529   0.00000  Uiso   1.00
H163   H     0.90624   0.94781   0.42791   0.00000  Uiso   1.00
H164   H     0.86726   0.72422   0.41322   0.00000  Uiso   1.00
H165   H     0.55879   0.91622   0.48596   0.00000  Uiso   1.00
H166   H     0.05075   0.03264   0.38627   0.00000  Uiso   1.00
H167   H     0.96854   0.56120   0.35529   0.00000  Uiso   1.00
H168   H     0.31806   0.96606   0.50868   0.00000  Uiso   1.00
H169   H     0.79474   0.76524   0.17750   0.00000  Uiso   1.00
H170   H     0.92401   0.84769   0.15597   0.00000  Uiso   1.00
H171   H     0.88504   0.62410   0.14128   0.00000  Uiso   1.00
H172   H     0.57657   0.81610   0.21402   0.00000  Uiso   1.00
H173   H     0.06518   0.95137   0.16555   0.00000  Uiso   1.00
H174   H     0.98297   0.47993   0.13458   0.00000  Uiso   1.00
H175   H     0.33249   0.88480   0.28796   0.00000  Uiso   1.00
O176   O     0.14273   0.04793   0.26639   0.00000  Uiso   1.00
O177   O     0.03485   0.42942   0.22576   0.00000  Uiso   1.00
O178   O     0.18145   0.96059   0.42700   0.00000  Uiso   1.00
N179   N     0.03639   0.00221   0.33728   0.00000  Uiso   1.00
N180   N     0.95954   0.56144   0.30832   0.00000  Uiso   1.00
N181   N     0.35140   0.93994   0.45172   0.00000  Uiso   1.00
N182   N     0.04415   0.95848   0.21852   0.00000  Uiso   1.00
N183   N     0.96731   0.51771   0.18955   0.00000  Uiso   1.00
N184   N     0.35916   0.89621   0.33295   0.00000  Uiso   1.00
C185   C     0.15668   0.62125   0.46417   0.00000  Uiso   1.00
C186   C     0.18779   0.66229   0.53574   0.00000  Uiso   1.00
C187   C     0.27392   0.63065   0.55426   0.00000  Uiso   1.00
C188   C     0.28887   0.67761   0.62231   0.00000  Uiso   1.00
C189   C     0.34767   0.72982   0.72616   0.00000  Uiso   1.00
C190   C     0.16433   0.67087   0.42568   0.00000  Uiso   1.00
C191   C     0.23073   0.64644   0.35167   0.00000  Uiso   1.00
C192   C     0.22592   0.70062   0.32708   0.00000  Uiso   1.00
C193   C     0.24824   0.76613   0.26005   0.00000  Uiso   1.00
C194   C     0.03117   0.62629   0.49133   0.00000  Uiso   1.00
C195   C     0.98561   0.56437   0.47250   0.00000  Uiso   1.00
C196   C     0.86869   0.58102   0.50316   0.00000  Uiso   1.00
C197   C     0.68426   0.57730   0.53805   0.00000  Uiso   1.00
C198   C     0.03007   0.76090   0.55208   0.00000  Uiso   1.00
C199   C     0.11901   0.73815   0.58349   0.00000  Uiso   1.00
C200   C     0.13383   0.78516   0.65153   0.00000  Uiso   1.00
C201   C     0.21997   0.75360   0.67016   0.00000  Uiso   1.00
C202   C     0.09556   0.74672   0.47343   0.00000  Uiso   1.00
C203   C     0.09065   0.80095   0.44895   0.00000  Uiso   1.00
C204   C     0.15703   0.77661   0.37492   0.00000  Uiso   1.00
C205   C     0.96240   0.70214   0.53908   0.00000  Uiso   1.00
C206   C     0.84553   0.71888   0.56977   0.00000  Uiso   1.00
C207   C     0.79979   0.65701   0.55100   0.00000  Uiso   1.00
H208   H     0.21022   0.56219   0.42699   0.00000  Uiso   1.00
H209   H     0.32713   0.57195   0.51729   0.00000  Uiso   1.00
H210   H     0.28393   0.58774   0.31473   0.00000  Uiso   1.00
H211   H     0.03885   0.50568   0.43554   0.00000  Uiso   1.00
H212   H     0.42644   0.61623   0.63845   0.00000  Uiso   1.00
H213   H     0.33533   0.64950   0.21134   0.00000  Uiso   1.00
H214   H     0.81853   0.47647   0.46608   0.00000  Uiso   1.00
H215   H     0.97652   0.81996   0.58926   0.00000  Uiso   1.00
H216   H     0.08060   0.84386   0.68847   0.00000  Uiso   1.00
H217   H     0.03741   0.85965   0.48591   0.00000  Uiso   1.00
H218   H     0.79233   0.77759   0.60672   0.00000  Uiso   1.00
H219   H     0.22635   0.83693   0.77739   0.00000  Uiso   1.00
H220   H     0.13524   0.87020   0.35028   0.00000  Uiso   1.00
H221   H     0.61844   0.69717   0.60502   0.00000  Uiso   1.00
O222   O     0.39910   0.73766   0.77024   0.00000  Uiso   1.00
O223   O     0.27956   0.78131   0.20989   0.00000  Uiso   1.00
O224   O     0.60153   0.55429   0.54411   0.00000  Uiso   1.00
N225   N     0.36505   0.66489   0.65754   0.00000  Uiso   1.00
N226   N     0.27988   0.69600   0.25822   0.00000  Uiso   1.00
N227   N     0.79671   0.53423   0.49637   0.00000  Uiso   1.00
N228   N     0.25738   0.78364   0.73230   0.00000  Uiso   1.00
N229   N     0.17222   0.81475   0.33298   0.00000  Uiso   1.00
N230   N     0.68905   0.65298   0.57113   0.00000  Uiso   1.00
C231   C     0.62366   0.53481   0.15912   0.00000  Uiso   1.00
C232   C     0.72361   0.46401   0.12771   0.00000  Uiso   1.00
C233   C     0.82944   0.44808   0.07697   0.00000  Uiso   1.00
C234   C     0.90951   0.38032   0.05511   0.00000  Uiso   1.00
C235   C     0.06853   0.27802   0.00213   0.00000  Uiso   1.00
C236   C     0.59097   0.57280   0.24540   0.00000  Uiso   1.00
C237   C     0.58525   0.64834   0.29359   0.00000  Uiso   1.00
C238   C     0.55365   0.67216   0.37079   0.00000  Uiso   1.00
C239   C     0.50665   0.73877   0.50052   0.00000  Uiso   1.00
C240   C     0.52490   0.50455   0.13948   0.00000  Uiso   1.00
C241   C     0.46360   0.52272   0.09864   0.00000  Uiso   1.00
C242   C     0.37634   0.48908   0.08669   0.00000  Uiso   1.00
C243   C     0.22675   0.44972   0.05198   0.00000  Uiso   1.00
C244   C     0.57768   0.44279   0.21054   0.00000  Uiso   1.00
C245   C     0.69864   0.41403   0.15565   0.00000  Uiso   1.00
C246   C     0.77857   0.34627   0.13385   0.00000  Uiso   1.00
C247   C     0.88449   0.33025   0.08308   0.00000  Uiso   1.00
C248   C     0.56599   0.52282   0.27332   0.00000  Uiso   1.00
C249   C     0.53438   0.54653   0.35048   0.00000  Uiso   1.00
C250   C     0.52863   0.62209   0.39877   0.00000  Uiso   1.00
C251   C     0.49992   0.45456   0.16741   0.00000  Uiso   1.00
C252   C     0.41273   0.42090   0.15553   0.00000  Uiso   1.00
C253   C     0.35132   0.43901   0.11467   0.00000  Uiso   1.00
H254   H     0.64310   0.57372   0.13738   0.00000  Uiso   1.00
H255   H     0.84874   0.48678   0.05537   0.00000  Uiso   1.00
H256   H     0.60458   0.68701   0.27196   0.00000  Uiso   1.00
H257   H     0.48295   0.56140   0.07704   0.00000  Uiso   1.00
H258   H     0.06572   0.36837   0.97679   0.00000  Uiso   1.00
H259   H     0.55086   0.79056   0.43348   0.00000  Uiso   1.00
H260   H     0.29437   0.52569   0.02246   0.00000  Uiso   1.00
H261   H     0.55823   0.40387   0.23228   0.00000  Uiso   1.00
H262   H     0.75921   0.30761   0.15548   0.00000  Uiso   1.00
H263   H     0.51505   0.50784   0.37207   0.00000  Uiso   1.00
H264   H     0.39343   0.38223   0.17715   0.00000  Uiso   1.00
H265   H     0.99306   0.22294   0.05804   0.00000  Uiso   1.00
H266   H     0.47819   0.64515   0.51473   0.00000  Uiso   1.00
H267   H     0.22172   0.38027   0.10371   0.00000  Uiso   1.00
O268   O     0.16314   0.23541   0.96520   0.00000  Uiso   1.00
O269   O     0.48765   0.78932   0.56436   0.00000  Uiso   1.00
O270   O     0.15115   0.44181   0.02510   0.00000  Uiso   1.00
N271   N     0.02103   0.34734   0.00644   0.00000  Uiso   1.00
N272   N     0.53968   0.74207   0.43342   0.00000  Uiso   1.00
N273   N     0.29987   0.49445   0.04916   0.00000  Uiso   1.00
N274   N     0.98193   0.26909   0.05016   0.00000  Uiso   1.00
N275   N     0.50059   0.66382   0.47714   0.00000  Uiso   1.00
N276   N     0.26078   0.41620   0.09288   0.00000  Uiso   1.00
