data_job_06835
_audit_creation_date              2018-12-19
_audit_creation_method            'Materials Studio'
_symmetry_space_group_name_H-M    'P1'
_symmetry_Int_Tables_number       1
_symmetry_cell_setting            triclinic
loop_
_symmetry_equiv_pos_as_xyz
  x,y,z
_cell_length_a                    20.6644
_cell_length_b                    21.7121
_cell_length_c                    23.5504
_cell_angle_alpha                 67.5277
_cell_angle_beta                  64.0984
_cell_angle_gamma                 91.3979
loop_
_atom_site_label
_atom_site_type_symbol
_atom_site_fract_x
_atom_site_fract_y
_atom_site_fract_z
_atom_site_U_iso_or_equiv
_atom_site_adp_type
_atom_site_occupancy
C1     C     0.58993   0.62656   0.60617   0.00000  Uiso   1.00
C2     C     0.51582   0.57472   0.64972   0.00000  Uiso   1.00
C3     C     0.44811   0.58968   0.65857   0.00000  Uiso   1.00
C4     C     0.38673   0.53506   0.70044   0.00000  Uiso   1.00
C5     C     0.27071   0.46478   0.76325   0.00000  Uiso   1.00
C6     C     0.62128   0.61809   0.65584   0.00000  Uiso   1.00
C7     C     0.64225   0.66954   0.66983   0.00000  Uiso   1.00
C8     C     0.66965   0.65143   0.71686   0.00000  Uiso   1.00
C9     C     0.71741   0.64850   0.78913   0.00000  Uiso   1.00
C10    C     0.64050   0.60216   0.55314   0.00000  Uiso   1.00
C11    C     0.67765   0.64020   0.48077   0.00000  Uiso   1.00
C12    C     0.72125   0.60868   0.44133   0.00000  Uiso   1.00
C13    C     0.79885   0.58101   0.35413   0.00000  Uiso   1.00
C14    C     0.60132   0.50294   0.66481   0.00000  Uiso   1.00
C15    C     0.52201   0.50757   0.68157   0.00000  Uiso   1.00
C16    C     0.46072   0.45291   0.72344   0.00000  Uiso   1.00
C17    C     0.39293   0.46779   0.73235   0.00000  Uiso   1.00
C18    C     0.62747   0.55095   0.68769   0.00000  Uiso   1.00
C19    C     0.65485   0.53277   0.73471   0.00000  Uiso   1.00
C20    C     0.67585   0.58416   0.74877   0.00000  Uiso   1.00
C21    C     0.64669   0.53501   0.58498   0.00000  Uiso   1.00
C22    C     0.69025   0.50343   0.54565   0.00000  Uiso   1.00
C23    C     0.72745   0.54142   0.47323   0.00000  Uiso   1.00
H24    H     0.58512   0.67884   0.58138   0.00000  Uiso   1.00
H25    H     0.44334   0.64165   0.63392   0.00000  Uiso   1.00
H26    H     0.63746   0.72149   0.64517   0.00000  Uiso   1.00
H27    H     0.67285   0.69216   0.45614   0.00000  Uiso   1.00
H28    H     0.28889   0.57082   0.70623   0.00000  Uiso   1.00
H29    H     0.69821   0.73917   0.72995   0.00000  Uiso   1.00
H30    H     0.77284   0.67732   0.33134   0.00000  Uiso   1.00
H31    H     0.60614   0.45067   0.68960   0.00000  Uiso   1.00
H32    H     0.46552   0.40096   0.74808   0.00000  Uiso   1.00
H33    H     0.65964   0.48080   0.75934   0.00000  Uiso   1.00
H34    H     0.69502   0.45147   0.57031   0.00000  Uiso   1.00
H35    H     0.30689   0.37546   0.79889   0.00000  Uiso   1.00
H36    H     0.71622   0.54382   0.82261   0.00000  Uiso   1.00
H37    H     0.79084   0.48197   0.42400   0.00000  Uiso   1.00
O38    O     0.20500   0.44456   0.78910   0.00000  Uiso   1.00
O39    O     0.74203   0.66544   0.82021   0.00000  Uiso   1.00
O40    O     0.83993   0.58430   0.29724   0.00000  Uiso   1.00
N41    N     0.31242   0.53166   0.72000   0.00000  Uiso   1.00
N42    N     0.69511   0.68906   0.74219   0.00000  Uiso   1.00
N43    N     0.76489   0.63124   0.36952   0.00000  Uiso   1.00
N44    N     0.32211   0.42654   0.76986   0.00000  Uiso   1.00
N45    N     0.70479   0.58394   0.79205   0.00000  Uiso   1.00
N46    N     0.77458   0.52613   0.41938   0.00000  Uiso   1.00
C47    C     0.28073   0.45615   0.05853   0.00000  Uiso   1.00
C48    C     0.26794   0.50268   0.99871   0.00000  Uiso   1.00
C49    C     0.23762   0.48108   0.96537   0.00000  Uiso   1.00
C50    C     0.23053   0.53163   0.91182   0.00000  Uiso   1.00
C51    C     0.20729   0.59329   0.82187   0.00000  Uiso   1.00
C52    C     0.36279   0.47798   0.03374   0.00000  Uiso   1.00
C53    C     0.41221   0.43561   0.02986   0.00000  Uiso   1.00
C54    C     0.48497   0.46538   0.00580   0.00000  Uiso   1.00
C55    C     0.60898   0.48868   0.97028   0.00000  Uiso   1.00
C56    C     0.23979   0.47564   0.11859   0.00000  Uiso   1.00
C57    C     0.18580   0.43130   0.18608   0.00000  Uiso   1.00
C58    C     0.15502   0.45909   0.23347   0.00000  Uiso   1.00
C59    C     0.08805   0.47875   0.32971   0.00000  Uiso   1.00
C60    C     0.32207   0.58434   0.02271   0.00000  Uiso   1.00
C61    C     0.29040   0.57231   0.97925   0.00000  Uiso   1.00
C62    C     0.28335   0.62291   0.92574   0.00000  Uiso   1.00
C63    C     0.25302   0.60139   0.89233   0.00000  Uiso   1.00
C64    C     0.38525   0.54761   0.01428   0.00000  Uiso   1.00
C65    C     0.45795   0.57744   0.99023   0.00000  Uiso   1.00
C66    C     0.50747   0.53513   0.98631   0.00000  Uiso   1.00
C67    C     0.26224   0.54527   0.09914   0.00000  Uiso   1.00
C68    C     0.23154   0.57313   0.14644   0.00000  Uiso   1.00
C69    C     0.17752   0.52884   0.21398   0.00000  Uiso   1.00
H70    H     0.26325   0.40194   0.07368   0.00000  Uiso   1.00
H71    H     0.22025   0.42719   0.98044   0.00000  Uiso   1.00
H72    H     0.39482   0.38173   0.04492   0.00000  Uiso   1.00
H73    H     0.16844   0.37742   0.20111   0.00000  Uiso   1.00
H74    H     0.18251   0.48589   0.86847   0.00000  Uiso   1.00
H75    H     0.55058   0.39003   0.00446   0.00000  Uiso   1.00
H76    H     0.07323   0.38094   0.33382   0.00000  Uiso   1.00
H77    H     0.33955   0.63855   0.00756   0.00000  Uiso   1.00
H78    H     0.30074   0.67678   0.91070   0.00000  Uiso   1.00
H79    H     0.47531   0.63132   0.97518   0.00000  Uiso   1.00
H80    H     0.24893   0.62701   0.13137   0.00000  Uiso   1.00
H81    H     0.24784   0.68847   0.81186   0.00000  Uiso   1.00
H82    H     0.61591   0.59261   0.94786   0.00000  Uiso   1.00
H83    H     0.13856   0.58352   0.27721   0.00000  Uiso   1.00
O84    O     0.18828   0.60806   0.77762   0.00000  Uiso   1.00
O85    O     0.67118   0.48229   0.95605   0.00000  Uiso   1.00
O86    O     0.04490   0.47037   0.38816   0.00000  Uiso   1.00
N87    N     0.20320   0.52832   0.86845   0.00000  Uiso   1.00
N88    N     0.54733   0.43870   0.99558   0.00000  Uiso   1.00
N89    N     0.10106   0.43020   0.30351   0.00000  Uiso   1.00
N90    N     0.23835   0.63732   0.83799   0.00000  Uiso   1.00
N91    N     0.58248   0.54770   0.96512   0.00000  Uiso   1.00
N92    N     0.13621   0.53920   0.27305   0.00000  Uiso   1.00
C93    C     0.35568   0.89603   0.75652   0.00000  Uiso   1.00
C94    C     0.36296   0.85526   0.71460   0.00000  Uiso   1.00
C95    C     0.30516   0.82283   0.71342   0.00000  Uiso   1.00
C96    C     0.32327   0.78815   0.67176   0.00000  Uiso   1.00
C97    C     0.32342   0.72514   0.61264   0.00000  Uiso   1.00
C98    C     0.39093   0.86313   0.80229   0.00000  Uiso   1.00
C99    C     0.35664   0.83734   0.87483   0.00000  Uiso   1.00
C100   C     0.39830   0.80929   0.90698   0.00000  Uiso   1.00
C101   C     0.44189   0.75855   0.98400   0.00000  Uiso   1.00
C102   C     0.40563   0.96699   0.70340   0.00000  Uiso   1.00
C103   C     0.38371   0.02853   0.69280   0.00000  Uiso   1.00
C104   C     0.43776   0.08794   0.64170   0.00000  Uiso   1.00
C105   C     0.50417   0.19846   0.56518   0.00000  Uiso   1.00
C106   C     0.49063   0.89209   0.68462   0.00000  Uiso   1.00
C107   C     0.43626   0.85312   0.67555   0.00000  Uiso   1.00
C108   C     0.45446   0.81848   0.63388   0.00000  Uiso   1.00
C109   C     0.39670   0.78601   0.63264   0.00000  Uiso   1.00
C110   C     0.46422   0.86099   0.76324   0.00000  Uiso   1.00
C111   C     0.50595   0.83298   0.79529   0.00000  Uiso   1.00
C112   C     0.47173   0.80715   0.86786   0.00000  Uiso   1.00
C113   C     0.47893   0.96486   0.66434   0.00000  Uiso   1.00
C114   C     0.53302   0.02418   0.61326   0.00000  Uiso   1.00
C115   C     0.51119   0.08579   0.60258   0.00000  Uiso   1.00
H116   H     0.29862   0.89769   0.78692   0.00000  Uiso   1.00
H117   H     0.24844   0.82449   0.74365   0.00000  Uiso   1.00
H118   H     0.29992   0.83900   0.90504   0.00000  Uiso   1.00
H119   H     0.32699   0.03017   0.72303   0.00000  Uiso   1.00
H120   H     0.22514   0.74238   0.67848   0.00000  Uiso   1.00
H121   H     0.33369   0.77299   0.01877   0.00000  Uiso   1.00
H122   H     0.39076   0.17610   0.63498   0.00000  Uiso   1.00
H123   H     0.54770   0.89043   0.65422   0.00000  Uiso   1.00
H124   H     0.51119   0.81683   0.60367   0.00000  Uiso   1.00
H125   H     0.56267   0.83134   0.76505   0.00000  Uiso   1.00
H126   H     0.58973   0.02250   0.58305   0.00000  Uiso   1.00
H127   H     0.43839   0.73615   0.56487   0.00000  Uiso   1.00
H128   H     0.54695   0.76677   0.90515   0.00000  Uiso   1.00
H129   H     0.60402   0.16988   0.52136   0.00000  Uiso   1.00
O130   O     0.30326   0.69096   0.59083   0.00000  Uiso   1.00
O131   O     0.44567   0.73114   0.03727   0.00000  Uiso   1.00
O132   O     0.52055   0.26001   0.53374   0.00000  Uiso   1.00
N133   N     0.28034   0.75102   0.65867   0.00000  Uiso   1.00
N134   N     0.38183   0.77964   0.97682   0.00000  Uiso   1.00
N135   N     0.43519   0.15651   0.61802   0.00000  Uiso   1.00
N136   N     0.39509   0.74768   0.59753   0.00000  Uiso   1.00
N137   N     0.49658   0.77629   0.91568   0.00000  Uiso   1.00
N138   N     0.54994   0.15316   0.55688   0.00000  Uiso   1.00
C139   C     0.72516   0.24287   0.04974   0.00000  Uiso   1.00
C140   C     0.71300   0.23005   0.99544   0.00000  Uiso   1.00
C141   C     0.71412   0.27993   0.93640   0.00000  Uiso   1.00
C142   C     0.70177   0.25777   0.89318   0.00000  Uiso   1.00
C143   C     0.68491   0.24845   0.80651   0.00000  Uiso   1.00
C144   C     0.78917   0.21093   0.05280   0.00000  Uiso   1.00
C145   C     0.85433   0.24473   0.04200   0.00000  Uiso   1.00
C146   C     0.90609   0.20646   0.04708   0.00000  Uiso   1.00
C147   C     0.00745   0.16745   0.04951   0.00000  Uiso   1.00
C148   C     0.65691   0.19988   0.12033   0.00000  Uiso   1.00
C149   C     0.61088   0.22438   0.16633   0.00000  Uiso   1.00
C150   C     0.55130   0.17681   0.22828   0.00000  Uiso   1.00
C151   C     0.44732   0.12064   0.33558   0.00000  Uiso   1.00
C152   C     0.70121   0.11483   0.07798   0.00000  Uiso   1.00
C153   C     0.69999   0.16050   0.01078   0.00000  Uiso   1.00
C154   C     0.68763   0.13826   0.96764   0.00000  Uiso   1.00
C155   C     0.68874   0.18810   0.90855   0.00000  Uiso   1.00
C156   C     0.77616   0.14139   0.06814   0.00000  Uiso   1.00
C157   C     0.82784   0.10306   0.07324   0.00000  Uiso   1.00
C158   C     0.89306   0.13679   0.06245   0.00000  Uiso   1.00
C159   C     0.64390   0.13033   0.13568   0.00000  Uiso   1.00
C160   C     0.58439   0.08272   0.19757   0.00000  Uiso   1.00
C161   C     0.53827   0.10714   0.24365   0.00000  Uiso   1.00
H162   H     0.73529   0.29701   0.03780   0.00000  Uiso   1.00
H163   H     0.72420   0.33374   0.92454   0.00000  Uiso   1.00
H164   H     0.86437   0.29854   0.03013   0.00000  Uiso   1.00
H165   H     0.62096   0.27820   0.15444   0.00000  Uiso   1.00
H166   H     0.70620   0.34380   0.80572   0.00000  Uiso   1.00
H167   H     0.00175   0.26957   0.02839   0.00000  Uiso   1.00
H168   H     0.48847   0.22668   0.29053   0.00000  Uiso   1.00
H169   H     0.69109   0.06068   0.08993   0.00000  Uiso   1.00
H170   H     0.67757   0.08444   0.97953   0.00000  Uiso   1.00
H171   H     0.81775   0.04924   0.08512   0.00000  Uiso   1.00
H172   H     0.57434   0.02890   0.20943   0.00000  Uiso   1.00
H173   H     0.66836   0.14145   0.85035   0.00000  Uiso   1.00
H174   H     0.96392   0.06723   0.07303   0.00000  Uiso   1.00
H175   H     0.45063   0.02433   0.33516   0.00000  Uiso   1.00
O176   O     0.67921   0.26252   0.75446   0.00000  Uiso   1.00
O177   O     0.06696   0.16514   0.04661   0.00000  Uiso   1.00
O178   O     0.39355   0.10886   0.39052   0.00000  Uiso   1.00
N179   N     0.69913   0.29291   0.83138   0.00000  Uiso   1.00
N180   N     0.97547   0.22352   0.03956   0.00000  Uiso   1.00
N181   N     0.49560   0.18341   0.28464   0.00000  Uiso   1.00
N182   N     0.67877   0.18403   0.85540   0.00000  Uiso   1.00
N183   N     0.95510   0.11464   0.06357   0.00000  Uiso   1.00
N184   N     0.47524   0.07454   0.30865   0.00000  Uiso   1.00
C185   C     0.89878   0.08967   0.64153   0.00000  Uiso   1.00
C186   C     0.90463   0.16352   0.59465   0.00000  Uiso   1.00
C187   C     0.84915   0.18842   0.58112   0.00000  Uiso   1.00
C188   C     0.86539   0.25757   0.53681   0.00000  Uiso   1.00
C189   C     0.86392   0.36577   0.46857   0.00000  Uiso   1.00
C190   C     0.91719   0.09272   0.69658   0.00000  Uiso   1.00
C191   C     0.87227   0.05808   0.76874   0.00000  Uiso   1.00
C192   C     0.89909   0.06763   0.81024   0.00000  Uiso   1.00
C193   C     0.91715   0.06587   0.90024   0.00000  Uiso   1.00
C194   C     0.96190   0.06658   0.59593   0.00000  Uiso   1.00
C195   C     0.95458   0.00995   0.58348   0.00000  Uiso   1.00
C196   C     0.01904   0.99748   0.54025   0.00000  Uiso   1.00
C197   C     0.10651   0.95513   0.47397   0.00000  Uiso   1.00
C198   C     0.02628   0.16821   0.58691   0.00000  Uiso   1.00
C199   C     0.97388   0.20618   0.56499   0.00000  Uiso   1.00
C200   C     0.99021   0.27532   0.52069   0.00000  Uiso   1.00
C201   C     0.93477   0.30031   0.50709   0.00000  Uiso   1.00
C202   C     0.98644   0.13538   0.66692   0.00000  Uiso   1.00
C203   C     0.01334   0.14498   0.70832   0.00000  Uiso   1.00
C204   C     0.96847   0.11037   0.78052   0.00000  Uiso   1.00
C205   C     0.03115   0.10924   0.56626   0.00000  Uiso   1.00
C206   C     0.09564   0.09685   0.52305   0.00000  Uiso   1.00
C207   C     0.08842   0.04022   0.51053   0.00000  Uiso   1.00
H208   H     0.84486   0.05645   0.66463   0.00000  Uiso   1.00
H209   H     0.79556   0.15539   0.60409   0.00000  Uiso   1.00
H210   H     0.81869   0.02507   0.79168   0.00000  Uiso   1.00
H211   H     0.90097   0.97695   0.60644   0.00000  Uiso   1.00
H212   H     0.77143   0.28390   0.52391   0.00000  Uiso   1.00
H213   H     0.82020   0.00909   0.91947   0.00000  Uiso   1.00
H214   H     0.99372   0.90762   0.52885   0.00000  Uiso   1.00
H215   H     0.08020   0.20142   0.56382   0.00000  Uiso   1.00
H216   H     0.04381   0.30832   0.49774   0.00000  Uiso   1.00
H217   H     0.06693   0.17799   0.68534   0.00000  Uiso   1.00
H218   H     0.14922   0.12988   0.50010   0.00000  Uiso   1.00
H219   H     0.97292   0.40802   0.43760   0.00000  Uiso   1.00
H220   H     0.02169   0.13321   0.83316   0.00000  Uiso   1.00
H221   H     0.19521   0.03174   0.44254   0.00000  Uiso   1.00
O222   O     0.84398   0.41367   0.43913   0.00000  Uiso   1.00
O223   O     0.90797   0.05311   0.95808   0.00000  Uiso   1.00
O224   O     0.13563   0.91999   0.44560   0.00000  Uiso   1.00
N225   N     0.82385   0.29844   0.51266   0.00000  Uiso   1.00
N226   N     0.86944   0.04151   0.88248   0.00000  Uiso   1.00
N227   N     0.03167   0.94664   0.51730   0.00000  Uiso   1.00
N228   N     0.93227   0.36523   0.46621   0.00000  Uiso   1.00
N229   N     0.97786   0.10830   0.83603   0.00000  Uiso   1.00
N230   N     0.14009   0.01343   0.47085   0.00000  Uiso   1.00
C231   C     0.14416   0.40615   0.57072   0.00000  Uiso   1.00
C232   C     0.06921   0.41423   0.61801   0.00000  Uiso   1.00
C233   C     0.00563   0.40714   0.61237   0.00000  Uiso   1.00
C234   C     0.94263   0.41652   0.66071   0.00000  Uiso   1.00
C235   C     0.82614   0.42660   0.72624   0.00000  Uiso   1.00
C236   C     0.16497   0.35132   0.61931   0.00000  Uiso   1.00
C237   C     0.18192   0.29135   0.61475   0.00000  Uiso   1.00
C238   C     0.19955   0.24779   0.66418   0.00000  Uiso   1.00
C239   C     0.23180   0.16024   0.73169   0.00000  Uiso   1.00
C240   C     0.19910   0.47297   0.54054   0.00000  Uiso   1.00
C241   C     0.24476   0.51527   0.46975   0.00000  Uiso   1.00
C242   C     0.29113   0.57412   0.45286   0.00000  Uiso   1.00
C243   C     0.37637   0.67544   0.39807   0.00000  Uiso   1.00
C244   C     0.14534   0.43544   0.66659   0.00000  Uiso   1.00
C245   C     0.06985   0.43013   0.67009   0.00000  Uiso   1.00
C246   C     0.00694   0.43953   0.71844   0.00000  Uiso   1.00
C247   C     0.94327   0.43246   0.71287   0.00000  Uiso   1.00
C248   C     0.16562   0.36723   0.67139   0.00000  Uiso   1.00
C249   C     0.18323   0.32375   0.72082   0.00000  Uiso   1.00
C250   C     0.20020   0.26372   0.71635   0.00000  Uiso   1.00
C251   C     0.19974   0.48888   0.59261   0.00000  Uiso   1.00
C252   C     0.24606   0.54767   0.57583   0.00000  Uiso   1.00
C253   C     0.29178   0.59005   0.50502   0.00000  Uiso   1.00
H254   H     0.14366   0.39377   0.53018   0.00000  Uiso   1.00
H255   H     0.00515   0.39482   0.57207   0.00000  Uiso   1.00
H256   H     0.18143   0.27906   0.57445   0.00000  Uiso   1.00
H257   H     0.24425   0.50294   0.42947   0.00000  Uiso   1.00
H258   H     0.85186   0.40298   0.64149   0.00000  Uiso   1.00
H259   H     0.22358   0.15890   0.64649   0.00000  Uiso   1.00
H260   H     0.35605   0.63100   0.34077   0.00000  Uiso   1.00
H261   H     0.14584   0.44782   0.70714   0.00000  Uiso   1.00
H262   H     0.00745   0.45184   0.75874   0.00000  Uiso   1.00
H263   H     0.18373   0.33608   0.76111   0.00000  Uiso   1.00
H264   H     0.24655   0.55996   0.61614   0.00000  Uiso   1.00
H265   H     0.85373   0.44925   0.79300   0.00000  Uiso   1.00
H266   H     0.22545   0.20517   0.79799   0.00000  Uiso   1.00
H267   H     0.35792   0.67728   0.49228   0.00000  Uiso   1.00
O268   O     0.76171   0.42776   0.74801   0.00000  Uiso   1.00
O269   O     0.24940   0.10755   0.75455   0.00000  Uiso   1.00
O270   O     0.42320   0.72694   0.35347   0.00000  Uiso   1.00
N271   N     0.87130   0.41333   0.67006   0.00000  Uiso   1.00
N272   N     0.21882   0.18512   0.67474   0.00000  Uiso   1.00
N273   N     0.34268   0.62650   0.38892   0.00000  Uiso   1.00
N274   N     0.87230   0.43823   0.75158   0.00000  Uiso   1.00
N275   N     0.21982   0.21003   0.75626   0.00000  Uiso   1.00
N276   N     0.34369   0.65140   0.47044   0.00000  Uiso   1.00
C277   C     0.73288   0.68422   0.18644   0.00000  Uiso   1.00
C278   C     0.80738   0.73362   0.15063   0.00000  Uiso   1.00
C279   C     0.87351   0.71520   0.14292   0.00000  Uiso   1.00
C280   C     0.93558   0.76803   0.10856   0.00000  Uiso   1.00
C281   C     0.05187   0.83428   0.05684   0.00000  Uiso   1.00
C282   C     0.70616   0.70329   0.13229   0.00000  Uiso   1.00
C283   C     0.68717   0.65934   0.10917   0.00000  Uiso   1.00
C284   C     0.66401   0.68664   0.05938   0.00000  Uiso   1.00
C285   C     0.62310   0.70578   0.97923   0.00000  Uiso   1.00
C286   C     0.68006   0.70251   0.24397   0.00000  Uiso   1.00
C287   C     0.63912   0.65791   0.31475   0.00000  Uiso   1.00
C288   C     0.59398   0.68455   0.35899   0.00000  Uiso   1.00
C289   C     0.51255   0.70247   0.45224   0.00000  Uiso   1.00
C290   C     0.72551   0.81082   0.13914   0.00000  Uiso   1.00
C291   C     0.80338   0.80239   0.12494   0.00000  Uiso   1.00
C292   C     0.86536   0.85526   0.09059   0.00000  Uiso   1.00
C293   C     0.93157   0.83692   0.08283   0.00000  Uiso   1.00
C294   C     0.70215   0.77205   0.10660   0.00000  Uiso   1.00
C295   C     0.67901   0.79941   0.05684   0.00000  Uiso   1.00
C296   C     0.66000   0.75553   0.03364   0.00000  Uiso   1.00
C297   C     0.67606   0.77127   0.21828   0.00000  Uiso   1.00
C298   C     0.63097   0.79798   0.26242   0.00000  Uiso   1.00
C299   C     0.58997   0.75343   0.33325   0.00000  Uiso   1.00
H300   H     0.73600   0.63068   0.20644   0.00000  Uiso   1.00
H301   H     0.87659   0.66197   0.16280   0.00000  Uiso   1.00
H302   H     0.69026   0.60613   0.12907   0.00000  Uiso   1.00
H303   H     0.64223   0.60470   0.33462   0.00000  Uiso   1.00
H304   H     0.03070   0.72699   0.10307   0.00000  Uiso   1.00
H305   H     0.63780   0.60924   0.03196   0.00000  Uiso   1.00
H306   H     0.53651   0.60621   0.46540   0.00000  Uiso   1.00
H307   H     0.72240   0.86436   0.11913   0.00000  Uiso   1.00
H308   H     0.86224   0.90847   0.07071   0.00000  Uiso   1.00
H309   H     0.67592   0.85263   0.03697   0.00000  Uiso   1.00
H310   H     0.62789   0.85120   0.24252   0.00000  Uiso   1.00
H311   H     0.01906   0.92706   0.02832   0.00000  Uiso   1.00
H312   H     0.62616   0.80930   0.95721   0.00000  Uiso   1.00
H313   H     0.52487   0.80628   0.39064   0.00000  Uiso   1.00
O314   O     0.11712   0.85183   0.03540   0.00000  Uiso   1.00
O315   O     0.60165   0.69734   0.94211   0.00000  Uiso   1.00
O316   O     0.46875   0.69337   0.51077   0.00000  Uiso   1.00
N317   N     0.00876   0.76802   0.09214   0.00000  Uiso   1.00
N318   N     0.64144   0.65793   0.02564   0.00000  Uiso   1.00
N319   N     0.54672   0.65510   0.43087   0.00000  Uiso   1.00
N320   N     0.00250   0.87568   0.05192   0.00000  Uiso   1.00
N321   N     0.63518   0.76559   0.98542   0.00000  Uiso   1.00
N322   N     0.54046   0.76276   0.39065   0.00000  Uiso   1.00
C323   C     0.08961   0.89602   0.73410   0.00000  Uiso   1.00
C324   C     0.10033   0.84225   0.79188   0.00000  Uiso   1.00
C325   C     0.11913   0.85428   0.83716   0.00000  Uiso   1.00
C326   C     0.12631   0.79828   0.88644   0.00000  Uiso   1.00
C327   C     0.14463   0.72476   0.97560   0.00000  Uiso   1.00
C328   C     0.01189   0.87057   0.74893   0.00000  Uiso   1.00
C329   C     0.95633   0.90642   0.75809   0.00000  Uiso   1.00
C330   C     0.88907   0.87426   0.77120   0.00000  Uiso   1.00
C331   C     0.77011   0.84474   0.79364   0.00000  Uiso   1.00
C332   C     0.14244   0.89242   0.66627   0.00000  Uiso   1.00
C333   C     0.19662   0.94664   0.60592   0.00000  Uiso   1.00
C334   C     0.23926   0.93288   0.54943   0.00000  Uiso   1.00
C335   C     0.32298   0.93729   0.44353   0.00000  Uiso   1.00
C336   C     0.06895   0.77517   0.74109   0.00000  Uiso   1.00
C337   C     0.08911   0.77661   0.79568   0.00000  Uiso   1.00
C338   C     0.09627   0.72058   0.84489   0.00000  Uiso   1.00
C339   C     0.11507   0.73252   0.89024   0.00000  Uiso   1.00
C340   C     0.00067   0.80493   0.75273   0.00000  Uiso   1.00
C341   C     0.93347   0.77272   0.76582   0.00000  Uiso   1.00
C342   C     0.87782   0.80851   0.77500   0.00000  Uiso   1.00
C343   C     0.13121   0.82678   0.67007   0.00000  Uiso   1.00
C344   C     0.17376   0.81294   0.61366   0.00000  Uiso   1.00
C345   C     0.22801   0.86713   0.55324   0.00000  Uiso   1.00
H346   H     0.09834   0.94712   0.73114   0.00000  Uiso   1.00
H347   H     0.12780   0.90508   0.83421   0.00000  Uiso   1.00
H348   H     0.96504   0.95722   0.75514   0.00000  Uiso   1.00
H349   H     0.20529   0.99743   0.60301   0.00000  Uiso   1.00
H350   H     0.15548   0.82952   0.95017   0.00000  Uiso   1.00
H351   H     0.81230   0.93946   0.78343   0.00000  Uiso   1.00
H352   H     0.31892   0.02426   0.46262   0.00000  Uiso   1.00
H353   H     0.06021   0.72407   0.74404   0.00000  Uiso   1.00
H354   H     0.08758   0.66979   0.84782   0.00000  Uiso   1.00
H355   H     0.92481   0.72192   0.76875   0.00000  Uiso   1.00
H356   H     0.16506   0.76214   0.61662   0.00000  Uiso   1.00
H357   H     0.12283   0.63855   0.96122   0.00000  Uiso   1.00
H358   H     0.77964   0.74849   0.79447   0.00000  Uiso   1.00
H359   H     0.28627   0.83329   0.47366   0.00000  Uiso   1.00
O360   O     0.15782   0.70235   0.02374   0.00000  Uiso   1.00
O361   O     0.70758   0.84659   0.80497   0.00000  Uiso   1.00
O362   O     0.37226   0.95785   0.38408   0.00000  Uiso   1.00
N363   N     0.14406   0.79203   0.93852   0.00000  Uiso   1.00
N364   N     0.82319   0.89481   0.78264   0.00000  Uiso   1.00
N365   N     0.29683   0.97410   0.48270   0.00000  Uiso   1.00
N366   N     0.12649   0.68927   0.94446   0.00000  Uiso   1.00
N367   N     0.80563   0.79205   0.78858   0.00000  Uiso   1.00
N368   N     0.27926   0.87133   0.48864   0.00000  Uiso   1.00
C369   C     0.97091   0.38385   0.09612   0.00000  Uiso   1.00
C370   C     0.97319   0.43669   0.12353   0.00000  Uiso   1.00
C371   C     0.03664   0.47595   0.11023   0.00000  Uiso   1.00
C372   C     0.02702   0.52142   0.14011   0.00000  Uiso   1.00
C373   C     0.04130   0.60259   0.17630   0.00000  Uiso   1.00
C374   C     0.92702   0.40551   0.05675   0.00000  Uiso   1.00
C375   C     0.95164   0.41854   0.98731   0.00000  Uiso   1.00
C376   C     0.90316   0.43774   0.96098   0.00000  Uiso   1.00
C377   C     0.84573   0.47045   0.89351   0.00000  Uiso   1.00
C378   C     0.92351   0.31685   0.16065   0.00000  Uiso   1.00
C379   C     0.94516   0.25532   0.17856   0.00000  Uiso   1.00
C380   C     0.89371   0.19988   0.23970   0.00000  Uiso   1.00
C381   C     0.83082   0.09493   0.33355   0.00000  Uiso   1.00
C382   C     0.84102   0.39479   0.17285   0.00000  Uiso   1.00
C383   C     0.90264   0.44263   0.16521   0.00000  Uiso   1.00
C384   C     0.89293   0.48805   0.19512   0.00000  Uiso   1.00
C385   C     0.95635   0.52737   0.18186   0.00000  Uiso   1.00
C386   C     0.85647   0.41145   0.09843   0.00000  Uiso   1.00
C387   C     0.80794   0.43064   0.07219   0.00000  Uiso   1.00
C388   C     0.83248   0.44369   0.00272   0.00000  Uiso   1.00
C389   C     0.85295   0.32279   0.20233   0.00000  Uiso   1.00
C390   C     0.80145   0.26742   0.26345   0.00000  Uiso   1.00
C391   C     0.82303   0.20583   0.28145   0.00000  Uiso   1.00
H392   H     0.02584   0.37923   0.06367   0.00000  Uiso   1.00
H393   H     0.09123   0.47134   0.07797   0.00000  Uiso   1.00
H394   H     0.00624   0.41393   0.95507   0.00000  Uiso   1.00
H395   H     0.99976   0.25074   0.14630   0.00000  Uiso   1.00
H396   H     0.13261   0.57611   0.11217   0.00000  Uiso   1.00
H397   H     0.95341   0.45503   0.85304   0.00000  Uiso   1.00
H398   H     0.93974   0.11092   0.25628   0.00000  Uiso   1.00
H399   H     0.78609   0.39941   0.20529   0.00000  Uiso   1.00
H400   H     0.83832   0.49263   0.22736   0.00000  Uiso   1.00
H401   H     0.75334   0.43522   0.10446   0.00000  Uiso   1.00
H402   H     0.74686   0.27204   0.29569   0.00000  Uiso   1.00
H403   H     0.92735   0.59339   0.23343   0.00000  Uiso   1.00
H404   H     0.74814   0.47231   0.97429   0.00000  Uiso   1.00
H405   H     0.73448   0.12820   0.37753   0.00000  Uiso   1.00
O406   O     0.06867   0.64573   0.18474   0.00000  Uiso   1.00
O407   O     0.83355   0.48686   0.84478   0.00000  Uiso   1.00
O408   O     0.81563   0.03540   0.37381   0.00000  Uiso   1.00
N409   N     0.07713   0.56737   0.13769   0.00000  Uiso   1.00
N410   N     0.90959   0.45418   0.89542   0.00000  Uiso   1.00
N411   N     0.89681   0.13246   0.27240   0.00000  Uiso   1.00
N412   N     0.96668   0.57667   0.20294   0.00000  Uiso   1.00
N413   N     0.79914   0.46348   0.96066   0.00000  Uiso   1.00
N414   N     0.78636   0.14176   0.33764   0.00000  Uiso   1.00
C415   C     0.43768   0.98842   0.93060   0.00000  Uiso   1.00
C416   C     0.46716   0.99202   0.97865   0.00000  Uiso   1.00
C417   C     0.48779   0.93915   0.01837   0.00000  Uiso   1.00
C418   C     0.51337   0.95265   0.05897   0.00000  Uiso   1.00
C419   C     0.55839   0.94848   0.13349   0.00000  Uiso   1.00
C420   C     0.36308   0.00767   0.95584   0.00000  Uiso   1.00
C421   C     0.29621   0.96796   0.97637   0.00000  Uiso   1.00
C422   C     0.23417   0.99465   0.99775   0.00000  Uiso   1.00
C423   C     0.11761   0.01479   0.03681   0.00000  Uiso   1.00
C424   C     0.48879   0.04643   0.85831   0.00000  Uiso   1.00
C425   C     0.52760   0.03932   0.79682   0.00000  Uiso   1.00
C426   C     0.57140   0.09865   0.73608   0.00000  Uiso   1.00
C427   C     0.65002   0.17898   0.62371   0.00000  Uiso   1.00
C428   C     0.44642   0.10641   0.93206   0.00000  Uiso   1.00
C429   C     0.47190   0.05611   0.97945   0.00000  Uiso   1.00
C430   C     0.49747   0.06970   0.01999   0.00000  Uiso   1.00
C431   C     0.51813   0.01686   0.05976   0.00000  Uiso   1.00
C432   C     0.36782   0.07176   0.95664   0.00000  Uiso   1.00
C433   C     0.30588   0.09851   0.97799   0.00000  Uiso   1.00
C434   C     0.23893   0.05885   0.99855   0.00000  Uiso   1.00
C435   C     0.49354   0.11052   0.85910   0.00000  Uiso   1.00
C436   C     0.53728   0.16987   0.79844   0.00000  Uiso   1.00
C437   C     0.57615   0.16285   0.73688   0.00000  Uiso   1.00
H438   H     0.43398   0.93852   0.92998   0.00000  Uiso   1.00
H439   H     0.48410   0.88955   0.01775   0.00000  Uiso   1.00
H440   H     0.29255   0.91837   0.97574   0.00000  Uiso   1.00
H441   H     0.52391   0.98972   0.79623   0.00000  Uiso   1.00
H442   H     0.54174   0.86352   0.11542   0.00000  Uiso   1.00
H443   H     0.13784   0.92429   0.02684   0.00000  Uiso   1.00
H444   H     0.62572   0.07474   0.64829   0.00000  Uiso   1.00
H445   H     0.45012   0.15631   0.93268   0.00000  Uiso   1.00
H446   H     0.50113   0.11930   0.02059   0.00000  Uiso   1.00
H447   H     0.30957   0.14811   0.97859   0.00000  Uiso   1.00
H448   H     0.54094   0.21946   0.79908   0.00000  Uiso   1.00
H449   H     0.55556   0.04999   0.11774   0.00000  Uiso   1.00
H450   H     0.15166   0.11075   0.02915   0.00000  Uiso   1.00
H451   H     0.63954   0.26121   0.65060   0.00000  Uiso   1.00
O452   O     0.58190   0.92847   0.17438   0.00000  Uiso   1.00
O453   O     0.05200   0.00819   0.05815   0.00000  Uiso   1.00
O454   O     0.69208   0.20558   0.56151   0.00000  Uiso   1.00
N455   N     0.53801   0.91249   0.10389   0.00000  Uiso   1.00
N456   N     0.16038   0.96930   0.02108   0.00000  Uiso   1.00
N457   N     0.61649   0.10996   0.66717   0.00000  Uiso   1.00
N458   N     0.54545   0.01283   0.10513   0.00000  Uiso   1.00
N459   N     0.16782   0.06963   0.02232   0.00000  Uiso   1.00
N460   N     0.62393   0.21030   0.66841   0.00000  Uiso   1.00
C461   C     0.33669   0.20792   0.16330   0.00000  Uiso   1.00
C462   C     0.32632   0.13066   0.20096   0.00000  Uiso   1.00
C463   C     0.38231   0.09642   0.20020   0.00000  Uiso   1.00
C464   C     0.36144   0.02562   0.23797   0.00000  Uiso   1.00
C465   C     0.35662   0.91101   0.29077   0.00000  Uiso   1.00
C466   C     0.30156   0.21891   0.11617   0.00000  Uiso   1.00
C467   C     0.33674   0.25888   0.04413   0.00000  Uiso   1.00
C468   C     0.29502   0.26237   0.01054   0.00000  Uiso   1.00
C469   C     0.25175   0.28481   0.93172   0.00000  Uiso   1.00
C470   C     0.28857   0.22974   0.21965   0.00000  Uiso   1.00
C471   C     0.31282   0.27883   0.23459   0.00000  Uiso   1.00
C472   C     0.26017   0.29145   0.28811   0.00000  Uiso   1.00
C473   C     0.19673   0.33071   0.36994   0.00000  Uiso   1.00
C474   C     0.20006   0.14306   0.23173   0.00000  Uiso   1.00
C475   C     0.25210   0.09543   0.23813   0.00000  Uiso   1.00
C476   C     0.23114   0.02466   0.27592   0.00000  Uiso   1.00
C477   C     0.28710   0.99032   0.27522   0.00000  Uiso   1.00
C478   C     0.22735   0.18368   0.15334   0.00000  Uiso   1.00
C479   C     0.18557   0.18712   0.11985   0.00000  Uiso   1.00
C480   C     0.22068   0.22708   0.04778   0.00000  Uiso   1.00
C481   C     0.21436   0.19451   0.25682   0.00000  Uiso   1.00
C482   C     0.16165   0.20707   0.31031   0.00000  Uiso   1.00
C483   C     0.18582   0.25616   0.32535   0.00000  Uiso   1.00
H484   H     0.39447   0.23534   0.13435   0.00000  Uiso   1.00
H485   H     0.43974   0.12370   0.17142   0.00000  Uiso   1.00
H486   H     0.39417   0.28614   0.01538   0.00000  Uiso   1.00
H487   H     0.37025   0.30608   0.20582   0.00000  Uiso   1.00
H488   H     0.45720   0.98438   0.22889   0.00000  Uiso   1.00
H489   H     0.36110   0.32691   0.89988   0.00000  Uiso   1.00
H490   H     0.31068   0.36897   0.30145   0.00000  Uiso   1.00
H491   H     0.14228   0.11563   0.26067   0.00000  Uiso   1.00
H492   H     0.17371   0.99742   0.30468   0.00000  Uiso   1.00
H493   H     0.12814   0.15985   0.14863   0.00000  Uiso   1.00
H494   H     0.10423   0.17980   0.33907   0.00000  Uiso   1.00
H495   H     0.24128   0.88189   0.33704   0.00000  Uiso   1.00
H496   H     0.14519   0.22442   0.00803   0.00000  Uiso   1.00
H497   H     0.09477   0.26647   0.40960   0.00000  Uiso   1.00
O498   O     0.37447   0.85752   0.30961   0.00000  Uiso   1.00
O499   O     0.24839   0.30692   0.87797   0.00000  Uiso   1.00
O500   O     0.18224   0.36209   0.40482   0.00000  Uiso   1.00
N501   N     0.40207   0.97648   0.24832   0.00000  Uiso   1.00
N502   N     0.31223   0.29672   0.94071   0.00000  Uiso   1.00
N503   N     0.26509   0.33605   0.31613   0.00000  Uiso   1.00
N504   N     0.28589   0.92133   0.30651   0.00000  Uiso   1.00
N505   N     0.19605   0.24156   0.99890   0.00000  Uiso   1.00
N506   N     0.14890   0.28090   0.37432   0.00000  Uiso   1.00
C507   C     0.11644   0.76328   0.36137   0.00000  Uiso   1.00
C508   C     0.18989   0.75912   0.30777   0.00000  Uiso   1.00
C509   C     0.25577   0.76277   0.31010   0.00000  Uiso   1.00
C510   C     0.31685   0.75794   0.25608   0.00000  Uiso   1.00
C511   C     0.43164   0.75277   0.18111   0.00000  Uiso   1.00
C512   C     0.09252   0.82218   0.32008   0.00000  Uiso   1.00
C513   C     0.07653   0.87884   0.33276   0.00000  Uiso   1.00
C514   C     0.05563   0.92710   0.28911   0.00000  Uiso   1.00
C515   C     0.01920   0.01980   0.23327   0.00000  Uiso   1.00
C516   C     0.06093   0.69823   0.38768   0.00000  Uiso   1.00
C517   C     0.01836   0.65066   0.45721   0.00000  Uiso   1.00
C518   C     0.97085   0.59456   0.47048   0.00000  Uiso   1.00
C519   C     0.88537   0.49480   0.51961   0.00000  Uiso   1.00
C520   C     0.10774   0.74824   0.26130   0.00000  Uiso   1.00
C521   C     0.18517   0.75096   0.25342   0.00000  Uiso   1.00
C522   C     0.24616   0.74612   0.19939   0.00000  Uiso   1.00
C523   C     0.31212   0.74976   0.20163   0.00000  Uiso   1.00
C524   C     0.08780   0.81402   0.26573   0.00000  Uiso   1.00
C525   C     0.06691   0.86220   0.22205   0.00000  Uiso   1.00
C526   C     0.05090   0.91891   0.23466   0.00000  Uiso   1.00
C527   C     0.05621   0.69005   0.33333   0.00000  Uiso   1.00
C528   C     0.00875   0.63402   0.34650   0.00000  Uiso   1.00
C529   C     0.96612   0.58638   0.41603   0.00000  Uiso   1.00
H530   H     0.12011   0.76964   0.40368   0.00000  Uiso   1.00
H531   H     0.25941   0.76910   0.35217   0.00000  Uiso   1.00
H532   H     0.08018   0.88515   0.37483   0.00000  Uiso   1.00
H533   H     0.02203   0.65701   0.49926   0.00000  Uiso   1.00
H534   H     0.41177   0.76491   0.27107   0.00000  Uiso   1.00
H535   H     0.03384   0.00960   0.31886   0.00000  Uiso   1.00
H536   H     0.91121   0.52852   0.58125   0.00000  Uiso   1.00
H537   H     0.10407   0.74188   0.21899   0.00000  Uiso   1.00
H538   H     0.24249   0.73980   0.15733   0.00000  Uiso   1.00
H539   H     0.06326   0.85585   0.18000   0.00000  Uiso   1.00
H540   H     0.00511   0.62771   0.30443   0.00000  Uiso   1.00
H541   H     0.39804   0.74114   0.11293   0.00000  Uiso   1.00
H542   H     0.02011   0.98583   0.16073   0.00000  Uiso   1.00
H543   H     0.89748   0.50474   0.42312   0.00000  Uiso   1.00
O544   O     0.49626   0.75218   0.15476   0.00000  Uiso   1.00
O545   O     0.00041   0.07320   0.21748   0.00000  Uiso   1.00
O546   O     0.83953   0.44203   0.56173   0.00000  Uiso   1.00
N547   N     0.38954   0.75959   0.24232   0.00000  Uiso   1.00
N548   N     0.03621   0.98836   0.28700   0.00000  Uiso   1.00
N549   N     0.92154   0.53860   0.53231   0.00000  Uiso   1.00
N550   N     0.38215   0.74679   0.15723   0.00000  Uiso   1.00
N551   N     0.02882   0.97557   0.20191   0.00000  Uiso   1.00
N552   N     0.91416   0.52581   0.44722   0.00000  Uiso   1.00
