data_job_01310
_audit_creation_date              2018-12-19
_audit_creation_method            'Materials Studio'
_symmetry_space_group_name_H-M    'P1'
_symmetry_Int_Tables_number       1
_symmetry_cell_setting            triclinic
loop_
_symmetry_equiv_pos_as_xyz
  x,y,z
_cell_length_a                    32.8213
_cell_length_b                    12.5132
_cell_length_c                    29.4175
_cell_angle_alpha                 90.0000
_cell_angle_beta                  156.8843
_cell_angle_gamma                 90.0000
loop_
_atom_site_label
_atom_site_type_symbol
_atom_site_fract_x
_atom_site_fract_y
_atom_site_fract_z
_atom_site_U_iso_or_equiv
_atom_site_adp_type
_atom_site_occupancy
C1     C     0.80504   0.35309   0.65634   0.00000  Uiso   1.00
C2     C     0.86217   0.43088   0.74604   0.00000  Uiso   1.00
C3     C     0.82045   0.52283   0.72226   0.00000  Uiso   1.00
C4     C     0.88537   0.58336   0.81637   0.00000  Uiso   1.00
C5     C     0.95843   0.70880   0.93835   0.00000  Uiso   1.00
C6     C     0.86933   0.34620   0.67889   0.00000  Uiso   1.00
C7     C     0.83363   0.36694   0.59862   0.00000  Uiso   1.00
C8     C     0.90458   0.35617   0.63620   0.00000  Uiso   1.00
C9     C     0.98874   0.35007   0.65389   0.00000  Uiso   1.00
C10    C     0.81348   0.24380   0.68763   0.00000  Uiso   1.00
C11    C     0.73082   0.17842   0.61471   0.00000  Uiso   1.00
C12    C     0.75476   0.08141   0.65964   0.00000  Uiso   1.00
C13    C     0.75220   0.91631   0.69090   0.00000  Uiso   1.00
C14    C     0.99452   0.29705   0.86579   0.00000  Uiso   1.00
C15    C     0.96508   0.40044   0.85981   0.00000  Uiso   1.00
C16    C     0.03009   0.46084   0.95398   0.00000  Uiso   1.00
C17    C     0.98847   0.55286   0.93034   0.00000  Uiso   1.00
C18    C     0.97224   0.31576   0.79264   0.00000  Uiso   1.00
C19    C     0.04326   0.30495   0.83035   0.00000  Uiso   1.00
C20    C     0.00768   0.32568   0.75017   0.00000  Uiso   1.00
C21    C     0.91640   0.21336   0.80139   0.00000  Uiso   1.00
C22    C     0.94046   0.11642   0.84644   0.00000  Uiso   1.00
C23    C     0.85786   0.05092   0.77361   0.00000  Uiso   1.00
H24    H     0.72492   0.37679   0.56777   0.00000  Uiso   1.00
H25    H     0.74080   0.54637   0.63420   0.00000  Uiso   1.00
H26    H     0.75398   0.39049   0.51059   0.00000  Uiso   1.00
H27    H     0.65119   0.20200   0.52668   0.00000  Uiso   1.00
H28    H     0.80381   0.72098   0.75802   0.00000  Uiso   1.00
H29    H     0.83158   0.39227   0.49737   0.00000  Uiso   1.00
H30    H     0.61484   0.99479   0.53129   0.00000  Uiso   1.00
H31    H     0.07465   0.27335   0.95436   0.00000  Uiso   1.00
H32    H     0.10973   0.43726   0.04201   0.00000  Uiso   1.00
H33    H     0.12290   0.28138   0.91839   0.00000  Uiso   1.00
H34    H     0.02011   0.09290   0.93448   0.00000  Uiso   1.00
H35    H     0.10325   0.63243   0.08901   0.00000  Uiso   1.00
H36    H     0.13101   0.30371   0.82835   0.00000  Uiso   1.00
H37    H     0.91427   0.90624   0.86227   0.00000  Uiso   1.00
O38    O     0.97031   0.78641   0.97420   0.00000  Uiso   1.00
O39    O     0.00672   0.35513   0.63221   0.00000  Uiso   1.00
O40    O     0.72237   0.83367   0.67672   0.00000  Uiso   1.00
N41    N     0.86947   0.67763   0.82390   0.00000  Uiso   1.00
N42    N     0.89543   0.37032   0.58020   0.00000  Uiso   1.00
N43    N     0.69279   0.99871   0.61190   0.00000  Uiso   1.00
N44    N     0.03059   0.62998   0.00200   0.00000  Uiso   1.00
N45    N     0.05655   0.32267   0.75830   0.00000  Uiso   1.00
N46    N     0.85392   0.95106   0.79000   0.00000  Uiso   1.00
C47    C     0.29927   0.97975   0.65344   0.00000  Uiso   1.00
C48    C     0.35637   0.05639   0.74364   0.00000  Uiso   1.00
C49    C     0.31487   0.14806   0.72041   0.00000  Uiso   1.00
C50    C     0.37973   0.20749   0.81492   0.00000  Uiso   1.00
C51    C     0.45280   0.33127   0.93769   0.00000  Uiso   1.00
C52    C     0.36410   0.97367   0.67668   0.00000  Uiso   1.00
C53    C     0.32910   0.99577   0.59714   0.00000  Uiso   1.00
C54    C     0.40047   0.98554   0.63529   0.00000  Uiso   1.00
C55    C     0.48552   0.98081   0.65408   0.00000  Uiso   1.00
C56    C     0.30684   0.86982   0.68332   0.00000  Uiso   1.00
C57    C     0.22369   0.80459   0.60937   0.00000  Uiso   1.00
C58    C     0.24685   0.70691   0.65310   0.00000  Uiso   1.00
C59    C     0.24298   0.54094   0.68221   0.00000  Uiso   1.00
C60    C     0.48825   0.92227   0.86259   0.00000  Uiso   1.00
C61    C     0.45902   0.02517   0.85724   0.00000  Uiso   1.00
C62    C     0.52396   0.08447   0.95181   0.00000  Uiso   1.00
C63    C     0.48256   0.17621   0.92872   0.00000  Uiso   1.00
C64    C     0.46675   0.94245   0.79028   0.00000  Uiso   1.00
C65    C     0.53818   0.93217   0.82854   0.00000  Uiso   1.00
C66    C     0.50330   0.95426   0.74909   0.00000  Uiso   1.00
C67    C     0.40949   0.83859   0.79693   0.00000  Uiso   1.00
C68    C     0.43278   0.74100   0.84077   0.00000  Uiso   1.00
C69    C     0.34968   0.67563   0.76690   0.00000  Uiso   1.00
H70    H     0.21936   0.00406   0.56499   0.00000  Uiso   1.00
H71    H     0.23544   0.17220   0.63248   0.00000  Uiso   1.00
H72    H     0.24966   0.01992   0.50924   0.00000  Uiso   1.00
H73    H     0.14427   0.82877   0.52146   0.00000  Uiso   1.00
H74    H     0.29854   0.34487   0.75740   0.00000  Uiso   1.00
H75    H     0.32852   0.02374   0.49752   0.00000  Uiso   1.00
H76    H     0.10628   0.62067   0.52330   0.00000  Uiso   1.00
H77    H     0.56817   0.89796   0.95103   0.00000  Uiso   1.00
H78    H     0.60339   0.06029   0.03971   0.00000  Uiso   1.00
H79    H     0.61761   0.90800   0.91646   0.00000  Uiso   1.00
H80    H     0.51222   0.71686   0.92869   0.00000  Uiso   1.00
H81    H     0.59719   0.25404   0.08792   0.00000  Uiso   1.00
H82    H     0.62717   0.93290   0.82803   0.00000  Uiso   1.00
H83    H     0.40493   0.52983   0.85382   0.00000  Uiso   1.00
O84    O     0.46476   0.40817   0.97403   0.00000  Uiso   1.00
O85    O     0.50408   0.98684   0.63306   0.00000  Uiso   1.00
O86    O     0.21250   0.45802   0.66689   0.00000  Uiso   1.00
N87    N     0.36399   0.30121   0.82302   0.00000  Uiso   1.00
N88    N     0.39202   0.00098   0.58005   0.00000  Uiso   1.00
N89    N     0.18424   0.62413   0.60414   0.00000  Uiso   1.00
N90    N     0.52469   0.25233   0.00087   0.00000  Uiso   1.00
N91    N     0.55272   0.95211   0.75790   0.00000  Uiso   1.00
N92    N     0.34494   0.57526   0.78199   0.00000  Uiso   1.00
C93    C     0.19496   0.85309   0.84366   0.00000  Uiso   1.00
C94    C     0.13783   0.93088   0.75396   0.00000  Uiso   1.00
C95    C     0.17955   0.02283   0.77774   0.00000  Uiso   1.00
C96    C     0.11463   0.08336   0.68363   0.00000  Uiso   1.00
C97    C     0.04157   0.20880   0.56165   0.00000  Uiso   1.00
C98    C     0.13067   0.84620   0.82111   0.00000  Uiso   1.00
C99    C     0.16637   0.86694   0.90138   0.00000  Uiso   1.00
C100   C     0.09542   0.85617   0.86380   0.00000  Uiso   1.00
C101   C     0.01126   0.85007   0.84611   0.00000  Uiso   1.00
C102   C     0.18652   0.74380   0.81237   0.00000  Uiso   1.00
C103   C     0.26918   0.67842   0.88529   0.00000  Uiso   1.00
C104   C     0.24524   0.58141   0.84036   0.00000  Uiso   1.00
C105   C     0.24780   0.41631   0.80910   0.00000  Uiso   1.00
C106   C     0.00548   0.79705   0.63421   0.00000  Uiso   1.00
C107   C     0.03492   0.90044   0.64019   0.00000  Uiso   1.00
C108   C     0.96991   0.96084   0.54602   0.00000  Uiso   1.00
C109   C     0.01153   0.05286   0.56966   0.00000  Uiso   1.00
C110   C     0.02776   0.81576   0.70736   0.00000  Uiso   1.00
C111   C     0.95674   0.80495   0.66965   0.00000  Uiso   1.00
C112   C     0.99232   0.82568   0.74983   0.00000  Uiso   1.00
C113   C     0.08360   0.71336   0.69861   0.00000  Uiso   1.00
C114   C     0.05954   0.61642   0.65356   0.00000  Uiso   1.00
C115   C     0.14214   0.55092   0.72639   0.00000  Uiso   1.00
H116   H     0.27508   0.87679   0.93223   0.00000  Uiso   1.00
H117   H     0.25920   0.04637   0.86580   0.00000  Uiso   1.00
H118   H     0.24602   0.89049   0.98941   0.00000  Uiso   1.00
H119   H     0.34881   0.70200   0.97332   0.00000  Uiso   1.00
H120   H     0.19619   0.22098   0.74198   0.00000  Uiso   1.00
H121   H     0.16842   0.89227   0.00263   0.00000  Uiso   1.00
H122   H     0.38516   0.49479   0.96871   0.00000  Uiso   1.00
H123   H     0.92535   0.77335   0.54564   0.00000  Uiso   1.00
H124   H     0.89027   0.93726   0.45799   0.00000  Uiso   1.00
H125   H     0.87710   0.78138   0.58161   0.00000  Uiso   1.00
H126   H     0.97989   0.59290   0.56552   0.00000  Uiso   1.00
H127   H     0.89675   0.13243   0.41099   0.00000  Uiso   1.00
H128   H     0.86899   0.80371   0.67165   0.00000  Uiso   1.00
H129   H     0.08573   0.40624   0.63773   0.00000  Uiso   1.00
O130   O     0.02969   0.28641   0.52580   0.00000  Uiso   1.00
O131   O     0.99328   0.85513   0.86779   0.00000  Uiso   1.00
O132   O     0.27763   0.33367   0.82328   0.00000  Uiso   1.00
N133   N     0.13053   0.17763   0.67610   0.00000  Uiso   1.00
N134   N     0.10457   0.87032   0.91980   0.00000  Uiso   1.00
N135   N     0.30721   0.49871   0.88810   0.00000  Uiso   1.00
N136   N     0.96941   0.12998   0.49800   0.00000  Uiso   1.00
N137   N     0.94345   0.82267   0.74170   0.00000  Uiso   1.00
N138   N     0.14608   0.45106   0.71000   0.00000  Uiso   1.00
C139   C     0.70073   0.47975   0.84656   0.00000  Uiso   1.00
C140   C     0.64363   0.55639   0.75636   0.00000  Uiso   1.00
C141   C     0.68513   0.64806   0.77959   0.00000  Uiso   1.00
C142   C     0.62027   0.70749   0.68508   0.00000  Uiso   1.00
C143   C     0.54720   0.83127   0.56231   0.00000  Uiso   1.00
C144   C     0.63590   0.47367   0.82332   0.00000  Uiso   1.00
C145   C     0.67090   0.49577   0.90286   0.00000  Uiso   1.00
C146   C     0.59953   0.48554   0.86471   0.00000  Uiso   1.00
C147   C     0.51448   0.48081   0.84592   0.00000  Uiso   1.00
C148   C     0.69316   0.36982   0.81668   0.00000  Uiso   1.00
C149   C     0.77631   0.30459   0.89063   0.00000  Uiso   1.00
C150   C     0.75315   0.20691   0.84690   0.00000  Uiso   1.00
C151   C     0.75702   0.04094   0.81779   0.00000  Uiso   1.00
C152   C     0.51175   0.42227   0.63741   0.00000  Uiso   1.00
C153   C     0.54098   0.52517   0.64276   0.00000  Uiso   1.00
C154   C     0.47604   0.58447   0.54819   0.00000  Uiso   1.00
C155   C     0.51744   0.67621   0.57128   0.00000  Uiso   1.00
C156   C     0.53325   0.44245   0.70972   0.00000  Uiso   1.00
C157   C     0.46182   0.43217   0.67146   0.00000  Uiso   1.00
C158   C     0.49670   0.45426   0.75091   0.00000  Uiso   1.00
C159   C     0.59051   0.33859   0.70307   0.00000  Uiso   1.00
C160   C     0.56722   0.24100   0.65923   0.00000  Uiso   1.00
C161   C     0.65032   0.17563   0.73310   0.00000  Uiso   1.00
H162   H     0.78064   0.50406   0.93501   0.00000  Uiso   1.00
H163   H     0.76456   0.67220   0.86752   0.00000  Uiso   1.00
H164   H     0.75034   0.51992   0.99076   0.00000  Uiso   1.00
H165   H     0.85573   0.32877   0.97854   0.00000  Uiso   1.00
H166   H     0.70146   0.84487   0.74260   0.00000  Uiso   1.00
H167   H     0.67148   0.52374   0.00248   0.00000  Uiso   1.00
H168   H     0.89372   0.12067   0.97670   0.00000  Uiso   1.00
H169   H     0.43183   0.39796   0.54897   0.00000  Uiso   1.00
H170   H     0.39661   0.56029   0.46029   0.00000  Uiso   1.00
H171   H     0.38239   0.40800   0.58354   0.00000  Uiso   1.00
H172   H     0.48778   0.21686   0.57131   0.00000  Uiso   1.00
H173   H     0.40281   0.75404   0.41208   0.00000  Uiso   1.00
H174   H     0.37283   0.43290   0.67197   0.00000  Uiso   1.00
H175   H     0.59507   0.02983   0.64618   0.00000  Uiso   1.00
O176   O     0.53524   0.90817   0.52597   0.00000  Uiso   1.00
O177   O     0.49592   0.48684   0.86694   0.00000  Uiso   1.00
O178   O     0.78750   0.95802   0.83311   0.00000  Uiso   1.00
N179   N     0.63601   0.80121   0.67698   0.00000  Uiso   1.00
N180   N     0.60798   0.50098   0.91995   0.00000  Uiso   1.00
N181   N     0.81576   0.12413   0.89586   0.00000  Uiso   1.00
N182   N     0.47531   0.75233   0.49913   0.00000  Uiso   1.00
N183   N     0.44728   0.45211   0.74210   0.00000  Uiso   1.00
N184   N     0.65506   0.07526   0.71801   0.00000  Uiso   1.00
C185   C     0.19496   0.64691   0.34366   0.00000  Uiso   1.00
C186   C     0.13783   0.56912   0.25396   0.00000  Uiso   1.00
C187   C     0.17955   0.47717   0.27774   0.00000  Uiso   1.00
C188   C     0.11463   0.41664   0.18363   0.00000  Uiso   1.00
C189   C     0.04157   0.29120   0.06165   0.00000  Uiso   1.00
C190   C     0.13067   0.65380   0.32111   0.00000  Uiso   1.00
C191   C     0.16637   0.63306   0.40138   0.00000  Uiso   1.00
C192   C     0.09542   0.64383   0.36380   0.00000  Uiso   1.00
C193   C     0.01126   0.64993   0.34611   0.00000  Uiso   1.00
C194   C     0.18652   0.75620   0.31237   0.00000  Uiso   1.00
C195   C     0.26918   0.82158   0.38529   0.00000  Uiso   1.00
C196   C     0.24524   0.91859   0.34036   0.00000  Uiso   1.00
C197   C     0.24780   0.08369   0.30910   0.00000  Uiso   1.00
C198   C     0.00548   0.70295   0.13421   0.00000  Uiso   1.00
C199   C     0.03492   0.59956   0.14019   0.00000  Uiso   1.00
C200   C     0.96991   0.53916   0.04602   0.00000  Uiso   1.00
C201   C     0.01153   0.44714   0.06966   0.00000  Uiso   1.00
C202   C     0.02776   0.68424   0.20736   0.00000  Uiso   1.00
C203   C     0.95674   0.69505   0.16965   0.00000  Uiso   1.00
C204   C     0.99232   0.67432   0.24983   0.00000  Uiso   1.00
C205   C     0.08360   0.78664   0.19861   0.00000  Uiso   1.00
C206   C     0.05954   0.88358   0.15356   0.00000  Uiso   1.00
C207   C     0.14214   0.94908   0.22639   0.00000  Uiso   1.00
H208   H     0.27508   0.62321   0.43223   0.00000  Uiso   1.00
H209   H     0.25920   0.45363   0.36580   0.00000  Uiso   1.00
H210   H     0.24602   0.60951   0.48941   0.00000  Uiso   1.00
H211   H     0.34881   0.79800   0.47332   0.00000  Uiso   1.00
H212   H     0.19619   0.27902   0.24198   0.00000  Uiso   1.00
H213   H     0.16842   0.60773   0.50263   0.00000  Uiso   1.00
H214   H     0.38516   0.00521   0.46871   0.00000  Uiso   1.00
H215   H     0.92535   0.72665   0.04564   0.00000  Uiso   1.00
H216   H     0.89027   0.56274   0.95799   0.00000  Uiso   1.00
H217   H     0.87710   0.71862   0.08161   0.00000  Uiso   1.00
H218   H     0.97989   0.90710   0.06552   0.00000  Uiso   1.00
H219   H     0.89675   0.36757   0.91099   0.00000  Uiso   1.00
H220   H     0.86899   0.69629   0.17165   0.00000  Uiso   1.00
H221   H     0.08573   0.09376   0.13773   0.00000  Uiso   1.00
O222   O     0.02969   0.21359   0.02580   0.00000  Uiso   1.00
O223   O     0.99328   0.64487   0.36779   0.00000  Uiso   1.00
O224   O     0.27763   0.16633   0.32328   0.00000  Uiso   1.00
N225   N     0.13053   0.32237   0.17610   0.00000  Uiso   1.00
N226   N     0.10457   0.62968   0.41980   0.00000  Uiso   1.00
N227   N     0.30721   0.00129   0.38810   0.00000  Uiso   1.00
N228   N     0.96941   0.37002   0.99800   0.00000  Uiso   1.00
N229   N     0.94345   0.67733   0.24170   0.00000  Uiso   1.00
N230   N     0.14608   0.04894   0.21000   0.00000  Uiso   1.00
C231   C     0.70073   0.02025   0.34656   0.00000  Uiso   1.00
C232   C     0.64363   0.94361   0.25636   0.00000  Uiso   1.00
C233   C     0.68513   0.85194   0.27959   0.00000  Uiso   1.00
C234   C     0.62027   0.79251   0.18508   0.00000  Uiso   1.00
C235   C     0.54720   0.66873   0.06231   0.00000  Uiso   1.00
C236   C     0.63590   0.02633   0.32332   0.00000  Uiso   1.00
C237   C     0.67090   0.00423   0.40286   0.00000  Uiso   1.00
C238   C     0.59953   0.01446   0.36471   0.00000  Uiso   1.00
C239   C     0.51448   0.01919   0.34592   0.00000  Uiso   1.00
C240   C     0.69316   0.13018   0.31668   0.00000  Uiso   1.00
C241   C     0.77631   0.19541   0.39063   0.00000  Uiso   1.00
C242   C     0.75315   0.29309   0.34690   0.00000  Uiso   1.00
C243   C     0.75702   0.45906   0.31779   0.00000  Uiso   1.00
C244   C     0.51175   0.07773   0.13741   0.00000  Uiso   1.00
C245   C     0.54098   0.97483   0.14276   0.00000  Uiso   1.00
C246   C     0.47604   0.91553   0.04819   0.00000  Uiso   1.00
C247   C     0.51744   0.82379   0.07128   0.00000  Uiso   1.00
C248   C     0.53325   0.05755   0.20972   0.00000  Uiso   1.00
C249   C     0.46182   0.06783   0.17146   0.00000  Uiso   1.00
C250   C     0.49670   0.04574   0.25091   0.00000  Uiso   1.00
C251   C     0.59051   0.16141   0.20307   0.00000  Uiso   1.00
C252   C     0.56722   0.25900   0.15923   0.00000  Uiso   1.00
C253   C     0.65032   0.32437   0.23310   0.00000  Uiso   1.00
H254   H     0.78064   0.99594   0.43501   0.00000  Uiso   1.00
H255   H     0.76456   0.82780   0.36752   0.00000  Uiso   1.00
H256   H     0.75034   0.98008   0.49076   0.00000  Uiso   1.00
H257   H     0.85573   0.17123   0.47854   0.00000  Uiso   1.00
H258   H     0.70146   0.65513   0.24260   0.00000  Uiso   1.00
H259   H     0.67148   0.97626   0.50248   0.00000  Uiso   1.00
H260   H     0.89372   0.37933   0.47670   0.00000  Uiso   1.00
H261   H     0.43183   0.10204   0.04897   0.00000  Uiso   1.00
H262   H     0.39661   0.93971   0.96029   0.00000  Uiso   1.00
H263   H     0.38239   0.09200   0.08354   0.00000  Uiso   1.00
H264   H     0.48778   0.28314   0.07131   0.00000  Uiso   1.00
H265   H     0.40281   0.74596   0.91208   0.00000  Uiso   1.00
H266   H     0.37283   0.06710   0.17197   0.00000  Uiso   1.00
H267   H     0.59507   0.47017   0.14618   0.00000  Uiso   1.00
O268   O     0.53524   0.59183   0.02597   0.00000  Uiso   1.00
O269   O     0.49592   0.01316   0.36694   0.00000  Uiso   1.00
O270   O     0.78750   0.54198   0.33311   0.00000  Uiso   1.00
N271   N     0.63601   0.69879   0.17698   0.00000  Uiso   1.00
N272   N     0.60798   0.99902   0.41995   0.00000  Uiso   1.00
N273   N     0.81576   0.37587   0.39586   0.00000  Uiso   1.00
N274   N     0.47531   0.74767   0.99913   0.00000  Uiso   1.00
N275   N     0.44728   0.04789   0.24210   0.00000  Uiso   1.00
N276   N     0.65506   0.42474   0.21801   0.00000  Uiso   1.00
C277   C     0.80504   0.14691   0.15634   0.00000  Uiso   1.00
C278   C     0.86217   0.06912   0.24604   0.00000  Uiso   1.00
C279   C     0.82045   0.97717   0.22226   0.00000  Uiso   1.00
C280   C     0.88537   0.91664   0.31637   0.00000  Uiso   1.00
C281   C     0.95843   0.79120   0.43835   0.00000  Uiso   1.00
C282   C     0.86933   0.15380   0.17889   0.00000  Uiso   1.00
C283   C     0.83363   0.13306   0.09862   0.00000  Uiso   1.00
C284   C     0.90458   0.14383   0.13620   0.00000  Uiso   1.00
C285   C     0.98874   0.14993   0.15389   0.00000  Uiso   1.00
C286   C     0.81348   0.25620   0.18763   0.00000  Uiso   1.00
C287   C     0.73082   0.32158   0.11471   0.00000  Uiso   1.00
C288   C     0.75476   0.41859   0.15964   0.00000  Uiso   1.00
C289   C     0.75220   0.58369   0.19090   0.00000  Uiso   1.00
C290   C     0.99452   0.20295   0.36579   0.00000  Uiso   1.00
C291   C     0.96508   0.09956   0.35981   0.00000  Uiso   1.00
C292   C     0.03009   0.03916   0.45398   0.00000  Uiso   1.00
C293   C     0.98847   0.94714   0.43034   0.00000  Uiso   1.00
C294   C     0.97224   0.18424   0.29264   0.00000  Uiso   1.00
C295   C     0.04326   0.19505   0.33035   0.00000  Uiso   1.00
C296   C     0.00768   0.17432   0.25017   0.00000  Uiso   1.00
C297   C     0.91640   0.28664   0.30139   0.00000  Uiso   1.00
C298   C     0.94046   0.38358   0.34644   0.00000  Uiso   1.00
C299   C     0.85786   0.44908   0.27361   0.00000  Uiso   1.00
H300   H     0.72492   0.12321   0.06777   0.00000  Uiso   1.00
H301   H     0.74080   0.95363   0.13420   0.00000  Uiso   1.00
H302   H     0.75398   0.10951   0.01059   0.00000  Uiso   1.00
H303   H     0.65119   0.29800   0.02668   0.00000  Uiso   1.00
H304   H     0.80381   0.77902   0.25802   0.00000  Uiso   1.00
H305   H     0.83158   0.10773   0.99737   0.00000  Uiso   1.00
H306   H     0.61484   0.50521   0.03129   0.00000  Uiso   1.00
H307   H     0.07465   0.22665   0.45436   0.00000  Uiso   1.00
H308   H     0.10973   0.06274   0.54201   0.00000  Uiso   1.00
H309   H     0.12290   0.21862   0.41839   0.00000  Uiso   1.00
H310   H     0.02011   0.40710   0.43448   0.00000  Uiso   1.00
H311   H     0.10325   0.86757   0.58901   0.00000  Uiso   1.00
H312   H     0.13101   0.19629   0.32835   0.00000  Uiso   1.00
H313   H     0.91427   0.59376   0.36227   0.00000  Uiso   1.00
O314   O     0.97031   0.71359   0.47420   0.00000  Uiso   1.00
O315   O     0.00672   0.14487   0.13221   0.00000  Uiso   1.00
O316   O     0.72237   0.66633   0.17672   0.00000  Uiso   1.00
N317   N     0.86947   0.82237   0.32390   0.00000  Uiso   1.00
N318   N     0.89543   0.12968   0.08020   0.00000  Uiso   1.00
N319   N     0.69279   0.50129   0.11190   0.00000  Uiso   1.00
N320   N     0.03059   0.87002   0.50200   0.00000  Uiso   1.00
N321   N     0.05655   0.17733   0.25830   0.00000  Uiso   1.00
N322   N     0.85392   0.54894   0.29000   0.00000  Uiso   1.00
C323   C     0.29927   0.52025   0.15344   0.00000  Uiso   1.00
C324   C     0.35637   0.44361   0.24364   0.00000  Uiso   1.00
C325   C     0.31487   0.35194   0.22041   0.00000  Uiso   1.00
C326   C     0.37973   0.29251   0.31492   0.00000  Uiso   1.00
C327   C     0.45280   0.16873   0.43769   0.00000  Uiso   1.00
C328   C     0.36410   0.52633   0.17668   0.00000  Uiso   1.00
C329   C     0.32910   0.50423   0.09714   0.00000  Uiso   1.00
C330   C     0.40047   0.51446   0.13529   0.00000  Uiso   1.00
C331   C     0.48552   0.51919   0.15408   0.00000  Uiso   1.00
C332   C     0.30684   0.63018   0.18332   0.00000  Uiso   1.00
C333   C     0.22369   0.69541   0.10937   0.00000  Uiso   1.00
C334   C     0.24685   0.79309   0.15310   0.00000  Uiso   1.00
C335   C     0.24298   0.95906   0.18221   0.00000  Uiso   1.00
C336   C     0.48825   0.57773   0.36259   0.00000  Uiso   1.00
C337   C     0.45902   0.47483   0.35724   0.00000  Uiso   1.00
C338   C     0.52396   0.41553   0.45181   0.00000  Uiso   1.00
C339   C     0.48256   0.32379   0.42872   0.00000  Uiso   1.00
C340   C     0.46675   0.55755   0.29028   0.00000  Uiso   1.00
C341   C     0.53818   0.56783   0.32854   0.00000  Uiso   1.00
C342   C     0.50330   0.54574   0.24909   0.00000  Uiso   1.00
C343   C     0.40949   0.66141   0.29693   0.00000  Uiso   1.00
C344   C     0.43278   0.75900   0.34077   0.00000  Uiso   1.00
C345   C     0.34968   0.82437   0.26690   0.00000  Uiso   1.00
H346   H     0.21936   0.49594   0.06499   0.00000  Uiso   1.00
H347   H     0.23544   0.32780   0.13248   0.00000  Uiso   1.00
H348   H     0.24966   0.48008   0.00924   0.00000  Uiso   1.00
H349   H     0.14427   0.67123   0.02146   0.00000  Uiso   1.00
H350   H     0.29854   0.15513   0.25740   0.00000  Uiso   1.00
H351   H     0.32852   0.47626   0.99752   0.00000  Uiso   1.00
H352   H     0.10628   0.87933   0.02330   0.00000  Uiso   1.00
H353   H     0.56817   0.60204   0.45103   0.00000  Uiso   1.00
H354   H     0.60339   0.43971   0.53971   0.00000  Uiso   1.00
H355   H     0.61761   0.59200   0.41646   0.00000  Uiso   1.00
H356   H     0.51222   0.78314   0.42869   0.00000  Uiso   1.00
H357   H     0.59719   0.24596   0.58792   0.00000  Uiso   1.00
H358   H     0.62717   0.56710   0.32803   0.00000  Uiso   1.00
H359   H     0.40493   0.97017   0.35382   0.00000  Uiso   1.00
O360   O     0.46476   0.09183   0.47403   0.00000  Uiso   1.00
O361   O     0.50408   0.51316   0.13306   0.00000  Uiso   1.00
O362   O     0.21250   0.04198   0.16689   0.00000  Uiso   1.00
N363   N     0.36399   0.19879   0.32302   0.00000  Uiso   1.00
N364   N     0.39202   0.49902   0.08005   0.00000  Uiso   1.00
N365   N     0.18424   0.87587   0.10414   0.00000  Uiso   1.00
N366   N     0.52469   0.24767   0.50087   0.00000  Uiso   1.00
N367   N     0.55272   0.54789   0.25790   0.00000  Uiso   1.00
N368   N     0.34494   0.92474   0.28199   0.00000  Uiso   1.00
