data_job_02217
_audit_creation_date              2018-12-19
_audit_creation_method            'Materials Studio'
_symmetry_space_group_name_H-M    'P1'
_symmetry_Int_Tables_number       1
_symmetry_cell_setting            triclinic
loop_
_symmetry_equiv_pos_as_xyz
  x,y,z
_cell_length_a                    39.3284
_cell_length_b                    19.0043
_cell_length_c                    8.9493
_cell_angle_alpha                 90.0000
_cell_angle_beta                  88.1160
_cell_angle_gamma                 90.0000
loop_
_atom_site_label
_atom_site_type_symbol
_atom_site_fract_x
_atom_site_fract_y
_atom_site_fract_z
_atom_site_U_iso_or_equiv
_atom_site_adp_type
_atom_site_occupancy
C1     C     0.63533   0.31388   0.34193   0.00000  Uiso   1.00
C2     C     0.66963   0.34990   0.35915   0.00000  Uiso   1.00
C3     C     0.68114   0.38000   0.48941   0.00000  Uiso   1.00
C4     C     0.71326   0.41037   0.48220   0.00000  Uiso   1.00
C5     C     0.76349   0.46629   0.52913   0.00000  Uiso   1.00
C6     C     0.61819   0.35206   0.21482   0.00000  Uiso   1.00
C7     C     0.58644   0.38396   0.22372   0.00000  Uiso   1.00
C8     C     0.57526   0.41614   0.09500   0.00000  Uiso   1.00
C9     C     0.54561   0.47536   0.91781   0.00000  Uiso   1.00
C10    C     0.64325   0.23997   0.28430   0.00000  Uiso   1.00
C11    C     0.63256   0.17764   0.35159   0.00000  Uiso   1.00
C12    C     0.64246   0.11544   0.28134   0.00000  Uiso   1.00
C13    C     0.65172   0.00064   0.21203   0.00000  Uiso   1.00
C14    C     0.67191   0.31428   0.09749   0.00000  Uiso   1.00
C15    C     0.68950   0.35012   0.22638   0.00000  Uiso   1.00
C16    C     0.72161   0.38044   0.21897   0.00000  Uiso   1.00
C17    C     0.73317   0.41058   0.34920   0.00000  Uiso   1.00
C18    C     0.63805   0.35227   0.08205   0.00000  Uiso   1.00
C19    C     0.62691   0.38440   0.95328   0.00000  Uiso   1.00
C20    C     0.59516   0.41635   0.96199   0.00000  Uiso   1.00
C21    C     0.66311   0.24019   0.15153   0.00000  Uiso   1.00
C22    C     0.67303   0.17807   0.08115   0.00000  Uiso   1.00
C23    C     0.66236   0.11566   0.14833   0.00000  Uiso   1.00
H24    H     0.61987   0.31372   0.44529   0.00000  Uiso   1.00
H25    H     0.66576   0.37983   0.59214   0.00000  Uiso   1.00
H26    H     0.57108   0.38378   0.32648   0.00000  Uiso   1.00
H27    H     0.61719   0.17749   0.45433   0.00000  Uiso   1.00
H28    H     0.72540   0.45325   0.69638   0.00000  Uiso   1.00
H29    H     0.52575   0.46156   0.13622   0.00000  Uiso   1.00
H30    H     0.62298   0.02655   0.40582   0.00000  Uiso   1.00
H31    H     0.68738   0.31445   0.99411   0.00000  Uiso   1.00
H32    H     0.73698   0.38060   0.11621   0.00000  Uiso   1.00
H33    H     0.64229   0.38455   0.85055   0.00000  Uiso   1.00
H34    H     0.68840   0.17826   0.97841   0.00000  Uiso   1.00
H35    H     0.78320   0.45388   0.31010   0.00000  Uiso   1.00
H36    H     0.58354   0.46218   0.74993   0.00000  Uiso   1.00
H37    H     0.68078   0.02717   0.01954   0.00000  Uiso   1.00
O38    O     0.78571   0.49709   0.59168   0.00000  Uiso   1.00
O39    O     0.52376   0.50798   0.85677   0.00000  Uiso   1.00
O40    O     0.65134   0.93726   0.21049   0.00000  Uiso   1.00
N41    N     0.73220   0.44431   0.58872   0.00000  Uiso   1.00
N42    N     0.54554   0.45209   0.06501   0.00000  Uiso   1.00
N43    N     0.63643   0.04539   0.31704   0.00000  Uiso   1.00
N44    N     0.76330   0.44464   0.38086   0.00000  Uiso   1.00
N45    N     0.57664   0.45242   0.85715   0.00000  Uiso   1.00
N46    N     0.66754   0.04572   0.10919   0.00000  Uiso   1.00
C47    C     0.13533   0.81388   0.34193   0.00000  Uiso   1.00
C48    C     0.16963   0.84990   0.35915   0.00000  Uiso   1.00
C49    C     0.18114   0.88000   0.48941   0.00000  Uiso   1.00
C50    C     0.21326   0.91037   0.48220   0.00000  Uiso   1.00
C51    C     0.26349   0.96629   0.52913   0.00000  Uiso   1.00
C52    C     0.11819   0.85206   0.21482   0.00000  Uiso   1.00
C53    C     0.08644   0.88396   0.22372   0.00000  Uiso   1.00
C54    C     0.07526   0.91614   0.09500   0.00000  Uiso   1.00
C55    C     0.04561   0.97536   0.91781   0.00000  Uiso   1.00
C56    C     0.14325   0.73997   0.28430   0.00000  Uiso   1.00
C57    C     0.13256   0.67764   0.35159   0.00000  Uiso   1.00
C58    C     0.14246   0.61544   0.28134   0.00000  Uiso   1.00
C59    C     0.15172   0.50064   0.21203   0.00000  Uiso   1.00
C60    C     0.17191   0.81428   0.09749   0.00000  Uiso   1.00
C61    C     0.18950   0.85012   0.22638   0.00000  Uiso   1.00
C62    C     0.22161   0.88044   0.21897   0.00000  Uiso   1.00
C63    C     0.23317   0.91058   0.34920   0.00000  Uiso   1.00
C64    C     0.13805   0.85227   0.08205   0.00000  Uiso   1.00
C65    C     0.12691   0.88440   0.95328   0.00000  Uiso   1.00
C66    C     0.09516   0.91635   0.96199   0.00000  Uiso   1.00
C67    C     0.16311   0.74019   0.15153   0.00000  Uiso   1.00
C68    C     0.17303   0.67807   0.08115   0.00000  Uiso   1.00
C69    C     0.16236   0.61566   0.14833   0.00000  Uiso   1.00
H70    H     0.11987   0.81372   0.44529   0.00000  Uiso   1.00
H71    H     0.16576   0.87983   0.59214   0.00000  Uiso   1.00
H72    H     0.07108   0.88378   0.32648   0.00000  Uiso   1.00
H73    H     0.11719   0.67749   0.45433   0.00000  Uiso   1.00
H74    H     0.22540   0.95325   0.69638   0.00000  Uiso   1.00
H75    H     0.02575   0.96156   0.13622   0.00000  Uiso   1.00
H76    H     0.12298   0.52655   0.40582   0.00000  Uiso   1.00
H77    H     0.18738   0.81445   0.99411   0.00000  Uiso   1.00
H78    H     0.23698   0.88060   0.11621   0.00000  Uiso   1.00
H79    H     0.14229   0.88455   0.85055   0.00000  Uiso   1.00
H80    H     0.18840   0.67826   0.97841   0.00000  Uiso   1.00
H81    H     0.28320   0.95388   0.31010   0.00000  Uiso   1.00
H82    H     0.08354   0.96218   0.74993   0.00000  Uiso   1.00
H83    H     0.18078   0.52717   0.01954   0.00000  Uiso   1.00
O84    O     0.28571   0.99709   0.59168   0.00000  Uiso   1.00
O85    O     0.02376   0.00798   0.85677   0.00000  Uiso   1.00
O86    O     0.15134   0.43726   0.21049   0.00000  Uiso   1.00
N87    N     0.23220   0.94431   0.58872   0.00000  Uiso   1.00
N88    N     0.04554   0.95209   0.06501   0.00000  Uiso   1.00
N89    N     0.13643   0.54539   0.31704   0.00000  Uiso   1.00
N90    N     0.26330   0.94464   0.38086   0.00000  Uiso   1.00
N91    N     0.07664   0.95242   0.85715   0.00000  Uiso   1.00
N92    N     0.16754   0.54572   0.10919   0.00000  Uiso   1.00
C93    C     0.36467   0.31388   0.15807   0.00000  Uiso   1.00
C94    C     0.33037   0.34990   0.14085   0.00000  Uiso   1.00
C95    C     0.31886   0.38000   0.01059   0.00000  Uiso   1.00
C96    C     0.28674   0.41037   0.01780   0.00000  Uiso   1.00
C97    C     0.23651   0.46629   0.97087   0.00000  Uiso   1.00
C98    C     0.38181   0.35206   0.28518   0.00000  Uiso   1.00
C99    C     0.41356   0.38396   0.27628   0.00000  Uiso   1.00
C100   C     0.42474   0.41614   0.40500   0.00000  Uiso   1.00
C101   C     0.45439   0.47536   0.58219   0.00000  Uiso   1.00
C102   C     0.35675   0.23997   0.21570   0.00000  Uiso   1.00
C103   C     0.36744   0.17764   0.14841   0.00000  Uiso   1.00
C104   C     0.35754   0.11544   0.21866   0.00000  Uiso   1.00
C105   C     0.34828   0.00064   0.28797   0.00000  Uiso   1.00
C106   C     0.32809   0.31428   0.40251   0.00000  Uiso   1.00
C107   C     0.31050   0.35012   0.27362   0.00000  Uiso   1.00
C108   C     0.27839   0.38044   0.28103   0.00000  Uiso   1.00
C109   C     0.26683   0.41058   0.15080   0.00000  Uiso   1.00
C110   C     0.36195   0.35227   0.41795   0.00000  Uiso   1.00
C111   C     0.37309   0.38440   0.54672   0.00000  Uiso   1.00
C112   C     0.40484   0.41635   0.53801   0.00000  Uiso   1.00
C113   C     0.33689   0.24019   0.34847   0.00000  Uiso   1.00
C114   C     0.32697   0.17807   0.41885   0.00000  Uiso   1.00
C115   C     0.33764   0.11566   0.35167   0.00000  Uiso   1.00
H116   H     0.38013   0.31372   0.05471   0.00000  Uiso   1.00
H117   H     0.33424   0.37983   0.90786   0.00000  Uiso   1.00
H118   H     0.42892   0.38378   0.17352   0.00000  Uiso   1.00
H119   H     0.38281   0.17749   0.04567   0.00000  Uiso   1.00
H120   H     0.27460   0.45325   0.80362   0.00000  Uiso   1.00
H121   H     0.47425   0.46156   0.36378   0.00000  Uiso   1.00
H122   H     0.37702   0.02655   0.09418   0.00000  Uiso   1.00
H123   H     0.31262   0.31445   0.50589   0.00000  Uiso   1.00
H124   H     0.26302   0.38060   0.38379   0.00000  Uiso   1.00
H125   H     0.35771   0.38455   0.64945   0.00000  Uiso   1.00
H126   H     0.31160   0.17826   0.52159   0.00000  Uiso   1.00
H127   H     0.21680   0.45388   0.18990   0.00000  Uiso   1.00
H128   H     0.41646   0.46218   0.75007   0.00000  Uiso   1.00
H129   H     0.31922   0.02717   0.48046   0.00000  Uiso   1.00
O130   O     0.21429   0.49709   0.90832   0.00000  Uiso   1.00
O131   O     0.47624   0.50798   0.64323   0.00000  Uiso   1.00
O132   O     0.34866   0.93726   0.28951   0.00000  Uiso   1.00
N133   N     0.26780   0.44431   0.91128   0.00000  Uiso   1.00
N134   N     0.45446   0.45209   0.43499   0.00000  Uiso   1.00
N135   N     0.36357   0.04539   0.18296   0.00000  Uiso   1.00
N136   N     0.23670   0.44464   0.11914   0.00000  Uiso   1.00
N137   N     0.42336   0.45242   0.64285   0.00000  Uiso   1.00
N138   N     0.33246   0.04572   0.39081   0.00000  Uiso   1.00
C139   C     0.86467   0.81388   0.15807   0.00000  Uiso   1.00
C140   C     0.83037   0.84990   0.14085   0.00000  Uiso   1.00
C141   C     0.81886   0.88000   0.01059   0.00000  Uiso   1.00
C142   C     0.78674   0.91037   0.01780   0.00000  Uiso   1.00
C143   C     0.73651   0.96629   0.97087   0.00000  Uiso   1.00
C144   C     0.88181   0.85206   0.28518   0.00000  Uiso   1.00
C145   C     0.91356   0.88396   0.27628   0.00000  Uiso   1.00
C146   C     0.92474   0.91614   0.40500   0.00000  Uiso   1.00
C147   C     0.95439   0.97536   0.58219   0.00000  Uiso   1.00
C148   C     0.85675   0.73997   0.21570   0.00000  Uiso   1.00
C149   C     0.86744   0.67764   0.14841   0.00000  Uiso   1.00
C150   C     0.85754   0.61544   0.21866   0.00000  Uiso   1.00
C151   C     0.84828   0.50064   0.28797   0.00000  Uiso   1.00
C152   C     0.82809   0.81428   0.40251   0.00000  Uiso   1.00
C153   C     0.81050   0.85012   0.27362   0.00000  Uiso   1.00
C154   C     0.77839   0.88044   0.28103   0.00000  Uiso   1.00
C155   C     0.76683   0.91058   0.15080   0.00000  Uiso   1.00
C156   C     0.86195   0.85227   0.41795   0.00000  Uiso   1.00
C157   C     0.87309   0.88440   0.54672   0.00000  Uiso   1.00
C158   C     0.90484   0.91635   0.53801   0.00000  Uiso   1.00
C159   C     0.83689   0.74019   0.34847   0.00000  Uiso   1.00
C160   C     0.82697   0.67807   0.41885   0.00000  Uiso   1.00
C161   C     0.83764   0.61566   0.35167   0.00000  Uiso   1.00
H162   H     0.88013   0.81372   0.05471   0.00000  Uiso   1.00
H163   H     0.83424   0.87983   0.90786   0.00000  Uiso   1.00
H164   H     0.92892   0.88378   0.17352   0.00000  Uiso   1.00
H165   H     0.88281   0.67749   0.04567   0.00000  Uiso   1.00
H166   H     0.77460   0.95325   0.80362   0.00000  Uiso   1.00
H167   H     0.97425   0.96156   0.36378   0.00000  Uiso   1.00
H168   H     0.87702   0.52655   0.09418   0.00000  Uiso   1.00
H169   H     0.81262   0.81445   0.50589   0.00000  Uiso   1.00
H170   H     0.76302   0.88060   0.38379   0.00000  Uiso   1.00
H171   H     0.85771   0.88455   0.64945   0.00000  Uiso   1.00
H172   H     0.81160   0.67826   0.52159   0.00000  Uiso   1.00
H173   H     0.71680   0.95388   0.18990   0.00000  Uiso   1.00
H174   H     0.91646   0.96218   0.75007   0.00000  Uiso   1.00
H175   H     0.81922   0.52717   0.48046   0.00000  Uiso   1.00
O176   O     0.71429   0.99709   0.90832   0.00000  Uiso   1.00
O177   O     0.97624   0.00798   0.64323   0.00000  Uiso   1.00
O178   O     0.84866   0.43726   0.28951   0.00000  Uiso   1.00
N179   N     0.76780   0.94431   0.91128   0.00000  Uiso   1.00
N180   N     0.95446   0.95209   0.43499   0.00000  Uiso   1.00
N181   N     0.86357   0.54539   0.18296   0.00000  Uiso   1.00
N182   N     0.73670   0.94464   0.11914   0.00000  Uiso   1.00
N183   N     0.92336   0.95242   0.64285   0.00000  Uiso   1.00
N184   N     0.83246   0.54572   0.39081   0.00000  Uiso   1.00
C185   C     0.36467   0.68612   0.65807   0.00000  Uiso   1.00
C186   C     0.33037   0.65010   0.64085   0.00000  Uiso   1.00
C187   C     0.31886   0.62000   0.51059   0.00000  Uiso   1.00
C188   C     0.28674   0.58963   0.51780   0.00000  Uiso   1.00
C189   C     0.23651   0.53371   0.47087   0.00000  Uiso   1.00
C190   C     0.38181   0.64794   0.78518   0.00000  Uiso   1.00
C191   C     0.41356   0.61604   0.77628   0.00000  Uiso   1.00
C192   C     0.42474   0.58386   0.90500   0.00000  Uiso   1.00
C193   C     0.45439   0.52464   0.08219   0.00000  Uiso   1.00
C194   C     0.35675   0.76003   0.71570   0.00000  Uiso   1.00
C195   C     0.36744   0.82236   0.64841   0.00000  Uiso   1.00
C196   C     0.35754   0.88456   0.71866   0.00000  Uiso   1.00
C197   C     0.34828   0.99936   0.78797   0.00000  Uiso   1.00
C198   C     0.32809   0.68572   0.90251   0.00000  Uiso   1.00
C199   C     0.31050   0.64988   0.77362   0.00000  Uiso   1.00
C200   C     0.27839   0.61956   0.78103   0.00000  Uiso   1.00
C201   C     0.26683   0.58942   0.65080   0.00000  Uiso   1.00
C202   C     0.36195   0.64773   0.91795   0.00000  Uiso   1.00
C203   C     0.37309   0.61560   0.04672   0.00000  Uiso   1.00
C204   C     0.40484   0.58365   0.03801   0.00000  Uiso   1.00
C205   C     0.33689   0.75981   0.84847   0.00000  Uiso   1.00
C206   C     0.32697   0.82193   0.91885   0.00000  Uiso   1.00
C207   C     0.33764   0.88434   0.85167   0.00000  Uiso   1.00
H208   H     0.38013   0.68628   0.55471   0.00000  Uiso   1.00
H209   H     0.33424   0.62017   0.40786   0.00000  Uiso   1.00
H210   H     0.42892   0.61622   0.67352   0.00000  Uiso   1.00
H211   H     0.38281   0.82251   0.54567   0.00000  Uiso   1.00
H212   H     0.27460   0.54675   0.30362   0.00000  Uiso   1.00
H213   H     0.47425   0.53844   0.86378   0.00000  Uiso   1.00
H214   H     0.37702   0.97345   0.59418   0.00000  Uiso   1.00
H215   H     0.31262   0.68555   0.00589   0.00000  Uiso   1.00
H216   H     0.26302   0.61940   0.88379   0.00000  Uiso   1.00
H217   H     0.35771   0.61545   0.14945   0.00000  Uiso   1.00
H218   H     0.31160   0.82174   0.02159   0.00000  Uiso   1.00
H219   H     0.21680   0.54612   0.68990   0.00000  Uiso   1.00
H220   H     0.41646   0.53782   0.25007   0.00000  Uiso   1.00
H221   H     0.31922   0.97283   0.98046   0.00000  Uiso   1.00
O222   O     0.21429   0.50291   0.40832   0.00000  Uiso   1.00
O223   O     0.47624   0.49202   0.14323   0.00000  Uiso   1.00
O224   O     0.34866   0.06274   0.78951   0.00000  Uiso   1.00
N225   N     0.26780   0.55569   0.41128   0.00000  Uiso   1.00
N226   N     0.45446   0.54791   0.93499   0.00000  Uiso   1.00
N227   N     0.36357   0.95461   0.68296   0.00000  Uiso   1.00
N228   N     0.23670   0.55536   0.61914   0.00000  Uiso   1.00
N229   N     0.42336   0.54758   0.14285   0.00000  Uiso   1.00
N230   N     0.33246   0.95428   0.89081   0.00000  Uiso   1.00
C231   C     0.86467   0.18612   0.65807   0.00000  Uiso   1.00
C232   C     0.83037   0.15010   0.64085   0.00000  Uiso   1.00
C233   C     0.81886   0.12000   0.51059   0.00000  Uiso   1.00
C234   C     0.78674   0.08963   0.51780   0.00000  Uiso   1.00
C235   C     0.73651   0.03371   0.47087   0.00000  Uiso   1.00
C236   C     0.88181   0.14794   0.78518   0.00000  Uiso   1.00
C237   C     0.91356   0.11604   0.77628   0.00000  Uiso   1.00
C238   C     0.92474   0.08386   0.90500   0.00000  Uiso   1.00
C239   C     0.95439   0.02464   0.08219   0.00000  Uiso   1.00
C240   C     0.85675   0.26003   0.71570   0.00000  Uiso   1.00
C241   C     0.86744   0.32236   0.64841   0.00000  Uiso   1.00
C242   C     0.85754   0.38456   0.71866   0.00000  Uiso   1.00
C243   C     0.84828   0.49936   0.78797   0.00000  Uiso   1.00
C244   C     0.82809   0.18572   0.90251   0.00000  Uiso   1.00
C245   C     0.81050   0.14988   0.77362   0.00000  Uiso   1.00
C246   C     0.77839   0.11956   0.78103   0.00000  Uiso   1.00
C247   C     0.76683   0.08942   0.65080   0.00000  Uiso   1.00
C248   C     0.86195   0.14773   0.91795   0.00000  Uiso   1.00
C249   C     0.87309   0.11560   0.04672   0.00000  Uiso   1.00
C250   C     0.90484   0.08365   0.03801   0.00000  Uiso   1.00
C251   C     0.83689   0.25981   0.84847   0.00000  Uiso   1.00
C252   C     0.82697   0.32193   0.91885   0.00000  Uiso   1.00
C253   C     0.83764   0.38434   0.85167   0.00000  Uiso   1.00
H254   H     0.88013   0.18628   0.55471   0.00000  Uiso   1.00
H255   H     0.83424   0.12017   0.40786   0.00000  Uiso   1.00
H256   H     0.92892   0.11622   0.67352   0.00000  Uiso   1.00
H257   H     0.88281   0.32251   0.54567   0.00000  Uiso   1.00
H258   H     0.77460   0.04675   0.30362   0.00000  Uiso   1.00
H259   H     0.97425   0.03844   0.86378   0.00000  Uiso   1.00
H260   H     0.87702   0.47345   0.59418   0.00000  Uiso   1.00
H261   H     0.81262   0.18555   0.00589   0.00000  Uiso   1.00
H262   H     0.76302   0.11940   0.88379   0.00000  Uiso   1.00
H263   H     0.85771   0.11545   0.14945   0.00000  Uiso   1.00
H264   H     0.81160   0.32174   0.02159   0.00000  Uiso   1.00
H265   H     0.71680   0.04612   0.68990   0.00000  Uiso   1.00
H266   H     0.91646   0.03782   0.25007   0.00000  Uiso   1.00
H267   H     0.81922   0.47283   0.98046   0.00000  Uiso   1.00
O268   O     0.71429   0.00291   0.40832   0.00000  Uiso   1.00
O269   O     0.97624   0.99202   0.14323   0.00000  Uiso   1.00
O270   O     0.84866   0.56274   0.78951   0.00000  Uiso   1.00
N271   N     0.76780   0.05569   0.41128   0.00000  Uiso   1.00
N272   N     0.95446   0.04791   0.93499   0.00000  Uiso   1.00
N273   N     0.86357   0.45461   0.68296   0.00000  Uiso   1.00
N274   N     0.73670   0.05536   0.61914   0.00000  Uiso   1.00
N275   N     0.92336   0.04758   0.14285   0.00000  Uiso   1.00
N276   N     0.83246   0.45428   0.89081   0.00000  Uiso   1.00
C277   C     0.63533   0.68612   0.84193   0.00000  Uiso   1.00
C278   C     0.66963   0.65010   0.85915   0.00000  Uiso   1.00
C279   C     0.68114   0.62000   0.98941   0.00000  Uiso   1.00
C280   C     0.71326   0.58963   0.98220   0.00000  Uiso   1.00
C281   C     0.76349   0.53371   0.02913   0.00000  Uiso   1.00
C282   C     0.61819   0.64794   0.71482   0.00000  Uiso   1.00
C283   C     0.58644   0.61604   0.72372   0.00000  Uiso   1.00
C284   C     0.57526   0.58386   0.59500   0.00000  Uiso   1.00
C285   C     0.54561   0.52464   0.41781   0.00000  Uiso   1.00
C286   C     0.64325   0.76003   0.78430   0.00000  Uiso   1.00
C287   C     0.63256   0.82236   0.85159   0.00000  Uiso   1.00
C288   C     0.64246   0.88456   0.78134   0.00000  Uiso   1.00
C289   C     0.65172   0.99936   0.71203   0.00000  Uiso   1.00
C290   C     0.67191   0.68572   0.59749   0.00000  Uiso   1.00
C291   C     0.68950   0.64988   0.72638   0.00000  Uiso   1.00
C292   C     0.72161   0.61956   0.71897   0.00000  Uiso   1.00
C293   C     0.73317   0.58942   0.84920   0.00000  Uiso   1.00
C294   C     0.63805   0.64773   0.58205   0.00000  Uiso   1.00
C295   C     0.62691   0.61560   0.45328   0.00000  Uiso   1.00
C296   C     0.59516   0.58365   0.46199   0.00000  Uiso   1.00
C297   C     0.66311   0.75981   0.65153   0.00000  Uiso   1.00
C298   C     0.67303   0.82193   0.58115   0.00000  Uiso   1.00
C299   C     0.66236   0.88434   0.64833   0.00000  Uiso   1.00
H300   H     0.61987   0.68628   0.94529   0.00000  Uiso   1.00
H301   H     0.66576   0.62017   0.09214   0.00000  Uiso   1.00
H302   H     0.57108   0.61622   0.82648   0.00000  Uiso   1.00
H303   H     0.61719   0.82251   0.95433   0.00000  Uiso   1.00
H304   H     0.72540   0.54675   0.19638   0.00000  Uiso   1.00
H305   H     0.52575   0.53844   0.63622   0.00000  Uiso   1.00
H306   H     0.62298   0.97345   0.90582   0.00000  Uiso   1.00
H307   H     0.68738   0.68555   0.49411   0.00000  Uiso   1.00
H308   H     0.73698   0.61940   0.61621   0.00000  Uiso   1.00
H309   H     0.64229   0.61545   0.35055   0.00000  Uiso   1.00
H310   H     0.68840   0.82174   0.47841   0.00000  Uiso   1.00
H311   H     0.78320   0.54612   0.81010   0.00000  Uiso   1.00
H312   H     0.58354   0.53782   0.24993   0.00000  Uiso   1.00
H313   H     0.68078   0.97283   0.51954   0.00000  Uiso   1.00
O314   O     0.78571   0.50291   0.09168   0.00000  Uiso   1.00
O315   O     0.52376   0.49202   0.35677   0.00000  Uiso   1.00
O316   O     0.65134   0.06274   0.71049   0.00000  Uiso   1.00
N317   N     0.73220   0.55569   0.08872   0.00000  Uiso   1.00
N318   N     0.54554   0.54791   0.56501   0.00000  Uiso   1.00
N319   N     0.63643   0.95461   0.81704   0.00000  Uiso   1.00
N320   N     0.76330   0.55536   0.88086   0.00000  Uiso   1.00
N321   N     0.57664   0.54758   0.35715   0.00000  Uiso   1.00
N322   N     0.66754   0.95428   0.60919   0.00000  Uiso   1.00
C323   C     0.13533   0.18612   0.84193   0.00000  Uiso   1.00
C324   C     0.16963   0.15010   0.85915   0.00000  Uiso   1.00
C325   C     0.18114   0.12000   0.98941   0.00000  Uiso   1.00
C326   C     0.21326   0.08963   0.98220   0.00000  Uiso   1.00
C327   C     0.26349   0.03371   0.02913   0.00000  Uiso   1.00
C328   C     0.11819   0.14794   0.71482   0.00000  Uiso   1.00
C329   C     0.08644   0.11604   0.72372   0.00000  Uiso   1.00
C330   C     0.07526   0.08386   0.59500   0.00000  Uiso   1.00
C331   C     0.04561   0.02464   0.41781   0.00000  Uiso   1.00
C332   C     0.14325   0.26003   0.78430   0.00000  Uiso   1.00
C333   C     0.13256   0.32236   0.85159   0.00000  Uiso   1.00
C334   C     0.14246   0.38456   0.78134   0.00000  Uiso   1.00
C335   C     0.15172   0.49936   0.71203   0.00000  Uiso   1.00
C336   C     0.17191   0.18572   0.59749   0.00000  Uiso   1.00
C337   C     0.18950   0.14988   0.72638   0.00000  Uiso   1.00
C338   C     0.22161   0.11956   0.71897   0.00000  Uiso   1.00
C339   C     0.23317   0.08942   0.84920   0.00000  Uiso   1.00
C340   C     0.13805   0.14773   0.58205   0.00000  Uiso   1.00
C341   C     0.12691   0.11560   0.45328   0.00000  Uiso   1.00
C342   C     0.09516   0.08365   0.46199   0.00000  Uiso   1.00
C343   C     0.16311   0.25981   0.65153   0.00000  Uiso   1.00
C344   C     0.17303   0.32193   0.58115   0.00000  Uiso   1.00
C345   C     0.16236   0.38434   0.64833   0.00000  Uiso   1.00
H346   H     0.11987   0.18628   0.94529   0.00000  Uiso   1.00
H347   H     0.16576   0.12017   0.09214   0.00000  Uiso   1.00
H348   H     0.07108   0.11622   0.82648   0.00000  Uiso   1.00
H349   H     0.11719   0.32251   0.95433   0.00000  Uiso   1.00
H350   H     0.22540   0.04675   0.19638   0.00000  Uiso   1.00
H351   H     0.02575   0.03844   0.63622   0.00000  Uiso   1.00
H352   H     0.12298   0.47345   0.90582   0.00000  Uiso   1.00
H353   H     0.18738   0.18555   0.49411   0.00000  Uiso   1.00
H354   H     0.23698   0.11940   0.61621   0.00000  Uiso   1.00
H355   H     0.14229   0.11545   0.35055   0.00000  Uiso   1.00
H356   H     0.18840   0.32174   0.47841   0.00000  Uiso   1.00
H357   H     0.28320   0.04612   0.81010   0.00000  Uiso   1.00
H358   H     0.08354   0.03782   0.24993   0.00000  Uiso   1.00
H359   H     0.18078   0.47283   0.51954   0.00000  Uiso   1.00
O360   O     0.28571   0.00291   0.09168   0.00000  Uiso   1.00
O361   O     0.02376   0.99202   0.35677   0.00000  Uiso   1.00
O362   O     0.15134   0.56274   0.71049   0.00000  Uiso   1.00
N363   N     0.23220   0.05569   0.08872   0.00000  Uiso   1.00
N364   N     0.04554   0.04791   0.56501   0.00000  Uiso   1.00
N365   N     0.13643   0.45461   0.81704   0.00000  Uiso   1.00
N366   N     0.26330   0.05536   0.88086   0.00000  Uiso   1.00
N367   N     0.07664   0.04758   0.35715   0.00000  Uiso   1.00
N368   N     0.16754   0.45428   0.60919   0.00000  Uiso   1.00
