data_job_06910
_audit_creation_date              2018-12-19
_audit_creation_method            'Materials Studio'
_symmetry_space_group_name_H-M    'P1'
_symmetry_Int_Tables_number       1
_symmetry_cell_setting            triclinic
loop_
_symmetry_equiv_pos_as_xyz
  x,y,z
_cell_length_a                    23.8497
_cell_length_b                    23.7549
_cell_length_c                    23.4133
_cell_angle_alpha                 101.1280
_cell_angle_beta                  101.4330
_cell_angle_gamma                 102.0690
loop_
_atom_site_label
_atom_site_type_symbol
_atom_site_fract_x
_atom_site_fract_y
_atom_site_fract_z
_atom_site_U_iso_or_equiv
_atom_site_adp_type
_atom_site_occupancy
C1     C     0.37182   0.88553   0.41819   0.00000  Uiso   1.00
C2     C     0.38731   0.82699   0.42182   0.00000  Uiso   1.00
C3     C     0.42649   0.80378   0.39383   0.00000  Uiso   1.00
C4     C     0.43462   0.74962   0.40269   0.00000  Uiso   1.00
C5     C     0.46321   0.66325   0.40289   0.00000  Uiso   1.00
C6     C     0.30472   0.87019   0.39475   0.00000  Uiso   1.00
C7     C     0.27448   0.88331   0.34401   0.00000  Uiso   1.00
C8     C     0.21308   0.86552   0.33010   0.00000  Uiso   1.00
C9     C     0.11346   0.84626   0.28831   0.00000  Uiso   1.00
C10    C     0.38555   0.92177   0.48289   0.00000  Uiso   1.00
C11    C     0.42326   0.97827   0.50625   0.00000  Uiso   1.00
C12    C     0.42991   0.00391   0.56654   0.00000  Uiso   1.00
C13    C     0.45579   0.06473   0.66159   0.00000  Uiso   1.00
C14    C     0.31656   0.83061   0.48371   0.00000  Uiso   1.00
C15    C     0.35729   0.79716   0.45741   0.00000  Uiso   1.00
C16    C     0.36536   0.74302   0.46632   0.00000  Uiso   1.00
C17    C     0.40456   0.71974   0.43835   0.00000  Uiso   1.00
C18    C     0.27471   0.84036   0.43034   0.00000  Uiso   1.00
C19    C     0.21334   0.82255   0.41651   0.00000  Uiso   1.00
C20    C     0.18301   0.83564   0.36576   0.00000  Uiso   1.00
C21    C     0.35554   0.89194   0.51848   0.00000  Uiso   1.00
C22    C     0.36213   0.91750   0.57875   0.00000  Uiso   1.00
C23    C     0.39984   0.97403   0.60220   0.00000  Uiso   1.00
H24    H     0.39518   0.90876   0.39048   0.00000  Uiso   1.00
H25    H     0.44971   0.82688   0.36628   0.00000  Uiso   1.00
H26    H     0.29771   0.90640   0.31648   0.00000  Uiso   1.00
H27    H     0.44648   0.00134   0.47870   0.00000  Uiso   1.00
H28    H     0.49691   0.72294   0.35513   0.00000  Uiso   1.00
H29    H     0.17642   0.89064   0.25014   0.00000  Uiso   1.00
H30    H     0.49012   0.09083   0.59220   0.00000  Uiso   1.00
H31    H     0.29319   0.80739   0.51142   0.00000  Uiso   1.00
H32    H     0.34213   0.71995   0.49387   0.00000  Uiso   1.00
H33    H     0.19013   0.79947   0.44406   0.00000  Uiso   1.00
H34    H     0.33890   0.89441   0.60628   0.00000  Uiso   1.00
H35    H     0.40959   0.63615   0.45868   0.00000  Uiso   1.00
H36    H     0.08911   0.80385   0.35369   0.00000  Uiso   1.00
H37    H     0.40280   0.00404   0.69575   0.00000  Uiso   1.00
O38    O     0.48727   0.62384   0.39316   0.00000  Uiso   1.00
O39    O     0.06680   0.84386   0.25542   0.00000  Uiso   1.00
O40    O     0.47836   0.10651   0.70419   0.00000  Uiso   1.00
N41    N     0.46965   0.71452   0.38192   0.00000  Uiso   1.00
N42    N     0.17002   0.87130   0.28375   0.00000  Uiso   1.00
N43    N     0.46328   0.05847   0.60355   0.00000  Uiso   1.00
N44    N     0.42267   0.66782   0.43764   0.00000  Uiso   1.00
N45    N     0.12303   0.82459   0.33948   0.00000  Uiso   1.00
N46    N     0.41630   0.01177   0.65927   0.00000  Uiso   1.00
C47    C     0.41857   0.37192   0.88518   0.00000  Uiso   1.00
C48    C     0.42367   0.38922   0.82663   0.00000  Uiso   1.00
C49    C     0.39599   0.42820   0.80238   0.00000  Uiso   1.00
C50    C     0.40627   0.43817   0.74840   0.00000  Uiso   1.00
C51    C     0.40860   0.46927   0.66183   0.00000  Uiso   1.00
C52    C     0.39659   0.30441   0.86892   0.00000  Uiso   1.00
C53    C     0.34613   0.27208   0.88022   0.00000  Uiso   1.00
C54    C     0.33362   0.21066   0.86185   0.00000  Uiso   1.00
C55    C     0.29392   0.11009   0.84096   0.00000  Uiso   1.00
C56    C     0.48169   0.38677   0.92386   0.00000  Uiso   1.00
C57    C     0.50279   0.42368   0.98136   0.00000  Uiso   1.00
C58    C     0.56194   0.43159   0.00925   0.00000  Uiso   1.00
C59    C     0.65438   0.45890   0.07366   0.00000  Uiso   1.00
C60    C     0.48607   0.32032   0.83245   0.00000  Uiso   1.00
C61    C     0.46034   0.36119   0.79799   0.00000  Uiso   1.00
C62    C     0.47067   0.37111   0.74404   0.00000  Uiso   1.00
C63    C     0.44301   0.41010   0.71971   0.00000  Uiso   1.00
C64    C     0.43325   0.27638   0.84028   0.00000  Uiso   1.00
C65    C     0.42082   0.21499   0.82188   0.00000  Uiso   1.00
C66    C     0.37035   0.18258   0.83315   0.00000  Uiso   1.00
C67    C     0.51836   0.35874   0.89522   0.00000  Uiso   1.00
C68    C     0.57748   0.36659   0.92302   0.00000  Uiso   1.00
C69    C     0.59867   0.40351   0.98056   0.00000  Uiso   1.00
H70    H     0.39002   0.39374   0.90748   0.00000  Uiso   1.00
H71    H     0.36761   0.44988   0.82455   0.00000  Uiso   1.00
H72    H     0.31777   0.29379   0.90239   0.00000  Uiso   1.00
H73    H     0.47441   0.44536   0.00351   0.00000  Uiso   1.00
H74    H     0.35892   0.49974   0.71997   0.00000  Uiso   1.00
H75    H     0.25384   0.17061   0.88412   0.00000  Uiso   1.00
H76    H     0.58414   0.49024   0.09735   0.00000  Uiso   1.00
H77    H     0.51462   0.29850   0.81015   0.00000  Uiso   1.00
H78    H     0.49905   0.34941   0.72189   0.00000  Uiso   1.00
H79    H     0.44920   0.19332   0.79973   0.00000  Uiso   1.00
H80    H     0.60584   0.34489   0.90084   0.00000  Uiso   1.00
H81    H     0.46559   0.41819   0.63665   0.00000  Uiso   1.00
H82    H     0.36051   0.08907   0.80079   0.00000  Uiso   1.00
H83    H     0.69081   0.40870   0.01402   0.00000  Uiso   1.00
O84    O     0.39975   0.49416   0.62199   0.00000  Uiso   1.00
O85    O     0.26189   0.06236   0.83735   0.00000  Uiso   1.00
O86    O     0.69524   0.48171   0.11710   0.00000  Uiso   1.00
N87    N     0.38617   0.47357   0.71248   0.00000  Uiso   1.00
N88    N     0.28792   0.16585   0.86594   0.00000  Uiso   1.00
N89    N     0.59672   0.46467   0.06530   0.00000  Uiso   1.00
N90    N     0.44357   0.42969   0.66764   0.00000  Uiso   1.00
N91    N     0.34532   0.12198   0.82110   0.00000  Uiso   1.00
N92    N     0.65412   0.42079   0.02046   0.00000  Uiso   1.00
C93    C     0.89047   0.44248   0.38063   0.00000  Uiso   1.00
C94    C     0.83199   0.44265   0.39762   0.00000  Uiso   1.00
C95    C     0.81216   0.41637   0.44046   0.00000  Uiso   1.00
C96    C     0.75742   0.42146   0.44940   0.00000  Uiso   1.00
C97    C     0.67171   0.41710   0.48073   0.00000  Uiso   1.00
C98    C     0.87447   0.41554   0.31307   0.00000  Uiso   1.00
C99    C     0.89037   0.36647   0.28483   0.00000  Uiso   1.00
C100   C     0.87138   0.34874   0.22259   0.00000  Uiso   1.00
C101   C     0.85166   0.30231   0.12266   0.00000  Uiso   1.00
C102   C     0.92250   0.50745   0.38987   0.00000  Uiso   1.00
C103   C     0.97879   0.53567   0.42620   0.00000  Uiso   1.00
C104   C     0.00026   0.59533   0.42861   0.00000  Uiso   1.00
C105   C     0.05511   0.69161   0.44792   0.00000  Uiso   1.00
C106   C     0.82851   0.49824   0.32031   0.00000  Uiso   1.00
C107   C     0.79833   0.47294   0.36485   0.00000  Uiso   1.00
C108   C     0.74360   0.47807   0.37372   0.00000  Uiso   1.00
C109   C     0.72370   0.45181   0.41657   0.00000  Uiso   1.00
C110   C     0.84081   0.44582   0.28030   0.00000  Uiso   1.00
C111   C     0.82180   0.42817   0.21809   0.00000  Uiso   1.00
C112   C     0.83766   0.37909   0.18976   0.00000  Uiso   1.00
C113   C     0.88884   0.53775   0.35711   0.00000  Uiso   1.00
C114   C     0.91023   0.59737   0.35945   0.00000  Uiso   1.00
C115   C     0.96654   0.62567   0.39578   0.00000  Uiso   1.00
H116   H     0.91668   0.41889   0.40614   0.00000  Uiso   1.00
H117   H     0.83822   0.39293   0.46581   0.00000  Uiso   1.00
H118   H     0.91642   0.34304   0.31020   0.00000  Uiso   1.00
H119   H     0.00483   0.51222   0.45155   0.00000  Uiso   1.00
H120   H     0.73638   0.37749   0.51749   0.00000  Uiso   1.00
H121   H     0.90128   0.27231   0.18939   0.00000  Uiso   1.00
H122   H     0.08771   0.62904   0.48744   0.00000  Uiso   1.00
H123   H     0.80230   0.52182   0.29479   0.00000  Uiso   1.00
H124   H     0.71756   0.50151   0.34835   0.00000  Uiso   1.00
H125   H     0.79576   0.45162   0.19274   0.00000  Uiso   1.00
H126   H     0.88417   0.62079   0.33409   0.00000  Uiso   1.00
H127   H     0.63845   0.46561   0.42216   0.00000  Uiso   1.00
H128   H     0.80335   0.36043   0.09405   0.00000  Uiso   1.00
H129   H     0.98977   0.71717   0.39211   0.00000  Uiso   1.00
O130   O     0.63373   0.40631   0.50705   0.00000  Uiso   1.00
O131   O     0.85008   0.26833   0.07659   0.00000  Uiso   1.00
O132   O     0.09466   0.73635   0.46764   0.00000  Uiso   1.00
N133   N     0.72497   0.40103   0.48771   0.00000  Uiso   1.00
N134   N     0.87913   0.30268   0.18095   0.00000  Uiso   1.00
N135   N     0.05343   0.63619   0.45960   0.00000  Uiso   1.00
N136   N     0.67227   0.44845   0.43642   0.00000  Uiso   1.00
N137   N     0.82643   0.35010   0.12966   0.00000  Uiso   1.00
N138   N     0.00073   0.68361   0.40830   0.00000  Uiso   1.00
C139   C     0.87145   0.91696   0.38506   0.00000  Uiso   1.00
C140   C     0.88823   0.92241   0.32644   0.00000  Uiso   1.00
C141   C     0.92679   0.89468   0.30194   0.00000  Uiso   1.00
C142   C     0.93633   0.90532   0.24794   0.00000  Uiso   1.00
C143   C     0.96662   0.90813   0.16122   0.00000  Uiso   1.00
C144   C     0.80413   0.89506   0.36901   0.00000  Uiso   1.00
C145   C     0.77200   0.84435   0.38031   0.00000  Uiso   1.00
C146   C     0.71074   0.83197   0.36214   0.00000  Uiso   1.00
C147   C     0.61048   0.79235   0.34156   0.00000  Uiso   1.00
C148   C     0.88658   0.98013   0.42387   0.00000  Uiso   1.00
C149   C     0.92375   0.00094   0.48130   0.00000  Uiso   1.00
C150   C     0.93190   0.06019   0.50933   0.00000  Uiso   1.00
C151   C     0.95965   0.15265   0.57392   0.00000  Uiso   1.00
C152   C     0.81979   0.98517   0.33273   0.00000  Uiso   1.00
C153   C     0.86016   0.95946   0.29802   0.00000  Uiso   1.00
C154   C     0.86964   0.97015   0.24404   0.00000  Uiso   1.00
C155   C     0.90822   0.94244   0.21946   0.00000  Uiso   1.00
C156   C     0.77607   0.93211   0.34058   0.00000  Uiso   1.00
C157   C     0.71484   0.91981   0.32240   0.00000  Uiso   1.00
C158   C     0.68263   0.86909   0.33367   0.00000  Uiso   1.00
C159   C     0.85852   0.01718   0.39544   0.00000  Uiso   1.00
C160   C     0.86660   0.07641   0.42339   0.00000  Uiso   1.00
C161   C     0.90379   0.09730   0.48085   0.00000  Uiso   1.00
H162   H     0.89329   0.88811   0.40719   0.00000  Uiso   1.00
H163   H     0.94849   0.86601   0.32395   0.00000  Uiso   1.00
H164   H     0.79372   0.81569   0.40231   0.00000  Uiso   1.00
H165   H     0.94546   0.97226   0.50328   0.00000  Uiso   1.00
H166   H     0.99731   0.85782   0.21911   0.00000  Uiso   1.00
H167   H     0.67097   0.75173   0.38436   0.00000  Uiso   1.00
H168   H     0.99093   0.08189   0.59728   0.00000  Uiso   1.00
H169   H     0.79794   0.01401   0.31060   0.00000  Uiso   1.00
H170   H     0.84792   0.99882   0.22205   0.00000  Uiso   1.00
H171   H     0.69315   0.94850   0.30041   0.00000  Uiso   1.00
H172   H     0.84488   0.10507   0.40138   0.00000  Uiso   1.00
H173   H     0.91568   0.96562   0.13640   0.00000  Uiso   1.00
H174   H     0.58933   0.85952   0.30165   0.00000  Uiso   1.00
H175   H     0.90930   0.18968   0.51457   0.00000  Uiso   1.00
O176   O     0.99108   0.89944   0.12124   0.00000  Uiso   1.00
O177   O     0.56293   0.76025   0.33805   0.00000  Uiso   1.00
O178   O     0.98271   0.19342   0.61739   0.00000  Uiso   1.00
N179   N     0.97125   0.88529   0.21180   0.00000  Uiso   1.00
N180   N     0.66614   0.78609   0.36629   0.00000  Uiso   1.00
N181   N     0.96526   0.09476   0.56536   0.00000  Uiso   1.00
N182   N     0.92733   0.94329   0.16730   0.00000  Uiso   1.00
N183   N     0.62221   0.84409   0.32179   0.00000  Uiso   1.00
N184   N     0.92134   0.15276   0.52086   0.00000  Uiso   1.00
C185   C     0.94392   0.38986   0.88136   0.00000  Uiso   1.00
C186   C     0.94465   0.33135   0.89881   0.00000  Uiso   1.00
C187   C     0.91864   0.31130   0.94166   0.00000  Uiso   1.00
C188   C     0.92423   0.25658   0.95106   0.00000  Uiso   1.00
C189   C     0.92070   0.17080   0.98306   0.00000  Uiso   1.00
C190   C     0.91706   0.37358   0.81373   0.00000  Uiso   1.00
C191   C     0.86786   0.38904   0.78504   0.00000  Uiso   1.00
C192   C     0.85024   0.36987   0.72281   0.00000  Uiso   1.00
C193   C     0.80390   0.34968   0.62271   0.00000  Uiso   1.00
C194   C     0.00856   0.42247   0.89076   0.00000  Uiso   1.00
C195   C     0.03629   0.47906   0.92684   0.00000  Uiso   1.00
C196   C     0.09569   0.50106   0.92946   0.00000  Uiso   1.00
C197   C     0.19141   0.55679   0.94896   0.00000  Uiso   1.00
C198   C     0.00012   0.32832   0.82186   0.00000  Uiso   1.00
C199   C     0.97517   0.29792   0.86649   0.00000  Uiso   1.00
C200   C     0.98081   0.24321   0.87583   0.00000  Uiso   1.00
C201   C     0.95481   0.22309   0.91869   0.00000  Uiso   1.00
C202   C     0.94758   0.34015   0.78141   0.00000  Uiso   1.00
C203   C     0.93003   0.32095   0.71921   0.00000  Uiso   1.00
C204   C     0.88082   0.33638   0.69043   0.00000  Uiso   1.00
C205   C     0.03908   0.38905   0.85844   0.00000  Uiso   1.00
C206   C     0.09846   0.41096   0.86100   0.00000  Uiso   1.00
C207   C     0.12627   0.46757   0.89708   0.00000  Uiso   1.00
H208   H     0.92016   0.41588   0.90652   0.00000  Uiso   1.00
H209   H     0.89502   0.33718   0.96666   0.00000  Uiso   1.00
H210   H     0.84425   0.41491   0.81006   0.00000  Uiso   1.00
H211   H     0.01265   0.50491   0.95184   0.00000  Uiso   1.00
H212   H     0.88059   0.23518   0.01907   0.00000  Uiso   1.00
H213   H     0.77356   0.39909   0.68888   0.00000  Uiso   1.00
H214   H     0.12866   0.58887   0.98784   0.00000  Uiso   1.00
H215   H     0.02388   0.30229   0.79669   0.00000  Uiso   1.00
H216   H     0.00443   0.21736   0.85081   0.00000  Uiso   1.00
H217   H     0.95367   0.29509   0.69421   0.00000  Uiso   1.00
H218   H     0.12206   0.38509   0.83599   0.00000  Uiso   1.00
H219   H     0.96939   0.13792   0.92504   0.00000  Uiso   1.00
H220   H     0.86236   0.30184   0.59484   0.00000  Uiso   1.00
H221   H     0.21746   0.49162   0.89380   0.00000  Uiso   1.00
O222   O     0.91030   0.13272   0.00963   0.00000  Uiso   1.00
O223   O     0.76990   0.34778   0.57642   0.00000  Uiso   1.00
O224   O     0.23578   0.59676   0.96865   0.00000  Uiso   1.00
N225   N     0.90417   0.22395   0.98952   0.00000  Uiso   1.00
N226   N     0.80409   0.37719   0.68081   0.00000  Uiso   1.00
N227   N     0.13608   0.55463   0.96030   0.00000  Uiso   1.00
N228   N     0.95195   0.17162   0.93893   0.00000  Uiso   1.00
N229   N     0.85188   0.32486   0.63021   0.00000  Uiso   1.00
N230   N     0.18386   0.50230   0.90970   0.00000  Uiso   1.00
C231   C     0.38640   0.87403   0.92840   0.00000  Uiso   1.00
C232   C     0.32768   0.88940   0.93002   0.00000  Uiso   1.00
C233   C     0.30617   0.93019   0.90279   0.00000  Uiso   1.00
C234   C     0.25151   0.93790   0.90950   0.00000  Uiso   1.00
C235   C     0.16518   0.96660   0.90700   0.00000  Uiso   1.00
C236   C     0.37116   0.80707   0.90274   0.00000  Uiso   1.00
C237   C     0.38621   0.77866   0.85258   0.00000  Uiso   1.00
C238   C     0.36815   0.71707   0.83633   0.00000  Uiso   1.00
C239   C     0.34935   0.61797   0.79150   0.00000  Uiso   1.00
C240   C     0.42006   0.88526   0.99380   0.00000  Uiso   1.00
C241   C     0.47623   0.92258   0.02020   0.00000  Uiso   1.00
C242   C     0.49935   0.92680   0.08061   0.00000  Uiso   1.00
C243   C     0.55647   0.94910   0.17716   0.00000  Uiso   1.00
C244   C     0.32759   0.81516   0.98875   0.00000  Uiso   1.00
C245   C     0.29574   0.85742   0.96280   0.00000  Uiso   1.00
C246   C     0.24110   0.86506   0.96956   0.00000  Uiso   1.00
C247   C     0.21951   0.90587   0.94234   0.00000  Uiso   1.00
C248   C     0.33921   0.77510   0.93552   0.00000  Uiso   1.00
C249   C     0.32113   0.71353   0.91934   0.00000  Uiso   1.00
C250   C     0.33614   0.68503   0.86917   0.00000  Uiso   1.00
C251   C     0.38811   0.85329   0.02658   0.00000  Uiso   1.00
C252   C     0.41115   0.85745   0.08696   0.00000  Uiso   1.00
C253   C     0.46734   0.89477   0.11345   0.00000  Uiso   1.00
H254   H     0.41128   0.89892   0.90288   0.00000  Uiso   1.00
H255   H     0.33090   0.95493   0.87742   0.00000  Uiso   1.00
H256   H     0.41093   0.80342   0.82722   0.00000  Uiso   1.00
H257   H     0.50094   0.94732   0.99482   0.00000  Uiso   1.00
H258   H     0.22770   0.00291   0.86363   0.00000  Uiso   1.00
H259   H     0.39646   0.68344   0.75779   0.00000  Uiso   1.00
H260   H     0.58625   0.98688   0.11120   0.00000  Uiso   1.00
H261   H     0.30272   0.79026   0.01427   0.00000  Uiso   1.00
H262   H     0.21639   0.84031   0.99493   0.00000  Uiso   1.00
H263   H     0.29641   0.68880   0.94472   0.00000  Uiso   1.00
H264   H     0.38642   0.83270   0.11231   0.00000  Uiso   1.00
H265   H     0.13475   0.90988   0.95900   0.00000  Uiso   1.00
H266   H     0.30351   0.59041   0.85316   0.00000  Uiso   1.00
H267   H     0.49330   0.89385   0.20656   0.00000  Uiso   1.00
O268   O     0.12638   0.99127   0.89656   0.00000  Uiso   1.00
O269   O     0.34780   0.57214   0.75771   0.00000  Uiso   1.00
O270   O     0.59680   0.97024   0.22137   0.00000  Uiso   1.00
N271   N     0.21768   0.97415   0.88874   0.00000  Uiso   1.00
N272   N     0.37545   0.67547   0.78978   0.00000  Uiso   1.00
N273   N     0.55290   0.95915   0.12018   0.00000  Uiso   1.00
N274   N     0.16766   0.92410   0.94006   0.00000  Uiso   1.00
N275   N     0.32544   0.62542   0.84110   0.00000  Uiso   1.00
N276   N     0.50288   0.90909   0.17150   0.00000  Uiso   1.00
C277   C     0.62818   0.11447   0.58181   0.00000  Uiso   1.00
C278   C     0.61269   0.17301   0.57818   0.00000  Uiso   1.00
C279   C     0.57351   0.19622   0.60617   0.00000  Uiso   1.00
C280   C     0.56538   0.25038   0.59731   0.00000  Uiso   1.00
C281   C     0.53679   0.33675   0.59711   0.00000  Uiso   1.00
C282   C     0.69528   0.12981   0.60525   0.00000  Uiso   1.00
C283   C     0.72552   0.11669   0.65599   0.00000  Uiso   1.00
C284   C     0.78692   0.13448   0.66990   0.00000  Uiso   1.00
C285   C     0.88654   0.15374   0.71169   0.00000  Uiso   1.00
C286   C     0.61445   0.07823   0.51711   0.00000  Uiso   1.00
C287   C     0.57674   0.02173   0.49375   0.00000  Uiso   1.00
C288   C     0.57009   0.99609   0.43346   0.00000  Uiso   1.00
C289   C     0.54421   0.93527   0.33841   0.00000  Uiso   1.00
C290   C     0.68344   0.16939   0.51629   0.00000  Uiso   1.00
C291   C     0.64271   0.20284   0.54259   0.00000  Uiso   1.00
C292   C     0.63464   0.25698   0.53368   0.00000  Uiso   1.00
C293   C     0.59544   0.28026   0.56165   0.00000  Uiso   1.00
C294   C     0.72529   0.15964   0.56966   0.00000  Uiso   1.00
C295   C     0.78666   0.17745   0.58349   0.00000  Uiso   1.00
C296   C     0.81699   0.16436   0.63424   0.00000  Uiso   1.00
C297   C     0.64446   0.10806   0.48152   0.00000  Uiso   1.00
C298   C     0.63787   0.08250   0.42125   0.00000  Uiso   1.00
C299   C     0.60016   0.02597   0.39780   0.00000  Uiso   1.00
H300   H     0.60482   0.09124   0.60952   0.00000  Uiso   1.00
H301   H     0.55029   0.17312   0.63372   0.00000  Uiso   1.00
H302   H     0.70229   0.09360   0.68352   0.00000  Uiso   1.00
H303   H     0.55352   0.99866   0.52130   0.00000  Uiso   1.00
H304   H     0.50309   0.27706   0.64487   0.00000  Uiso   1.00
H305   H     0.82358   0.10936   0.74986   0.00000  Uiso   1.00
H306   H     0.50988   0.90917   0.40780   0.00000  Uiso   1.00
H307   H     0.70681   0.19261   0.48858   0.00000  Uiso   1.00
H308   H     0.65787   0.28005   0.50613   0.00000  Uiso   1.00
H309   H     0.80987   0.20053   0.55594   0.00000  Uiso   1.00
H310   H     0.66110   0.10559   0.39372   0.00000  Uiso   1.00
H311   H     0.59041   0.36385   0.54132   0.00000  Uiso   1.00
H312   H     0.91089   0.19615   0.64631   0.00000  Uiso   1.00
H313   H     0.59720   0.99596   0.30425   0.00000  Uiso   1.00
O314   O     0.51273   0.37616   0.60684   0.00000  Uiso   1.00
O315   O     0.93320   0.15614   0.74458   0.00000  Uiso   1.00
O316   O     0.52164   0.89349   0.29581   0.00000  Uiso   1.00
N317   N     0.53035   0.28548   0.61808   0.00000  Uiso   1.00
N318   N     0.82998   0.12870   0.71625   0.00000  Uiso   1.00
N319   N     0.53672   0.94153   0.39645   0.00000  Uiso   1.00
N320   N     0.57733   0.33218   0.56236   0.00000  Uiso   1.00
N321   N     0.87697   0.17541   0.66052   0.00000  Uiso   1.00
N322   N     0.58370   0.98823   0.34073   0.00000  Uiso   1.00
C323   C     0.58143   0.62808   0.11482   0.00000  Uiso   1.00
C324   C     0.57633   0.61078   0.17337   0.00000  Uiso   1.00
C325   C     0.60401   0.57180   0.19762   0.00000  Uiso   1.00
C326   C     0.59373   0.56183   0.25160   0.00000  Uiso   1.00
C327   C     0.59140   0.53073   0.33817   0.00000  Uiso   1.00
C328   C     0.60341   0.69559   0.13108   0.00000  Uiso   1.00
C329   C     0.65387   0.72792   0.11978   0.00000  Uiso   1.00
C330   C     0.66638   0.78934   0.13815   0.00000  Uiso   1.00
C331   C     0.70608   0.88991   0.15904   0.00000  Uiso   1.00
C332   C     0.51831   0.61323   0.07614   0.00000  Uiso   1.00
C333   C     0.49721   0.57632   0.01864   0.00000  Uiso   1.00
C334   C     0.43806   0.56841   0.99075   0.00000  Uiso   1.00
C335   C     0.34562   0.54110   0.92634   0.00000  Uiso   1.00
C336   C     0.51393   0.67968   0.16755   0.00000  Uiso   1.00
C337   C     0.53966   0.63881   0.20201   0.00000  Uiso   1.00
C338   C     0.52933   0.62889   0.25596   0.00000  Uiso   1.00
C339   C     0.55699   0.58990   0.28029   0.00000  Uiso   1.00
C340   C     0.56675   0.72362   0.15972   0.00000  Uiso   1.00
C341   C     0.57918   0.78501   0.17812   0.00000  Uiso   1.00
C342   C     0.62965   0.81742   0.16685   0.00000  Uiso   1.00
C343   C     0.48164   0.64126   0.10478   0.00000  Uiso   1.00
C344   C     0.42252   0.63341   0.07698   0.00000  Uiso   1.00
C345   C     0.40133   0.59649   0.01944   0.00000  Uiso   1.00
H346   H     0.60998   0.60626   0.09252   0.00000  Uiso   1.00
H347   H     0.63239   0.55012   0.17545   0.00000  Uiso   1.00
H348   H     0.68223   0.70621   0.09761   0.00000  Uiso   1.00
H349   H     0.52559   0.55464   0.99649   0.00000  Uiso   1.00
H350   H     0.64108   0.50026   0.28003   0.00000  Uiso   1.00
H351   H     0.74616   0.82939   0.11588   0.00000  Uiso   1.00
H352   H     0.41586   0.50976   0.90265   0.00000  Uiso   1.00
H353   H     0.48538   0.70150   0.18985   0.00000  Uiso   1.00
H354   H     0.50095   0.65059   0.27811   0.00000  Uiso   1.00
H355   H     0.55080   0.80668   0.20027   0.00000  Uiso   1.00
H356   H     0.39416   0.65511   0.09916   0.00000  Uiso   1.00
H357   H     0.53441   0.58181   0.36335   0.00000  Uiso   1.00
H358   H     0.63949   0.91093   0.19921   0.00000  Uiso   1.00
H359   H     0.30919   0.59130   0.98598   0.00000  Uiso   1.00
O360   O     0.60025   0.50584   0.37801   0.00000  Uiso   1.00
O361   O     0.73811   0.93764   0.16265   0.00000  Uiso   1.00
O362   O     0.30476   0.51829   0.88290   0.00000  Uiso   1.00
N363   N     0.61383   0.52643   0.28752   0.00000  Uiso   1.00
N364   N     0.71208   0.83415   0.13406   0.00000  Uiso   1.00
N365   N     0.40328   0.53533   0.93470   0.00000  Uiso   1.00
N366   N     0.55643   0.57031   0.33236   0.00000  Uiso   1.00
N367   N     0.65468   0.87802   0.17890   0.00000  Uiso   1.00
N368   N     0.34588   0.57921   0.97954   0.00000  Uiso   1.00
C369   C     0.10953   0.55752   0.61937   0.00000  Uiso   1.00
C370   C     0.16801   0.55735   0.60238   0.00000  Uiso   1.00
C371   C     0.18784   0.58363   0.55954   0.00000  Uiso   1.00
C372   C     0.24258   0.57854   0.55060   0.00000  Uiso   1.00
C373   C     0.32829   0.58290   0.51927   0.00000  Uiso   1.00
C374   C     0.12553   0.58446   0.68693   0.00000  Uiso   1.00
C375   C     0.10963   0.63353   0.71517   0.00000  Uiso   1.00
C376   C     0.12862   0.65126   0.77741   0.00000  Uiso   1.00
C377   C     0.14834   0.69769   0.87734   0.00000  Uiso   1.00
C378   C     0.07750   0.49255   0.61013   0.00000  Uiso   1.00
C379   C     0.02121   0.46433   0.57380   0.00000  Uiso   1.00
C380   C     0.99974   0.40467   0.57139   0.00000  Uiso   1.00
C381   C     0.94489   0.30839   0.55208   0.00000  Uiso   1.00
C382   C     0.17149   0.50176   0.67969   0.00000  Uiso   1.00
C383   C     0.20167   0.52706   0.63515   0.00000  Uiso   1.00
C384   C     0.25640   0.52193   0.62628   0.00000  Uiso   1.00
C385   C     0.27630   0.54819   0.58343   0.00000  Uiso   1.00
C386   C     0.15919   0.55418   0.71970   0.00000  Uiso   1.00
C387   C     0.17820   0.57183   0.78191   0.00000  Uiso   1.00
C388   C     0.16234   0.62091   0.81024   0.00000  Uiso   1.00
C389   C     0.11116   0.46225   0.64289   0.00000  Uiso   1.00
C390   C     0.08977   0.40263   0.64055   0.00000  Uiso   1.00
C391   C     0.03346   0.37433   0.60422   0.00000  Uiso   1.00
H392   H     0.08332   0.58111   0.59386   0.00000  Uiso   1.00
H393   H     0.16178   0.60707   0.53419   0.00000  Uiso   1.00
H394   H     0.08358   0.65696   0.68980   0.00000  Uiso   1.00
H395   H     0.99517   0.48778   0.54845   0.00000  Uiso   1.00
H396   H     0.26362   0.62251   0.48251   0.00000  Uiso   1.00
H397   H     0.09872   0.72769   0.81061   0.00000  Uiso   1.00
H398   H     0.91229   0.37096   0.51256   0.00000  Uiso   1.00
H399   H     0.19770   0.47818   0.70521   0.00000  Uiso   1.00
H400   H     0.28244   0.49849   0.65165   0.00000  Uiso   1.00
H401   H     0.20424   0.54838   0.80726   0.00000  Uiso   1.00
H402   H     0.11583   0.37921   0.66591   0.00000  Uiso   1.00
H403   H     0.36155   0.53439   0.57784   0.00000  Uiso   1.00
H404   H     0.19665   0.63957   0.90595   0.00000  Uiso   1.00
H405   H     0.01023   0.28283   0.60789   0.00000  Uiso   1.00
O406   O     0.36627   0.59369   0.49295   0.00000  Uiso   1.00
O407   O     0.14992   0.73167   0.92341   0.00000  Uiso   1.00
O408   O     0.90534   0.26365   0.53236   0.00000  Uiso   1.00
N409   N     0.27503   0.59897   0.51229   0.00000  Uiso   1.00
N410   N     0.12087   0.69732   0.81905   0.00000  Uiso   1.00
N411   N     0.94657   0.36381   0.54040   0.00000  Uiso   1.00
N412   N     0.32773   0.55155   0.56358   0.00000  Uiso   1.00
N413   N     0.17357   0.64990   0.87034   0.00000  Uiso   1.00
N414   N     0.99927   0.31639   0.59170   0.00000  Uiso   1.00
C415   C     0.12855   0.08304   0.61494   0.00000  Uiso   1.00
C416   C     0.11177   0.07759   0.67356   0.00000  Uiso   1.00
C417   C     0.07321   0.10532   0.69806   0.00000  Uiso   1.00
C418   C     0.06367   0.09468   0.75206   0.00000  Uiso   1.00
C419   C     0.03338   0.09187   0.83878   0.00000  Uiso   1.00
C420   C     0.19587   0.10494   0.63099   0.00000  Uiso   1.00
C421   C     0.22800   0.15565   0.61969   0.00000  Uiso   1.00
C422   C     0.28926   0.16803   0.63786   0.00000  Uiso   1.00
C423   C     0.38952   0.20765   0.65844   0.00000  Uiso   1.00
C424   C     0.11342   0.01987   0.57613   0.00000  Uiso   1.00
C425   C     0.07625   0.99906   0.51870   0.00000  Uiso   1.00
C426   C     0.06810   0.93981   0.49067   0.00000  Uiso   1.00
C427   C     0.04035   0.84735   0.42608   0.00000  Uiso   1.00
C428   C     0.18021   0.01483   0.66727   0.00000  Uiso   1.00
C429   C     0.13984   0.04054   0.70198   0.00000  Uiso   1.00
C430   C     0.13036   0.02985   0.75596   0.00000  Uiso   1.00
C431   C     0.09178   0.05756   0.78054   0.00000  Uiso   1.00
C432   C     0.22393   0.06789   0.65942   0.00000  Uiso   1.00
C433   C     0.28516   0.08019   0.67760   0.00000  Uiso   1.00
C434   C     0.31737   0.13091   0.66633   0.00000  Uiso   1.00
C435   C     0.14148   0.98282   0.60456   0.00000  Uiso   1.00
C436   C     0.13340   0.92359   0.57661   0.00000  Uiso   1.00
C437   C     0.09621   0.90270   0.51915   0.00000  Uiso   1.00
H438   H     0.10671   0.11189   0.59281   0.00000  Uiso   1.00
H439   H     0.05151   0.13399   0.67605   0.00000  Uiso   1.00
H440   H     0.20628   0.18431   0.59769   0.00000  Uiso   1.00
H441   H     0.05454   0.02774   0.49672   0.00000  Uiso   1.00
H442   H     0.00269   0.14218   0.78089   0.00000  Uiso   1.00
H443   H     0.32903   0.24827   0.61564   0.00000  Uiso   1.00
H444   H     0.00907   0.91811   0.40272   0.00000  Uiso   1.00
H445   H     0.20206   0.98599   0.68940   0.00000  Uiso   1.00
H446   H     0.15208   0.00118   0.77795   0.00000  Uiso   1.00
H447   H     0.30685   0.05150   0.69959   0.00000  Uiso   1.00
H448   H     0.15512   0.89493   0.59862   0.00000  Uiso   1.00
H449   H     0.08432   0.03438   0.86360   0.00000  Uiso   1.00
H450   H     0.41067   0.14048   0.69835   0.00000  Uiso   1.00
H451   H     0.09070   0.81032   0.48543   0.00000  Uiso   1.00
O452   O     0.00892   0.10056   0.87876   0.00000  Uiso   1.00
O453   O     0.43707   0.23975   0.66195   0.00000  Uiso   1.00
O454   O     0.01729   0.80658   0.38261   0.00000  Uiso   1.00
N455   N     0.02875   0.11471   0.78820   0.00000  Uiso   1.00
N456   N     0.33386   0.21391   0.63371   0.00000  Uiso   1.00
N457   N     0.03474   0.90524   0.43464   0.00000  Uiso   1.00
N458   N     0.07267   0.05671   0.83270   0.00000  Uiso   1.00
N459   N     0.37779   0.15591   0.67821   0.00000  Uiso   1.00
N460   N     0.07866   0.84724   0.47914   0.00000  Uiso   1.00
C461   C     0.05608   0.61014   0.11864   0.00000  Uiso   1.00
C462   C     0.05535   0.66865   0.10119   0.00000  Uiso   1.00
C463   C     0.08136   0.68870   0.05834   0.00000  Uiso   1.00
C464   C     0.07577   0.74342   0.04894   0.00000  Uiso   1.00
C465   C     0.07930   0.82920   0.01694   0.00000  Uiso   1.00
C466   C     0.08294   0.62642   0.18627   0.00000  Uiso   1.00
C467   C     0.13214   0.61096   0.21496   0.00000  Uiso   1.00
C468   C     0.14976   0.63013   0.27719   0.00000  Uiso   1.00
C469   C     0.19610   0.65032   0.37729   0.00000  Uiso   1.00
C470   C     0.99144   0.57753   0.10924   0.00000  Uiso   1.00
C471   C     0.96371   0.52094   0.07316   0.00000  Uiso   1.00
C472   C     0.90431   0.49894   0.07054   0.00000  Uiso   1.00
C473   C     0.80859   0.44321   0.05104   0.00000  Uiso   1.00
C474   C     0.99988   0.67168   0.17814   0.00000  Uiso   1.00
C475   C     0.02483   0.70208   0.13351   0.00000  Uiso   1.00
C476   C     0.01919   0.75679   0.12417   0.00000  Uiso   1.00
C477   C     0.04519   0.77691   0.08131   0.00000  Uiso   1.00
C478   C     0.05242   0.65985   0.21859   0.00000  Uiso   1.00
C479   C     0.06997   0.67905   0.28079   0.00000  Uiso   1.00
C480   C     0.11918   0.66362   0.30957   0.00000  Uiso   1.00
C481   C     0.96092   0.61095   0.14156   0.00000  Uiso   1.00
C482   C     0.90154   0.58904   0.13900   0.00000  Uiso   1.00
C483   C     0.87373   0.53243   0.10292   0.00000  Uiso   1.00
H484   H     0.07984   0.58412   0.09348   0.00000  Uiso   1.00
H485   H     0.10498   0.66282   0.03334   0.00000  Uiso   1.00
H486   H     0.15575   0.58509   0.18994   0.00000  Uiso   1.00
H487   H     0.98735   0.49509   0.04816   0.00000  Uiso   1.00
H488   H     0.11941   0.76482   0.98093   0.00000  Uiso   1.00
H489   H     0.22644   0.60091   0.31112   0.00000  Uiso   1.00
H490   H     0.87134   0.41113   0.01216   0.00000  Uiso   1.00
H491   H     0.97612   0.69771   0.20331   0.00000  Uiso   1.00
H492   H     0.99557   0.78264   0.14919   0.00000  Uiso   1.00
H493   H     0.04633   0.70491   0.30579   0.00000  Uiso   1.00
H494   H     0.87794   0.61491   0.16401   0.00000  Uiso   1.00
H495   H     0.03061   0.86208   0.07496   0.00000  Uiso   1.00
H496   H     0.13764   0.69816   0.40516   0.00000  Uiso   1.00
H497   H     0.78254   0.50838   0.10620   0.00000  Uiso   1.00
O498   O     0.08970   0.86728   0.99037   0.00000  Uiso   1.00
O499   O     0.23010   0.65222   0.42358   0.00000  Uiso   1.00
O500   O     0.76422   0.40324   0.03135   0.00000  Uiso   1.00
N501   N     0.09583   0.77605   0.01048   0.00000  Uiso   1.00
N502   N     0.19591   0.62281   0.31919   0.00000  Uiso   1.00
N503   N     0.86392   0.44537   0.03970   0.00000  Uiso   1.00
N504   N     0.04805   0.82838   0.06107   0.00000  Uiso   1.00
N505   N     0.14812   0.67514   0.36979   0.00000  Uiso   1.00
N506   N     0.81614   0.49770   0.09030   0.00000  Uiso   1.00
C507   C     0.61360   0.12597   0.07160   0.00000  Uiso   1.00
C508   C     0.67232   0.11060   0.06998   0.00000  Uiso   1.00
C509   C     0.69383   0.06981   0.09721   0.00000  Uiso   1.00
C510   C     0.74849   0.06210   0.09050   0.00000  Uiso   1.00
C511   C     0.83482   0.03340   0.09300   0.00000  Uiso   1.00
C512   C     0.62884   0.19293   0.09726   0.00000  Uiso   1.00
C513   C     0.61379   0.22134   0.14742   0.00000  Uiso   1.00
C514   C     0.63185   0.28293   0.16367   0.00000  Uiso   1.00
C515   C     0.65065   0.38203   0.20850   0.00000  Uiso   1.00
C516   C     0.57994   0.11474   0.00620   0.00000  Uiso   1.00
C517   C     0.52377   0.07742   0.97980   0.00000  Uiso   1.00
C518   C     0.50065   0.07320   0.91939   0.00000  Uiso   1.00
C519   C     0.44353   0.05090   0.82284   0.00000  Uiso   1.00
C520   C     0.67241   0.18484   0.01125   0.00000  Uiso   1.00
C521   C     0.70426   0.14258   0.03720   0.00000  Uiso   1.00
C522   C     0.75890   0.13494   0.03044   0.00000  Uiso   1.00
C523   C     0.78049   0.09413   0.05766   0.00000  Uiso   1.00
C524   C     0.66079   0.22490   0.06448   0.00000  Uiso   1.00
C525   C     0.67887   0.28647   0.08066   0.00000  Uiso   1.00
C526   C     0.66386   0.31497   0.13083   0.00000  Uiso   1.00
C527   C     0.61189   0.14671   0.97342   0.00000  Uiso   1.00
C528   C     0.58885   0.14255   0.91304   0.00000  Uiso   1.00
C529   C     0.53266   0.10523   0.88655   0.00000  Uiso   1.00
H530   H     0.58872   0.10108   0.09712   0.00000  Uiso   1.00
H531   H     0.66910   0.04507   0.12258   0.00000  Uiso   1.00
H532   H     0.58907   0.19658   0.17278   0.00000  Uiso   1.00
H533   H     0.49906   0.05268   0.00518   0.00000  Uiso   1.00
H534   H     0.77230   0.99709   0.13637   0.00000  Uiso   1.00
H535   H     0.60354   0.31656   0.24221   0.00000  Uiso   1.00
H536   H     0.41375   0.01312   0.88880   0.00000  Uiso   1.00
H537   H     0.69728   0.20974   0.98573   0.00000  Uiso   1.00
H538   H     0.78361   0.15969   0.00507   0.00000  Uiso   1.00
H539   H     0.70359   0.31120   0.05528   0.00000  Uiso   1.00
H540   H     0.61358   0.16730   0.88769   0.00000  Uiso   1.00
H541   H     0.86525   0.09012   0.04100   0.00000  Uiso   1.00
H542   H     0.69649   0.40959   0.14684   0.00000  Uiso   1.00
H543   H     0.50670   0.10615   0.79344   0.00000  Uiso   1.00
O544   O     0.87362   0.00873   0.10344   0.00000  Uiso   1.00
O545   O     0.65220   0.42786   0.24229   0.00000  Uiso   1.00
O546   O     0.40320   0.02976   0.77863   0.00000  Uiso   1.00
N547   N     0.78232   0.02585   0.11126   0.00000  Uiso   1.00
N548   N     0.62455   0.32453   0.21022   0.00000  Uiso   1.00
N549   N     0.44710   0.04085   0.87982   0.00000  Uiso   1.00
N550   N     0.83234   0.07590   0.05994   0.00000  Uiso   1.00
N551   N     0.67456   0.37458   0.15890   0.00000  Uiso   1.00
N552   N     0.49712   0.09091   0.82850   0.00000  Uiso   1.00
