data_job_03019
_audit_creation_date              2018-12-19
_audit_creation_method            'Materials Studio'
_symmetry_space_group_name_H-M    'P1'
_symmetry_Int_Tables_number       1
_symmetry_cell_setting            triclinic
loop_
_symmetry_equiv_pos_as_xyz
  x,y,z
_cell_length_a                    10.9662
_cell_length_b                    23.1970
_cell_length_c                    10.2163
_cell_angle_alpha                 90.0000
_cell_angle_beta                  90.0000
_cell_angle_gamma                 90.0000
loop_
_atom_site_label
_atom_site_type_symbol
_atom_site_fract_x
_atom_site_fract_y
_atom_site_fract_z
_atom_site_U_iso_or_equiv
_atom_site_adp_type
_atom_site_occupancy
C1     C     0.57722   0.40340   0.20460   0.00000  Uiso   1.00
C2     C     0.58398   0.40375   0.05551   0.00000  Uiso   1.00
C3     C     0.63554   0.44685   0.97930   0.00000  Uiso   1.00
C4     C     0.63260   0.43913   0.84457   0.00000  Uiso   1.00
C5     C     0.65104   0.44715   0.62165   0.00000  Uiso   1.00
C6     C     0.44257   0.39682   0.23877   0.00000  Uiso   1.00
C7     C     0.37525   0.43411   0.31665   0.00000  Uiso   1.00
C8     C     0.25328   0.42055   0.33620   0.00000  Uiso   1.00
C9     C     0.05221   0.41780   0.39786   0.00000  Uiso   1.00
C10    C     0.63871   0.34769   0.24843   0.00000  Uiso   1.00
C11    C     0.73628   0.34365   0.33447   0.00000  Uiso   1.00
C12    C     0.77942   0.28872   0.36218   0.00000  Uiso   1.00
C13    C     0.88288   0.20968   0.43885   0.00000  Uiso   1.00
C14    C     0.48033   0.31302   0.10087   0.00000  Uiso   1.00
C15    C     0.53135   0.35465   0.99917   0.00000  Uiso   1.00
C16    C     0.52834   0.34686   0.86453   0.00000  Uiso   1.00
C17    C     0.57989   0.38995   0.78813   0.00000  Uiso   1.00
C18    C     0.38994   0.34773   0.18243   0.00000  Uiso   1.00
C19    C     0.26805   0.33411   0.20188   0.00000  Uiso   1.00
C20    C     0.20056   0.37137   0.27975   0.00000  Uiso   1.00
C21    C     0.58609   0.29859   0.19209   0.00000  Uiso   1.00
C22    C     0.62908   0.24366   0.21969   0.00000  Uiso   1.00
C23    C     0.72670   0.23954   0.30574   0.00000  Uiso   1.00
H24    H     0.61819   0.44162   0.24847   0.00000  Uiso   1.00
H25    H     0.67624   0.48484   0.02294   0.00000  Uiso   1.00
H26    H     0.41600   0.47209   0.36024   0.00000  Uiso   1.00
H27    H     0.77698   0.38165   0.37805   0.00000  Uiso   1.00
H28    H     0.71736   0.51112   0.74804   0.00000  Uiso   1.00
H29    H     0.16863   0.48423   0.45930   0.00000  Uiso   1.00
H30    H     0.92982   0.29352   0.49686   0.00000  Uiso   1.00
H31    H     0.43936   0.27479   0.05701   0.00000  Uiso   1.00
H32    H     0.48761   0.30886   0.82096   0.00000  Uiso   1.00
H33    H     0.22736   0.29612   0.15827   0.00000  Uiso   1.00
H34    H     0.58834   0.20568   0.17607   0.00000  Uiso   1.00
H35    H     0.56425   0.36829   0.58411   0.00000  Uiso   1.00
H36    H     0.01552   0.34140   0.29538   0.00000  Uiso   1.00
H37    H     0.77671   0.15069   0.33293   0.00000  Uiso   1.00
O38    O     0.67573   0.46514   0.51425   0.00000  Uiso   1.00
O39    O     0.95584   0.42986   0.44742   0.00000  Uiso   1.00
O40    O     0.95450   0.17965   0.49668   0.00000  Uiso   1.00
N41    N     0.67473   0.47283   0.74186   0.00000  Uiso   1.00
N42    N     0.16169   0.44769   0.40683   0.00000  Uiso   1.00
N43    N     0.87332   0.26939   0.44197   0.00000  Uiso   1.00
N44    N     0.59234   0.39597   0.65364   0.00000  Uiso   1.00
N45    N     0.07931   0.37084   0.31862   0.00000  Uiso   1.00
N46    N     0.79094   0.19254   0.35375   0.00000  Uiso   1.00
C47    C     0.42278   0.59660   0.20460   0.00000  Uiso   1.00
C48    C     0.41602   0.59625   0.05551   0.00000  Uiso   1.00
C49    C     0.36446   0.55315   0.97930   0.00000  Uiso   1.00
C50    C     0.36740   0.56087   0.84457   0.00000  Uiso   1.00
C51    C     0.34896   0.55285   0.62165   0.00000  Uiso   1.00
C52    C     0.55743   0.60318   0.23877   0.00000  Uiso   1.00
C53    C     0.62475   0.56589   0.31665   0.00000  Uiso   1.00
C54    C     0.74672   0.57945   0.33620   0.00000  Uiso   1.00
C55    C     0.94779   0.58220   0.39786   0.00000  Uiso   1.00
C56    C     0.36129   0.65231   0.24843   0.00000  Uiso   1.00
C57    C     0.26372   0.65635   0.33447   0.00000  Uiso   1.00
C58    C     0.22058   0.71128   0.36218   0.00000  Uiso   1.00
C59    C     0.11712   0.79032   0.43885   0.00000  Uiso   1.00
C60    C     0.51967   0.68698   0.10087   0.00000  Uiso   1.00
C61    C     0.46865   0.64535   0.99917   0.00000  Uiso   1.00
C62    C     0.47166   0.65314   0.86453   0.00000  Uiso   1.00
C63    C     0.42011   0.61005   0.78813   0.00000  Uiso   1.00
C64    C     0.61006   0.65227   0.18243   0.00000  Uiso   1.00
C65    C     0.73195   0.66589   0.20188   0.00000  Uiso   1.00
C66    C     0.79944   0.62863   0.27975   0.00000  Uiso   1.00
C67    C     0.41391   0.70141   0.19209   0.00000  Uiso   1.00
C68    C     0.37092   0.75634   0.21969   0.00000  Uiso   1.00
C69    C     0.27330   0.76046   0.30574   0.00000  Uiso   1.00
H70    H     0.38181   0.55838   0.24847   0.00000  Uiso   1.00
H71    H     0.32376   0.51516   0.02294   0.00000  Uiso   1.00
H72    H     0.58400   0.52791   0.36024   0.00000  Uiso   1.00
H73    H     0.22302   0.61835   0.37805   0.00000  Uiso   1.00
H74    H     0.28264   0.48888   0.74804   0.00000  Uiso   1.00
H75    H     0.83137   0.51577   0.45930   0.00000  Uiso   1.00
H76    H     0.07018   0.70648   0.49686   0.00000  Uiso   1.00
H77    H     0.56064   0.72521   0.05701   0.00000  Uiso   1.00
H78    H     0.51239   0.69114   0.82096   0.00000  Uiso   1.00
H79    H     0.77264   0.70388   0.15827   0.00000  Uiso   1.00
H80    H     0.41166   0.79432   0.17607   0.00000  Uiso   1.00
H81    H     0.43575   0.63171   0.58411   0.00000  Uiso   1.00
H82    H     0.98448   0.65860   0.29538   0.00000  Uiso   1.00
H83    H     0.22329   0.84931   0.33293   0.00000  Uiso   1.00
O84    O     0.32427   0.53486   0.51425   0.00000  Uiso   1.00
O85    O     0.04416   0.57014   0.44742   0.00000  Uiso   1.00
O86    O     0.04550   0.82035   0.49668   0.00000  Uiso   1.00
N87    N     0.32527   0.52717   0.74186   0.00000  Uiso   1.00
N88    N     0.83831   0.55231   0.40683   0.00000  Uiso   1.00
N89    N     0.12668   0.73061   0.44197   0.00000  Uiso   1.00
N90    N     0.40766   0.60403   0.65364   0.00000  Uiso   1.00
N91    N     0.92069   0.62916   0.31862   0.00000  Uiso   1.00
N92    N     0.20906   0.80746   0.35375   0.00000  Uiso   1.00
C93    C     0.92278   0.90340   0.79540   0.00000  Uiso   1.00
C94    C     0.91602   0.90375   0.94449   0.00000  Uiso   1.00
C95    C     0.86446   0.94685   0.02070   0.00000  Uiso   1.00
C96    C     0.86740   0.93913   0.15543   0.00000  Uiso   1.00
C97    C     0.84896   0.94715   0.37835   0.00000  Uiso   1.00
C98    C     0.05743   0.89682   0.76123   0.00000  Uiso   1.00
C99    C     0.12475   0.93411   0.68335   0.00000  Uiso   1.00
C100   C     0.24672   0.92055   0.66380   0.00000  Uiso   1.00
C101   C     0.44779   0.91780   0.60214   0.00000  Uiso   1.00
C102   C     0.86129   0.84769   0.75157   0.00000  Uiso   1.00
C103   C     0.76372   0.84365   0.66553   0.00000  Uiso   1.00
C104   C     0.72058   0.78872   0.63782   0.00000  Uiso   1.00
C105   C     0.61712   0.70968   0.56115   0.00000  Uiso   1.00
C106   C     0.01967   0.81302   0.89913   0.00000  Uiso   1.00
C107   C     0.96865   0.85465   0.00083   0.00000  Uiso   1.00
C108   C     0.97166   0.84686   0.13547   0.00000  Uiso   1.00
C109   C     0.92011   0.88995   0.21187   0.00000  Uiso   1.00
C110   C     0.11006   0.84773   0.81757   0.00000  Uiso   1.00
C111   C     0.23195   0.83411   0.79812   0.00000  Uiso   1.00
C112   C     0.29944   0.87137   0.72025   0.00000  Uiso   1.00
C113   C     0.91391   0.79859   0.80791   0.00000  Uiso   1.00
C114   C     0.87092   0.74366   0.78031   0.00000  Uiso   1.00
C115   C     0.77330   0.73954   0.69426   0.00000  Uiso   1.00
H116   H     0.88181   0.94162   0.75153   0.00000  Uiso   1.00
H117   H     0.82376   0.98484   0.97706   0.00000  Uiso   1.00
H118   H     0.08400   0.97209   0.63976   0.00000  Uiso   1.00
H119   H     0.72302   0.88165   0.62195   0.00000  Uiso   1.00
H120   H     0.78264   0.01112   0.25196   0.00000  Uiso   1.00
H121   H     0.33137   0.98423   0.54070   0.00000  Uiso   1.00
H122   H     0.57018   0.79352   0.50314   0.00000  Uiso   1.00
H123   H     0.06064   0.77479   0.94299   0.00000  Uiso   1.00
H124   H     0.01239   0.80886   0.17904   0.00000  Uiso   1.00
H125   H     0.27264   0.79612   0.84173   0.00000  Uiso   1.00
H126   H     0.91166   0.70568   0.82393   0.00000  Uiso   1.00
H127   H     0.93575   0.86829   0.41589   0.00000  Uiso   1.00
H128   H     0.48448   0.84140   0.70462   0.00000  Uiso   1.00
H129   H     0.72329   0.65069   0.66707   0.00000  Uiso   1.00
O130   O     0.82427   0.96514   0.48575   0.00000  Uiso   1.00
O131   O     0.54416   0.92986   0.55258   0.00000  Uiso   1.00
O132   O     0.54550   0.67965   0.50332   0.00000  Uiso   1.00
N133   N     0.82527   0.97283   0.25814   0.00000  Uiso   1.00
N134   N     0.33831   0.94769   0.59317   0.00000  Uiso   1.00
N135   N     0.62668   0.76939   0.55803   0.00000  Uiso   1.00
N136   N     0.90766   0.89597   0.34636   0.00000  Uiso   1.00
N137   N     0.42069   0.87084   0.68138   0.00000  Uiso   1.00
N138   N     0.70906   0.69254   0.64625   0.00000  Uiso   1.00
C139   C     0.07722   0.09660   0.79540   0.00000  Uiso   1.00
C140   C     0.08398   0.09625   0.94449   0.00000  Uiso   1.00
C141   C     0.13554   0.05315   0.02070   0.00000  Uiso   1.00
C142   C     0.13260   0.06087   0.15543   0.00000  Uiso   1.00
C143   C     0.15104   0.05285   0.37835   0.00000  Uiso   1.00
C144   C     0.94257   0.10318   0.76123   0.00000  Uiso   1.00
C145   C     0.87525   0.06589   0.68335   0.00000  Uiso   1.00
C146   C     0.75328   0.07945   0.66380   0.00000  Uiso   1.00
C147   C     0.55221   0.08220   0.60214   0.00000  Uiso   1.00
C148   C     0.13871   0.15231   0.75157   0.00000  Uiso   1.00
C149   C     0.23628   0.15635   0.66553   0.00000  Uiso   1.00
C150   C     0.27942   0.21128   0.63782   0.00000  Uiso   1.00
C151   C     0.38288   0.29032   0.56115   0.00000  Uiso   1.00
C152   C     0.98033   0.18698   0.89913   0.00000  Uiso   1.00
C153   C     0.03135   0.14535   0.00083   0.00000  Uiso   1.00
C154   C     0.02834   0.15314   0.13547   0.00000  Uiso   1.00
C155   C     0.07989   0.11005   0.21187   0.00000  Uiso   1.00
C156   C     0.88994   0.15227   0.81757   0.00000  Uiso   1.00
C157   C     0.76805   0.16589   0.79812   0.00000  Uiso   1.00
C158   C     0.70056   0.12863   0.72025   0.00000  Uiso   1.00
C159   C     0.08609   0.20141   0.80791   0.00000  Uiso   1.00
C160   C     0.12908   0.25634   0.78031   0.00000  Uiso   1.00
C161   C     0.22670   0.26046   0.69426   0.00000  Uiso   1.00
H162   H     0.11819   0.05838   0.75153   0.00000  Uiso   1.00
H163   H     0.17624   0.01516   0.97706   0.00000  Uiso   1.00
H164   H     0.91600   0.02791   0.63976   0.00000  Uiso   1.00
H165   H     0.27698   0.11835   0.62195   0.00000  Uiso   1.00
H166   H     0.21736   0.98888   0.25196   0.00000  Uiso   1.00
H167   H     0.66863   0.01577   0.54070   0.00000  Uiso   1.00
H168   H     0.42982   0.20648   0.50314   0.00000  Uiso   1.00
H169   H     0.93936   0.22521   0.94299   0.00000  Uiso   1.00
H170   H     0.98761   0.19114   0.17904   0.00000  Uiso   1.00
H171   H     0.72736   0.20388   0.84173   0.00000  Uiso   1.00
H172   H     0.08834   0.29432   0.82393   0.00000  Uiso   1.00
H173   H     0.06425   0.13171   0.41589   0.00000  Uiso   1.00
H174   H     0.51552   0.15860   0.70462   0.00000  Uiso   1.00
H175   H     0.27671   0.34931   0.66707   0.00000  Uiso   1.00
O176   O     0.17573   0.03486   0.48575   0.00000  Uiso   1.00
O177   O     0.45584   0.07014   0.55258   0.00000  Uiso   1.00
O178   O     0.45450   0.32035   0.50332   0.00000  Uiso   1.00
N179   N     0.17473   0.02717   0.25814   0.00000  Uiso   1.00
N180   N     0.66169   0.05231   0.59317   0.00000  Uiso   1.00
N181   N     0.37332   0.23061   0.55803   0.00000  Uiso   1.00
N182   N     0.09234   0.10403   0.34636   0.00000  Uiso   1.00
N183   N     0.57931   0.12916   0.68138   0.00000  Uiso   1.00
N184   N     0.29094   0.30746   0.64625   0.00000  Uiso   1.00
