data_job_02765
_audit_creation_date              2018-12-19
_audit_creation_method            'Materials Studio'
_symmetry_space_group_name_H-M    'P1'
_symmetry_Int_Tables_number       1
_symmetry_cell_setting            triclinic
loop_
_symmetry_equiv_pos_as_xyz
  x,y,z
_cell_length_a                    12.8863
_cell_length_b                    7.9991
_cell_length_c                    12.7764
_cell_angle_alpha                 90.0000
_cell_angle_beta                  105.6023
_cell_angle_gamma                 90.0000
loop_
_atom_site_label
_atom_site_type_symbol
_atom_site_fract_x
_atom_site_fract_y
_atom_site_fract_z
_atom_site_U_iso_or_equiv
_atom_site_adp_type
_atom_site_occupancy
C1     C     0.19205   0.64739   0.83719   0.00000  Uiso   1.00
C2     C     0.17715   0.51504   0.91782   0.00000  Uiso   1.00
C3     C     0.19070   0.53961   0.02821   0.00000  Uiso   1.00
C4     C     0.17324   0.40273   0.08811   0.00000  Uiso   1.00
C5     C     0.15461   0.22094   0.22074   0.00000  Uiso   1.00
C6     C     0.08600   0.65380   0.74827   0.00000  Uiso   1.00
C7     C     0.02294   0.79503   0.71610   0.00000  Uiso   1.00
C8     C     0.92877   0.77496   0.63326   0.00000  Uiso   1.00
C9     C     0.76868   0.80862   0.50260   0.00000  Uiso   1.00
C10    C     0.27522   0.57681   0.78383   0.00000  Uiso   1.00
C11    C     0.37124   0.65334   0.78154   0.00000  Uiso   1.00
C12    C     0.43637   0.56846   0.72861   0.00000  Uiso   1.00
C13    C     0.57007   0.48259   0.65317   0.00000  Uiso   1.00
C14    C     0.13696   0.36062   0.74725   0.00000  Uiso   1.00
C15    C     0.14722   0.35928   0.86897   0.00000  Uiso   1.00
C16    C     0.12975   0.22232   0.92872   0.00000  Uiso   1.00
C17    C     0.14327   0.24668   0.03918   0.00000  Uiso   1.00
C18    C     0.05608   0.49804   0.69942   0.00000  Uiso   1.00
C19    C     0.96199   0.47775   0.61660   0.00000  Uiso   1.00
C20    C     0.89879   0.61891   0.58432   0.00000  Uiso   1.00
C21    C     0.24530   0.42105   0.73499   0.00000  Uiso   1.00
C22    C     0.31029   0.33605   0.68204   0.00000  Uiso   1.00
C23    C     0.40639   0.41242   0.67967   0.00000  Uiso   1.00
H24    H     0.21533   0.76866   0.87521   0.00000  Uiso   1.00
H25    H     0.21384   0.66018   0.06598   0.00000  Uiso   1.00
H26    H     0.04612   0.91556   0.75391   0.00000  Uiso   1.00
H27    H     0.39437   0.77388   0.81934   0.00000  Uiso   1.00
H28    H     0.19896   0.47122   0.25594   0.00000  Uiso   1.00
H29    H     0.84532   0.00972   0.59789   0.00000  Uiso   1.00
H30    H     0.57967   0.71097   0.73587   0.00000  Uiso   1.00
H31    H     0.11366   0.23934   0.70922   0.00000  Uiso   1.00
H32    H     0.10659   0.10180   0.89089   0.00000  Uiso   1.00
H33    H     0.93886   0.35719   0.57882   0.00000  Uiso   1.00
H34    H     0.28711   0.21551   0.64425   0.00000  Uiso   1.00
H35    H     0.11190   0.01803   0.11383   0.00000  Uiso   1.00
H36    H     0.75826   0.55654   0.45578   0.00000  Uiso   1.00
H37    H     0.49261   0.25777   0.59376   0.00000  Uiso   1.00
O38    O     0.15258   0.16371   0.30738   0.00000  Uiso   1.00
O39    O     0.68863   0.87022   0.44403   0.00000  Uiso   1.00
O40    O     0.65208   0.47824   0.62507   0.00000  Uiso   1.00
N41    N     0.17946   0.38343   0.19757   0.00000  Uiso   1.00
N42    N     0.84882   0.88689   0.58234   0.00000  Uiso   1.00
N43    N     0.53536   0.60760   0.71132   0.00000  Uiso   1.00
N44    N     0.13262   0.13957   0.12110   0.00000  Uiso   1.00
N45    N     0.80198   0.64303   0.50587   0.00000  Uiso   1.00
N46    N     0.48852   0.36374   0.63485   0.00000  Uiso   1.00
C47    C     0.80795   0.64739   0.16281   0.00000  Uiso   1.00
C48    C     0.82285   0.51504   0.08218   0.00000  Uiso   1.00
C49    C     0.80930   0.53961   0.97179   0.00000  Uiso   1.00
C50    C     0.82676   0.40273   0.91189   0.00000  Uiso   1.00
C51    C     0.84539   0.22094   0.77926   0.00000  Uiso   1.00
C52    C     0.91400   0.65380   0.25173   0.00000  Uiso   1.00
C53    C     0.97706   0.79503   0.28390   0.00000  Uiso   1.00
C54    C     0.07123   0.77496   0.36674   0.00000  Uiso   1.00
C55    C     0.23132   0.80862   0.49740   0.00000  Uiso   1.00
C56    C     0.72478   0.57681   0.21617   0.00000  Uiso   1.00
C57    C     0.62876   0.65334   0.21846   0.00000  Uiso   1.00
C58    C     0.56363   0.56846   0.27139   0.00000  Uiso   1.00
C59    C     0.42993   0.48259   0.34683   0.00000  Uiso   1.00
C60    C     0.86304   0.36062   0.25275   0.00000  Uiso   1.00
C61    C     0.85278   0.35928   0.13103   0.00000  Uiso   1.00
C62    C     0.87025   0.22232   0.07128   0.00000  Uiso   1.00
C63    C     0.85673   0.24668   0.96082   0.00000  Uiso   1.00
C64    C     0.94392   0.49804   0.30058   0.00000  Uiso   1.00
C65    C     0.03801   0.47775   0.38340   0.00000  Uiso   1.00
C66    C     0.10121   0.61891   0.41568   0.00000  Uiso   1.00
C67    C     0.75470   0.42105   0.26501   0.00000  Uiso   1.00
C68    C     0.68971   0.33605   0.31796   0.00000  Uiso   1.00
C69    C     0.59361   0.41242   0.32033   0.00000  Uiso   1.00
H70    H     0.78467   0.76866   0.12479   0.00000  Uiso   1.00
H71    H     0.78616   0.66018   0.93402   0.00000  Uiso   1.00
H72    H     0.95388   0.91556   0.24609   0.00000  Uiso   1.00
H73    H     0.60563   0.77388   0.18066   0.00000  Uiso   1.00
H74    H     0.80104   0.47122   0.74406   0.00000  Uiso   1.00
H75    H     0.15468   0.00972   0.40211   0.00000  Uiso   1.00
H76    H     0.42033   0.71097   0.26413   0.00000  Uiso   1.00
H77    H     0.88634   0.23934   0.29078   0.00000  Uiso   1.00
H78    H     0.89341   0.10180   0.10911   0.00000  Uiso   1.00
H79    H     0.06114   0.35719   0.42118   0.00000  Uiso   1.00
H80    H     0.71289   0.21551   0.35575   0.00000  Uiso   1.00
H81    H     0.88810   0.01803   0.88617   0.00000  Uiso   1.00
H82    H     0.24174   0.55654   0.54422   0.00000  Uiso   1.00
H83    H     0.50739   0.25777   0.40624   0.00000  Uiso   1.00
O84    O     0.84742   0.16371   0.69262   0.00000  Uiso   1.00
O85    O     0.31137   0.87022   0.55597   0.00000  Uiso   1.00
O86    O     0.34792   0.47824   0.37493   0.00000  Uiso   1.00
N87    N     0.82054   0.38343   0.80243   0.00000  Uiso   1.00
N88    N     0.15118   0.88689   0.41766   0.00000  Uiso   1.00
N89    N     0.46464   0.60760   0.28868   0.00000  Uiso   1.00
N90    N     0.86738   0.13957   0.87890   0.00000  Uiso   1.00
N91    N     0.19802   0.64303   0.49413   0.00000  Uiso   1.00
N92    N     0.51148   0.36374   0.36515   0.00000  Uiso   1.00
