data_job_03237
_audit_creation_date              2018-12-19
_audit_creation_method            'Materials Studio'
_symmetry_space_group_name_H-M    'P1'
_symmetry_Int_Tables_number       1
_symmetry_cell_setting            triclinic
loop_
_symmetry_equiv_pos_as_xyz
  x,y,z
_cell_length_a                    15.6723
_cell_length_b                    16.7967
_cell_length_c                    23.2087
_cell_angle_alpha                 90.0000
_cell_angle_beta                  90.0000
_cell_angle_gamma                 90.0000
loop_
_atom_site_label
_atom_site_type_symbol
_atom_site_fract_x
_atom_site_fract_y
_atom_site_fract_z
_atom_site_U_iso_or_equiv
_atom_site_adp_type
_atom_site_occupancy
C1     C     0.33115   0.68799   0.76664   0.00000  Uiso   1.00
C2     C     0.27522   0.66835   0.81849   0.00000  Uiso   1.00
C3     C     0.29588   0.61582   0.86248   0.00000  Uiso   1.00
C4     C     0.23610   0.60603   0.90606   0.00000  Uiso   1.00
C5     C     0.16105   0.56923   0.98663   0.00000  Uiso   1.00
C6     C     0.27734   0.66962   0.71353   0.00000  Uiso   1.00
C7     C     0.29979   0.61816   0.66927   0.00000  Uiso   1.00
C8     C     0.24179   0.60944   0.62449   0.00000  Uiso   1.00
C9     C     0.17006   0.57465   0.54209   0.00000  Uiso   1.00
C10    C     0.34295   0.77810   0.76731   0.00000  Uiso   1.00
C11    C     0.42057   0.81785   0.76825   0.00000  Uiso   1.00
C12    C     0.41782   0.90047   0.76873   0.00000  Uiso   1.00
C13    C     0.44796   0.03411   0.76982   0.00000  Uiso   1.00
C14    C     0.18824   0.76403   0.76580   0.00000  Uiso   1.00
C15    C     0.19760   0.70966   0.81803   0.00000  Uiso   1.00
C16    C     0.13777   0.69995   0.86156   0.00000  Uiso   1.00
C17    C     0.15834   0.64741   0.90561   0.00000  Uiso   1.00
C18    C     0.19972   0.71092   0.71308   0.00000  Uiso   1.00
C19    C     0.14168   0.70228   0.66835   0.00000  Uiso   1.00
C20    C     0.16403   0.65082   0.62403   0.00000  Uiso   1.00
C21    C     0.26533   0.81940   0.76686   0.00000  Uiso   1.00
C22    C     0.26246   0.90198   0.76733   0.00000  Uiso   1.00
C23    C     0.34006   0.94185   0.76827   0.00000  Uiso   1.00
H24    H     0.39158   0.65583   0.76699   0.00000  Uiso   1.00
H25    H     0.35595   0.58386   0.86282   0.00000  Uiso   1.00
H26    H     0.35986   0.58621   0.66964   0.00000  Uiso   1.00
H27    H     0.48062   0.78587   0.76860   0.00000  Uiso   1.00
H28    H     0.28221   0.52226   0.96885   0.00000  Uiso   1.00
H29    H     0.29047   0.52723   0.56151   0.00000  Uiso   1.00
H30    H     0.54512   0.94825   0.77019   0.00000  Uiso   1.00
H31    H     0.12781   0.79619   0.76544   0.00000  Uiso   1.00
H32    H     0.07771   0.73192   0.86119   0.00000  Uiso   1.00
H33    H     0.08162   0.73426   0.66801   0.00000  Uiso   1.00
H34    H     0.20238   0.93392   0.76697   0.00000  Uiso   1.00
H35    H     0.05638   0.64242   0.96753   0.00000  Uiso   1.00
H36    H     0.06464   0.64739   0.56018   0.00000  Uiso   1.00
H37    H     0.31929   0.06842   0.76887   0.00000  Uiso   1.00
O38    O     0.14109   0.53751   0.03119   0.00000  Uiso   1.00
O39    O     0.15193   0.54404   0.49677   0.00000  Uiso   1.00
O40    O     0.48602   0.09641   0.77056   0.00000  Uiso   1.00
N41    N     0.23594   0.55937   0.95541   0.00000  Uiso   1.00
N42    N     0.24366   0.56401   0.57457   0.00000  Uiso   1.00
N43    N     0.48174   0.95763   0.76965   0.00000  Uiso   1.00
N44    N     0.11443   0.62403   0.95470   0.00000  Uiso   1.00
N45    N     0.12214   0.62867   0.57386   0.00000  Uiso   1.00
N46    N     0.36022   0.02229   0.76894   0.00000  Uiso   1.00
C47    C     0.16885   0.31201   0.26664   0.00000  Uiso   1.00
C48    C     0.22478   0.33165   0.31849   0.00000  Uiso   1.00
C49    C     0.20412   0.38418   0.36248   0.00000  Uiso   1.00
C50    C     0.26390   0.39397   0.40606   0.00000  Uiso   1.00
C51    C     0.33895   0.43077   0.48663   0.00000  Uiso   1.00
C52    C     0.22266   0.33038   0.21353   0.00000  Uiso   1.00
C53    C     0.20021   0.38184   0.16927   0.00000  Uiso   1.00
C54    C     0.25821   0.39056   0.12449   0.00000  Uiso   1.00
C55    C     0.32994   0.42535   0.04209   0.00000  Uiso   1.00
C56    C     0.15705   0.22190   0.26731   0.00000  Uiso   1.00
C57    C     0.07943   0.18215   0.26825   0.00000  Uiso   1.00
C58    C     0.08218   0.09953   0.26873   0.00000  Uiso   1.00
C59    C     0.05204   0.96589   0.26982   0.00000  Uiso   1.00
C60    C     0.31176   0.23597   0.26580   0.00000  Uiso   1.00
C61    C     0.30240   0.29034   0.31803   0.00000  Uiso   1.00
C62    C     0.36223   0.30005   0.36156   0.00000  Uiso   1.00
C63    C     0.34166   0.35259   0.40561   0.00000  Uiso   1.00
C64    C     0.30028   0.28908   0.21308   0.00000  Uiso   1.00
C65    C     0.35832   0.29772   0.16835   0.00000  Uiso   1.00
C66    C     0.33597   0.34918   0.12403   0.00000  Uiso   1.00
C67    C     0.23467   0.18060   0.26686   0.00000  Uiso   1.00
C68    C     0.23754   0.09802   0.26733   0.00000  Uiso   1.00
C69    C     0.15994   0.05815   0.26827   0.00000  Uiso   1.00
H70    H     0.10842   0.34417   0.26699   0.00000  Uiso   1.00
H71    H     0.14405   0.41614   0.36282   0.00000  Uiso   1.00
H72    H     0.14014   0.41379   0.16964   0.00000  Uiso   1.00
H73    H     0.01938   0.21413   0.26860   0.00000  Uiso   1.00
H74    H     0.21779   0.47774   0.46885   0.00000  Uiso   1.00
H75    H     0.20953   0.47277   0.06151   0.00000  Uiso   1.00
H76    H     0.95488   0.05175   0.27019   0.00000  Uiso   1.00
H77    H     0.37219   0.20381   0.26544   0.00000  Uiso   1.00
H78    H     0.42229   0.26808   0.36119   0.00000  Uiso   1.00
H79    H     0.41838   0.26574   0.16801   0.00000  Uiso   1.00
H80    H     0.29762   0.06608   0.26697   0.00000  Uiso   1.00
H81    H     0.44362   0.35758   0.46753   0.00000  Uiso   1.00
H82    H     0.43536   0.35261   0.06018   0.00000  Uiso   1.00
H83    H     0.18071   0.93158   0.26887   0.00000  Uiso   1.00
O84    O     0.35891   0.46249   0.53119   0.00000  Uiso   1.00
O85    O     0.34807   0.45596   0.99677   0.00000  Uiso   1.00
O86    O     0.01398   0.90359   0.27056   0.00000  Uiso   1.00
N87    N     0.26406   0.44063   0.45541   0.00000  Uiso   1.00
N88    N     0.25634   0.43599   0.07457   0.00000  Uiso   1.00
N89    N     0.01826   0.04237   0.26965   0.00000  Uiso   1.00
N90    N     0.38557   0.37597   0.45470   0.00000  Uiso   1.00
N91    N     0.37786   0.37133   0.07386   0.00000  Uiso   1.00
N92    N     0.13978   0.97771   0.26894   0.00000  Uiso   1.00
C93    C     0.66885   0.18799   0.73336   0.00000  Uiso   1.00
C94    C     0.72478   0.16835   0.68151   0.00000  Uiso   1.00
C95    C     0.70412   0.11582   0.63752   0.00000  Uiso   1.00
C96    C     0.76390   0.10603   0.59394   0.00000  Uiso   1.00
C97    C     0.83895   0.06923   0.51337   0.00000  Uiso   1.00
C98    C     0.72266   0.16962   0.78647   0.00000  Uiso   1.00
C99    C     0.70021   0.11816   0.83073   0.00000  Uiso   1.00
C100   C     0.75821   0.10944   0.87551   0.00000  Uiso   1.00
C101   C     0.82994   0.07465   0.95791   0.00000  Uiso   1.00
C102   C     0.65705   0.27810   0.73269   0.00000  Uiso   1.00
C103   C     0.57943   0.31785   0.73175   0.00000  Uiso   1.00
C104   C     0.58218   0.40047   0.73127   0.00000  Uiso   1.00
C105   C     0.55204   0.53411   0.73018   0.00000  Uiso   1.00
C106   C     0.81176   0.26403   0.73420   0.00000  Uiso   1.00
C107   C     0.80240   0.20966   0.68197   0.00000  Uiso   1.00
C108   C     0.86223   0.19995   0.63844   0.00000  Uiso   1.00
C109   C     0.84166   0.14741   0.59439   0.00000  Uiso   1.00
C110   C     0.80028   0.21092   0.78692   0.00000  Uiso   1.00
C111   C     0.85832   0.20228   0.83165   0.00000  Uiso   1.00
C112   C     0.83597   0.15082   0.87597   0.00000  Uiso   1.00
C113   C     0.73467   0.31940   0.73314   0.00000  Uiso   1.00
C114   C     0.73754   0.40198   0.73267   0.00000  Uiso   1.00
C115   C     0.65994   0.44185   0.73173   0.00000  Uiso   1.00
H116   H     0.60842   0.15583   0.73301   0.00000  Uiso   1.00
H117   H     0.64405   0.08386   0.63718   0.00000  Uiso   1.00
H118   H     0.64014   0.08621   0.83036   0.00000  Uiso   1.00
H119   H     0.51938   0.28587   0.73140   0.00000  Uiso   1.00
H120   H     0.71779   0.02226   0.53115   0.00000  Uiso   1.00
H121   H     0.70953   0.02723   0.93849   0.00000  Uiso   1.00
H122   H     0.45488   0.44825   0.72981   0.00000  Uiso   1.00
H123   H     0.87219   0.29619   0.73456   0.00000  Uiso   1.00
H124   H     0.92229   0.23192   0.63881   0.00000  Uiso   1.00
H125   H     0.91838   0.23426   0.83199   0.00000  Uiso   1.00
H126   H     0.79762   0.43392   0.73303   0.00000  Uiso   1.00
H127   H     0.94362   0.14242   0.53247   0.00000  Uiso   1.00
H128   H     0.93536   0.14739   0.93982   0.00000  Uiso   1.00
H129   H     0.68071   0.56842   0.73113   0.00000  Uiso   1.00
O130   O     0.85891   0.03751   0.46881   0.00000  Uiso   1.00
O131   O     0.84807   0.04404   0.00323   0.00000  Uiso   1.00
O132   O     0.51398   0.59641   0.72944   0.00000  Uiso   1.00
N133   N     0.76406   0.05937   0.54459   0.00000  Uiso   1.00
N134   N     0.75634   0.06401   0.92543   0.00000  Uiso   1.00
N135   N     0.51826   0.45763   0.73035   0.00000  Uiso   1.00
N136   N     0.88557   0.12403   0.54530   0.00000  Uiso   1.00
N137   N     0.87786   0.12867   0.92614   0.00000  Uiso   1.00
N138   N     0.63978   0.52229   0.73106   0.00000  Uiso   1.00
C139   C     0.83115   0.81201   0.23336   0.00000  Uiso   1.00
C140   C     0.77522   0.83165   0.18151   0.00000  Uiso   1.00
C141   C     0.79588   0.88418   0.13752   0.00000  Uiso   1.00
C142   C     0.73610   0.89397   0.09394   0.00000  Uiso   1.00
C143   C     0.66105   0.93077   0.01337   0.00000  Uiso   1.00
C144   C     0.77734   0.83038   0.28647   0.00000  Uiso   1.00
C145   C     0.79979   0.88184   0.33073   0.00000  Uiso   1.00
C146   C     0.74179   0.89056   0.37551   0.00000  Uiso   1.00
C147   C     0.67006   0.92535   0.45791   0.00000  Uiso   1.00
C148   C     0.84295   0.72190   0.23269   0.00000  Uiso   1.00
C149   C     0.92057   0.68215   0.23175   0.00000  Uiso   1.00
C150   C     0.91782   0.59953   0.23127   0.00000  Uiso   1.00
C151   C     0.94796   0.46589   0.23018   0.00000  Uiso   1.00
C152   C     0.68824   0.73597   0.23420   0.00000  Uiso   1.00
C153   C     0.69760   0.79034   0.18197   0.00000  Uiso   1.00
C154   C     0.63777   0.80005   0.13844   0.00000  Uiso   1.00
C155   C     0.65834   0.85259   0.09439   0.00000  Uiso   1.00
C156   C     0.69972   0.78908   0.28692   0.00000  Uiso   1.00
C157   C     0.64168   0.79772   0.33165   0.00000  Uiso   1.00
C158   C     0.66403   0.84918   0.37597   0.00000  Uiso   1.00
C159   C     0.76533   0.68060   0.23314   0.00000  Uiso   1.00
C160   C     0.76246   0.59802   0.23267   0.00000  Uiso   1.00
C161   C     0.84006   0.55815   0.23173   0.00000  Uiso   1.00
H162   H     0.89158   0.84417   0.23301   0.00000  Uiso   1.00
H163   H     0.85595   0.91614   0.13718   0.00000  Uiso   1.00
H164   H     0.85986   0.91379   0.33036   0.00000  Uiso   1.00
H165   H     0.98062   0.71413   0.23140   0.00000  Uiso   1.00
H166   H     0.78221   0.97774   0.03115   0.00000  Uiso   1.00
H167   H     0.79047   0.97277   0.43849   0.00000  Uiso   1.00
H168   H     0.04512   0.55175   0.22981   0.00000  Uiso   1.00
H169   H     0.62781   0.70381   0.23456   0.00000  Uiso   1.00
H170   H     0.57771   0.76808   0.13881   0.00000  Uiso   1.00
H171   H     0.58162   0.76574   0.33199   0.00000  Uiso   1.00
H172   H     0.70238   0.56608   0.23303   0.00000  Uiso   1.00
H173   H     0.55638   0.85758   0.03247   0.00000  Uiso   1.00
H174   H     0.56464   0.85261   0.43982   0.00000  Uiso   1.00
H175   H     0.81929   0.43158   0.23113   0.00000  Uiso   1.00
O176   O     0.64109   0.96249   0.96881   0.00000  Uiso   1.00
O177   O     0.65193   0.95596   0.50323   0.00000  Uiso   1.00
O178   O     0.98602   0.40359   0.22944   0.00000  Uiso   1.00
N179   N     0.73594   0.94063   0.04459   0.00000  Uiso   1.00
N180   N     0.74366   0.93599   0.42543   0.00000  Uiso   1.00
N181   N     0.98174   0.54237   0.23035   0.00000  Uiso   1.00
N182   N     0.61443   0.87597   0.04530   0.00000  Uiso   1.00
N183   N     0.62214   0.87133   0.42614   0.00000  Uiso   1.00
N184   N     0.86022   0.47771   0.23106   0.00000  Uiso   1.00
C185   C     0.66885   0.31201   0.23336   0.00000  Uiso   1.00
C186   C     0.72478   0.33165   0.18151   0.00000  Uiso   1.00
C187   C     0.70412   0.38418   0.13752   0.00000  Uiso   1.00
C188   C     0.76390   0.39397   0.09394   0.00000  Uiso   1.00
C189   C     0.83895   0.43077   0.01337   0.00000  Uiso   1.00
C190   C     0.72266   0.33038   0.28647   0.00000  Uiso   1.00
C191   C     0.70021   0.38184   0.33073   0.00000  Uiso   1.00
C192   C     0.75821   0.39056   0.37551   0.00000  Uiso   1.00
C193   C     0.82994   0.42535   0.45791   0.00000  Uiso   1.00
C194   C     0.65705   0.22190   0.23269   0.00000  Uiso   1.00
C195   C     0.57943   0.18215   0.23175   0.00000  Uiso   1.00
C196   C     0.58218   0.09953   0.23127   0.00000  Uiso   1.00
C197   C     0.55204   0.96589   0.23018   0.00000  Uiso   1.00
C198   C     0.81176   0.23597   0.23420   0.00000  Uiso   1.00
C199   C     0.80240   0.29034   0.18197   0.00000  Uiso   1.00
C200   C     0.86223   0.30005   0.13844   0.00000  Uiso   1.00
C201   C     0.84166   0.35259   0.09439   0.00000  Uiso   1.00
C202   C     0.80028   0.28908   0.28692   0.00000  Uiso   1.00
C203   C     0.85832   0.29772   0.33165   0.00000  Uiso   1.00
C204   C     0.83597   0.34918   0.37597   0.00000  Uiso   1.00
C205   C     0.73467   0.18060   0.23314   0.00000  Uiso   1.00
C206   C     0.73754   0.09802   0.23267   0.00000  Uiso   1.00
C207   C     0.65994   0.05815   0.23173   0.00000  Uiso   1.00
H208   H     0.60842   0.34417   0.23301   0.00000  Uiso   1.00
H209   H     0.64405   0.41614   0.13718   0.00000  Uiso   1.00
H210   H     0.64014   0.41379   0.33036   0.00000  Uiso   1.00
H211   H     0.51938   0.21413   0.23140   0.00000  Uiso   1.00
H212   H     0.71779   0.47774   0.03115   0.00000  Uiso   1.00
H213   H     0.70953   0.47277   0.43849   0.00000  Uiso   1.00
H214   H     0.45488   0.05175   0.22981   0.00000  Uiso   1.00
H215   H     0.87219   0.20381   0.23456   0.00000  Uiso   1.00
H216   H     0.92229   0.26808   0.13881   0.00000  Uiso   1.00
H217   H     0.91838   0.26574   0.33199   0.00000  Uiso   1.00
H218   H     0.79762   0.06608   0.23303   0.00000  Uiso   1.00
H219   H     0.94362   0.35758   0.03247   0.00000  Uiso   1.00
H220   H     0.93536   0.35261   0.43982   0.00000  Uiso   1.00
H221   H     0.68071   0.93158   0.23113   0.00000  Uiso   1.00
O222   O     0.85891   0.46249   0.96881   0.00000  Uiso   1.00
O223   O     0.84807   0.45596   0.50323   0.00000  Uiso   1.00
O224   O     0.51398   0.90359   0.22944   0.00000  Uiso   1.00
N225   N     0.76406   0.44063   0.04459   0.00000  Uiso   1.00
N226   N     0.75634   0.43599   0.42543   0.00000  Uiso   1.00
N227   N     0.51826   0.04237   0.23035   0.00000  Uiso   1.00
N228   N     0.88557   0.37597   0.04530   0.00000  Uiso   1.00
N229   N     0.87786   0.37133   0.42614   0.00000  Uiso   1.00
N230   N     0.63978   0.97771   0.23106   0.00000  Uiso   1.00
C231   C     0.83115   0.68799   0.73336   0.00000  Uiso   1.00
C232   C     0.77522   0.66835   0.68151   0.00000  Uiso   1.00
C233   C     0.79588   0.61582   0.63752   0.00000  Uiso   1.00
C234   C     0.73610   0.60603   0.59394   0.00000  Uiso   1.00
C235   C     0.66105   0.56923   0.51337   0.00000  Uiso   1.00
C236   C     0.77734   0.66962   0.78647   0.00000  Uiso   1.00
C237   C     0.79979   0.61816   0.83073   0.00000  Uiso   1.00
C238   C     0.74179   0.60944   0.87551   0.00000  Uiso   1.00
C239   C     0.67006   0.57465   0.95791   0.00000  Uiso   1.00
C240   C     0.84295   0.77810   0.73269   0.00000  Uiso   1.00
C241   C     0.92057   0.81785   0.73175   0.00000  Uiso   1.00
C242   C     0.91782   0.90047   0.73127   0.00000  Uiso   1.00
C243   C     0.94796   0.03411   0.73018   0.00000  Uiso   1.00
C244   C     0.68824   0.76403   0.73420   0.00000  Uiso   1.00
C245   C     0.69760   0.70966   0.68197   0.00000  Uiso   1.00
C246   C     0.63777   0.69995   0.63844   0.00000  Uiso   1.00
C247   C     0.65834   0.64741   0.59439   0.00000  Uiso   1.00
C248   C     0.69972   0.71092   0.78692   0.00000  Uiso   1.00
C249   C     0.64168   0.70228   0.83165   0.00000  Uiso   1.00
C250   C     0.66403   0.65082   0.87597   0.00000  Uiso   1.00
C251   C     0.76533   0.81940   0.73314   0.00000  Uiso   1.00
C252   C     0.76246   0.90198   0.73267   0.00000  Uiso   1.00
C253   C     0.84006   0.94185   0.73173   0.00000  Uiso   1.00
H254   H     0.89158   0.65583   0.73301   0.00000  Uiso   1.00
H255   H     0.85595   0.58386   0.63718   0.00000  Uiso   1.00
H256   H     0.85986   0.58621   0.83036   0.00000  Uiso   1.00
H257   H     0.98062   0.78587   0.73140   0.00000  Uiso   1.00
H258   H     0.78221   0.52226   0.53115   0.00000  Uiso   1.00
H259   H     0.79047   0.52723   0.93849   0.00000  Uiso   1.00
H260   H     0.04512   0.94825   0.72981   0.00000  Uiso   1.00
H261   H     0.62781   0.79619   0.73456   0.00000  Uiso   1.00
H262   H     0.57771   0.73192   0.63881   0.00000  Uiso   1.00
H263   H     0.58162   0.73426   0.83199   0.00000  Uiso   1.00
H264   H     0.70238   0.93392   0.73303   0.00000  Uiso   1.00
H265   H     0.55638   0.64242   0.53247   0.00000  Uiso   1.00
H266   H     0.56464   0.64739   0.93982   0.00000  Uiso   1.00
H267   H     0.81929   0.06842   0.73113   0.00000  Uiso   1.00
O268   O     0.64109   0.53751   0.46881   0.00000  Uiso   1.00
O269   O     0.65193   0.54404   0.00323   0.00000  Uiso   1.00
O270   O     0.98602   0.09641   0.72944   0.00000  Uiso   1.00
N271   N     0.73594   0.55937   0.54459   0.00000  Uiso   1.00
N272   N     0.74366   0.56401   0.92543   0.00000  Uiso   1.00
N273   N     0.98174   0.95763   0.73035   0.00000  Uiso   1.00
N274   N     0.61443   0.62403   0.54530   0.00000  Uiso   1.00
N275   N     0.62214   0.62867   0.92614   0.00000  Uiso   1.00
N276   N     0.86022   0.02229   0.73106   0.00000  Uiso   1.00
C277   C     0.33115   0.81201   0.26664   0.00000  Uiso   1.00
C278   C     0.27522   0.83165   0.31849   0.00000  Uiso   1.00
C279   C     0.29588   0.88418   0.36248   0.00000  Uiso   1.00
C280   C     0.23610   0.89397   0.40606   0.00000  Uiso   1.00
C281   C     0.16105   0.93077   0.48663   0.00000  Uiso   1.00
C282   C     0.27734   0.83038   0.21353   0.00000  Uiso   1.00
C283   C     0.29979   0.88184   0.16927   0.00000  Uiso   1.00
C284   C     0.24179   0.89056   0.12449   0.00000  Uiso   1.00
C285   C     0.17006   0.92535   0.04209   0.00000  Uiso   1.00
C286   C     0.34295   0.72190   0.26731   0.00000  Uiso   1.00
C287   C     0.42057   0.68215   0.26825   0.00000  Uiso   1.00
C288   C     0.41782   0.59953   0.26873   0.00000  Uiso   1.00
C289   C     0.44796   0.46589   0.26982   0.00000  Uiso   1.00
C290   C     0.18824   0.73597   0.26580   0.00000  Uiso   1.00
C291   C     0.19760   0.79034   0.31803   0.00000  Uiso   1.00
C292   C     0.13777   0.80005   0.36156   0.00000  Uiso   1.00
C293   C     0.15834   0.85259   0.40561   0.00000  Uiso   1.00
C294   C     0.19972   0.78908   0.21308   0.00000  Uiso   1.00
C295   C     0.14168   0.79772   0.16835   0.00000  Uiso   1.00
C296   C     0.16403   0.84918   0.12403   0.00000  Uiso   1.00
C297   C     0.26533   0.68060   0.26686   0.00000  Uiso   1.00
C298   C     0.26246   0.59802   0.26733   0.00000  Uiso   1.00
C299   C     0.34006   0.55815   0.26827   0.00000  Uiso   1.00
H300   H     0.39158   0.84417   0.26699   0.00000  Uiso   1.00
H301   H     0.35595   0.91614   0.36282   0.00000  Uiso   1.00
H302   H     0.35986   0.91379   0.16964   0.00000  Uiso   1.00
H303   H     0.48062   0.71413   0.26860   0.00000  Uiso   1.00
H304   H     0.28221   0.97774   0.46885   0.00000  Uiso   1.00
H305   H     0.29047   0.97277   0.06151   0.00000  Uiso   1.00
H306   H     0.54512   0.55175   0.27019   0.00000  Uiso   1.00
H307   H     0.12781   0.70381   0.26544   0.00000  Uiso   1.00
H308   H     0.07771   0.76808   0.36119   0.00000  Uiso   1.00
H309   H     0.08162   0.76574   0.16801   0.00000  Uiso   1.00
H310   H     0.20238   0.56608   0.26697   0.00000  Uiso   1.00
H311   H     0.05638   0.85758   0.46753   0.00000  Uiso   1.00
H312   H     0.06464   0.85261   0.06018   0.00000  Uiso   1.00
H313   H     0.31929   0.43158   0.26887   0.00000  Uiso   1.00
O314   O     0.14109   0.96249   0.53119   0.00000  Uiso   1.00
O315   O     0.15193   0.95596   0.99677   0.00000  Uiso   1.00
O316   O     0.48602   0.40359   0.27056   0.00000  Uiso   1.00
N317   N     0.23594   0.94063   0.45541   0.00000  Uiso   1.00
N318   N     0.24366   0.93599   0.07457   0.00000  Uiso   1.00
N319   N     0.48174   0.54237   0.26965   0.00000  Uiso   1.00
N320   N     0.11443   0.87597   0.45470   0.00000  Uiso   1.00
N321   N     0.12214   0.87133   0.07386   0.00000  Uiso   1.00
N322   N     0.36022   0.47771   0.26894   0.00000  Uiso   1.00
C323   C     0.16885   0.18799   0.76664   0.00000  Uiso   1.00
C324   C     0.22478   0.16835   0.81849   0.00000  Uiso   1.00
C325   C     0.20412   0.11582   0.86248   0.00000  Uiso   1.00
C326   C     0.26390   0.10603   0.90606   0.00000  Uiso   1.00
C327   C     0.33895   0.06923   0.98663   0.00000  Uiso   1.00
C328   C     0.22266   0.16962   0.71353   0.00000  Uiso   1.00
C329   C     0.20021   0.11816   0.66927   0.00000  Uiso   1.00
C330   C     0.25821   0.10944   0.62449   0.00000  Uiso   1.00
C331   C     0.32994   0.07465   0.54209   0.00000  Uiso   1.00
C332   C     0.15705   0.27810   0.76731   0.00000  Uiso   1.00
C333   C     0.07943   0.31785   0.76825   0.00000  Uiso   1.00
C334   C     0.08218   0.40047   0.76873   0.00000  Uiso   1.00
C335   C     0.05204   0.53411   0.76982   0.00000  Uiso   1.00
C336   C     0.31176   0.26403   0.76580   0.00000  Uiso   1.00
C337   C     0.30240   0.20966   0.81803   0.00000  Uiso   1.00
C338   C     0.36223   0.19995   0.86156   0.00000  Uiso   1.00
C339   C     0.34166   0.14741   0.90561   0.00000  Uiso   1.00
C340   C     0.30028   0.21092   0.71308   0.00000  Uiso   1.00
C341   C     0.35832   0.20228   0.66835   0.00000  Uiso   1.00
C342   C     0.33597   0.15082   0.62403   0.00000  Uiso   1.00
C343   C     0.23467   0.31940   0.76686   0.00000  Uiso   1.00
C344   C     0.23754   0.40198   0.76733   0.00000  Uiso   1.00
C345   C     0.15994   0.44185   0.76827   0.00000  Uiso   1.00
H346   H     0.10842   0.15583   0.76699   0.00000  Uiso   1.00
H347   H     0.14405   0.08386   0.86282   0.00000  Uiso   1.00
H348   H     0.14014   0.08621   0.66964   0.00000  Uiso   1.00
H349   H     0.01938   0.28587   0.76860   0.00000  Uiso   1.00
H350   H     0.21779   0.02226   0.96885   0.00000  Uiso   1.00
H351   H     0.20953   0.02723   0.56151   0.00000  Uiso   1.00
H352   H     0.95488   0.44825   0.77019   0.00000  Uiso   1.00
H353   H     0.37219   0.29619   0.76544   0.00000  Uiso   1.00
H354   H     0.42229   0.23192   0.86119   0.00000  Uiso   1.00
H355   H     0.41838   0.23426   0.66801   0.00000  Uiso   1.00
H356   H     0.29762   0.43392   0.76697   0.00000  Uiso   1.00
H357   H     0.44362   0.14242   0.96753   0.00000  Uiso   1.00
H358   H     0.43536   0.14739   0.56018   0.00000  Uiso   1.00
H359   H     0.18071   0.56842   0.76887   0.00000  Uiso   1.00
O360   O     0.35891   0.03751   0.03119   0.00000  Uiso   1.00
O361   O     0.34807   0.04404   0.49677   0.00000  Uiso   1.00
O362   O     0.01398   0.59641   0.77056   0.00000  Uiso   1.00
N363   N     0.26406   0.05937   0.95541   0.00000  Uiso   1.00
N364   N     0.25634   0.06401   0.57457   0.00000  Uiso   1.00
N365   N     0.01826   0.45763   0.76965   0.00000  Uiso   1.00
N366   N     0.38557   0.12403   0.95470   0.00000  Uiso   1.00
N367   N     0.37786   0.12867   0.57386   0.00000  Uiso   1.00
N368   N     0.13978   0.52229   0.76894   0.00000  Uiso   1.00
