data_job_02199
_audit_creation_date              2018-12-19
_audit_creation_method            'Materials Studio'
_symmetry_space_group_name_H-M    'P1'
_symmetry_Int_Tables_number       1
_symmetry_cell_setting            triclinic
loop_
_symmetry_equiv_pos_as_xyz
  x,y,z
_cell_length_a                    22.9968
_cell_length_b                    8.6503
_cell_length_c                    27.5413
_cell_angle_alpha                 90.0000
_cell_angle_beta                  27.3230
_cell_angle_gamma                 90.0000
loop_
_atom_site_label
_atom_site_type_symbol
_atom_site_fract_x
_atom_site_fract_y
_atom_site_fract_z
_atom_site_U_iso_or_equiv
_atom_site_adp_type
_atom_site_occupancy
C1     C     0.45829   0.52628   0.12303   0.00000  Uiso   1.00
C2     C     0.40824   0.67495   0.13740   0.00000  Uiso   1.00
C3     C     0.35463   0.68809   0.13136   0.00000  Uiso   1.00
C4     C     0.31468   0.83422   0.14684   0.00000  Uiso   1.00
C5     C     0.23501   0.04556   0.16595   0.00000  Uiso   1.00
C6     C     0.59591   0.55845   0.03442   0.00000  Uiso   1.00
C7     C     0.70007   0.47362   0.94180   0.00000  Uiso   1.00
C8     C     0.81809   0.52167   0.87060   0.00000  Uiso   1.00
C9     C     0.02977   0.55207   0.72986   0.00000  Uiso   1.00
C10    C     0.38745   0.50729   0.22346   0.00000  Uiso   1.00
C11    C     0.31637   0.37943   0.28977   0.00000  Uiso   1.00
C12    C     0.25891   0.38439   0.37772   0.00000  Uiso   1.00
C13    C     0.14692   0.33536   0.53050   0.00000  Uiso   1.00
C14    C     0.48268   0.76243   0.16129   0.00000  Uiso   1.00
C15    C     0.42150   0.80321   0.15818   0.00000  Uiso   1.00
C16    C     0.38161   0.94936   0.17368   0.00000  Uiso   1.00
C17    C     0.32794   0.96272   0.16766   0.00000  Uiso   1.00
C18    C     0.60916   0.68670   0.05520   0.00000  Uiso   1.00
C19    C     0.72705   0.73489   0.98413   0.00000  Uiso   1.00
C20    C     0.83137   0.65017   0.89141   0.00000  Uiso   1.00
C21    C     0.40069   0.63555   0.24425   0.00000  Uiso   1.00
C22    C     0.34335   0.64071   0.33210   0.00000  Uiso   1.00
C23    C     0.27218   0.51289   0.39854   0.00000  Uiso   1.00
H24    H     0.44798   0.42642   0.10684   0.00000  Uiso   1.00
H25    H     0.34440   0.58881   0.11526   0.00000  Uiso   1.00
H26    H     0.68979   0.37436   0.92574   0.00000  Uiso   1.00
H27    H     0.30614   0.28020   0.27367   0.00000  Uiso   1.00
H28    H     0.23545   0.82541   0.13372   0.00000  Uiso   1.00
H29    H     0.96370   0.37321   0.73413   0.00000  Uiso   1.00
H30    H     0.15471   0.17463   0.46779   0.00000  Uiso   1.00
H31    H     0.49300   0.86229   0.17746   0.00000  Uiso   1.00
H32    H     0.39188   0.04860   0.18976   0.00000  Uiso   1.00
H33    H     0.73727   0.83414   0.00024   0.00000  Uiso   1.00
H34    H     0.35362   0.73998   0.34816   0.00000  Uiso   1.00
H35    H     0.27399   0.19860   0.19418   0.00000  Uiso   1.00
H36    H     0.00225   0.74638   0.79458   0.00000  Uiso   1.00
H37    H     0.19325   0.54782   0.52825   0.00000  Uiso   1.00
O38    O     0.18743   0.12671   0.17073   0.00000  Uiso   1.00
O39    O     0.14286   0.53341   0.64649   0.00000  Uiso   1.00
O40    O     0.08148   0.27289   0.60903   0.00000  Uiso   1.00
N41    N     0.25837   0.88767   0.14629   0.00000  Uiso   1.00
N42    N     0.93925   0.46490   0.77268   0.00000  Uiso   1.00
N43    N     0.18293   0.27923   0.45857   0.00000  Uiso   1.00
N44    N     0.27911   0.08847   0.17882   0.00000  Uiso   1.00
N45    N     0.95999   0.66570   0.80521   0.00000  Uiso   1.00
N46    N     0.20367   0.48004   0.49111   0.00000  Uiso   1.00
C47    C     0.95829   0.02628   0.12303   0.00000  Uiso   1.00
C48    C     0.90824   0.17495   0.13740   0.00000  Uiso   1.00
C49    C     0.85463   0.18809   0.13136   0.00000  Uiso   1.00
C50    C     0.81468   0.33422   0.14684   0.00000  Uiso   1.00
C51    C     0.73501   0.54556   0.16595   0.00000  Uiso   1.00
C52    C     0.09591   0.05845   0.03442   0.00000  Uiso   1.00
C53    C     0.20007   0.97362   0.94180   0.00000  Uiso   1.00
C54    C     0.31809   0.02167   0.87060   0.00000  Uiso   1.00
C55    C     0.52977   0.05207   0.72986   0.00000  Uiso   1.00
C56    C     0.88745   0.00729   0.22346   0.00000  Uiso   1.00
C57    C     0.81637   0.87943   0.28977   0.00000  Uiso   1.00
C58    C     0.75891   0.88439   0.37772   0.00000  Uiso   1.00
C59    C     0.64692   0.83536   0.53050   0.00000  Uiso   1.00
C60    C     0.98268   0.26243   0.16129   0.00000  Uiso   1.00
C61    C     0.92150   0.30321   0.15818   0.00000  Uiso   1.00
C62    C     0.88161   0.44936   0.17368   0.00000  Uiso   1.00
C63    C     0.82794   0.46272   0.16766   0.00000  Uiso   1.00
C64    C     0.10916   0.18670   0.05520   0.00000  Uiso   1.00
C65    C     0.22705   0.23489   0.98413   0.00000  Uiso   1.00
C66    C     0.33137   0.15017   0.89141   0.00000  Uiso   1.00
C67    C     0.90069   0.13555   0.24425   0.00000  Uiso   1.00
C68    C     0.84335   0.14071   0.33210   0.00000  Uiso   1.00
C69    C     0.77218   0.01289   0.39854   0.00000  Uiso   1.00
H70    H     0.94798   0.92642   0.10684   0.00000  Uiso   1.00
H71    H     0.84440   0.08881   0.11526   0.00000  Uiso   1.00
H72    H     0.18979   0.87436   0.92574   0.00000  Uiso   1.00
H73    H     0.80614   0.78020   0.27367   0.00000  Uiso   1.00
H74    H     0.73545   0.32541   0.13372   0.00000  Uiso   1.00
H75    H     0.46370   0.87321   0.73413   0.00000  Uiso   1.00
H76    H     0.65471   0.67463   0.46779   0.00000  Uiso   1.00
H77    H     0.99300   0.36229   0.17746   0.00000  Uiso   1.00
H78    H     0.89188   0.54860   0.18976   0.00000  Uiso   1.00
H79    H     0.23727   0.33414   0.00024   0.00000  Uiso   1.00
H80    H     0.85362   0.23998   0.34816   0.00000  Uiso   1.00
H81    H     0.77399   0.69860   0.19418   0.00000  Uiso   1.00
H82    H     0.50225   0.24638   0.79458   0.00000  Uiso   1.00
H83    H     0.69325   0.04782   0.52825   0.00000  Uiso   1.00
O84    O     0.68743   0.62671   0.17073   0.00000  Uiso   1.00
O85    O     0.64286   0.03341   0.64649   0.00000  Uiso   1.00
O86    O     0.58148   0.77289   0.60903   0.00000  Uiso   1.00
N87    N     0.75837   0.38767   0.14629   0.00000  Uiso   1.00
N88    N     0.43925   0.96490   0.77268   0.00000  Uiso   1.00
N89    N     0.68293   0.77923   0.45857   0.00000  Uiso   1.00
N90    N     0.77911   0.58847   0.17882   0.00000  Uiso   1.00
N91    N     0.45999   0.16570   0.80521   0.00000  Uiso   1.00
N92    N     0.70367   0.98004   0.49111   0.00000  Uiso   1.00
C93    C     0.54171   0.52628   0.87697   0.00000  Uiso   1.00
C94    C     0.59176   0.67495   0.86260   0.00000  Uiso   1.00
C95    C     0.64537   0.68809   0.86864   0.00000  Uiso   1.00
C96    C     0.68532   0.83422   0.85316   0.00000  Uiso   1.00
C97    C     0.76499   0.04556   0.83405   0.00000  Uiso   1.00
C98    C     0.40409   0.55845   0.96558   0.00000  Uiso   1.00
C99    C     0.29993   0.47362   0.05820   0.00000  Uiso   1.00
C100   C     0.18191   0.52167   0.12940   0.00000  Uiso   1.00
C101   C     0.97023   0.55207   0.27014   0.00000  Uiso   1.00
C102   C     0.61255   0.50729   0.77654   0.00000  Uiso   1.00
C103   C     0.68363   0.37943   0.71023   0.00000  Uiso   1.00
C104   C     0.74109   0.38439   0.62228   0.00000  Uiso   1.00
C105   C     0.85308   0.33536   0.46950   0.00000  Uiso   1.00
C106   C     0.51732   0.76243   0.83871   0.00000  Uiso   1.00
C107   C     0.57850   0.80321   0.84182   0.00000  Uiso   1.00
C108   C     0.61839   0.94936   0.82632   0.00000  Uiso   1.00
C109   C     0.67206   0.96272   0.83234   0.00000  Uiso   1.00
C110   C     0.39084   0.68670   0.94480   0.00000  Uiso   1.00
C111   C     0.27295   0.73489   0.01587   0.00000  Uiso   1.00
C112   C     0.16863   0.65017   0.10859   0.00000  Uiso   1.00
C113   C     0.59931   0.63555   0.75575   0.00000  Uiso   1.00
C114   C     0.65665   0.64071   0.66790   0.00000  Uiso   1.00
C115   C     0.72782   0.51289   0.60146   0.00000  Uiso   1.00
H116   H     0.55202   0.42642   0.89316   0.00000  Uiso   1.00
H117   H     0.65560   0.58881   0.88474   0.00000  Uiso   1.00
H118   H     0.31021   0.37436   0.07426   0.00000  Uiso   1.00
H119   H     0.69386   0.28020   0.72633   0.00000  Uiso   1.00
H120   H     0.76455   0.82541   0.86628   0.00000  Uiso   1.00
H121   H     0.03630   0.37321   0.26587   0.00000  Uiso   1.00
H122   H     0.84529   0.17463   0.53221   0.00000  Uiso   1.00
H123   H     0.50700   0.86229   0.82254   0.00000  Uiso   1.00
H124   H     0.60812   0.04860   0.81024   0.00000  Uiso   1.00
H125   H     0.26273   0.83414   0.99976   0.00000  Uiso   1.00
H126   H     0.64638   0.73998   0.65184   0.00000  Uiso   1.00
H127   H     0.72601   0.19860   0.80582   0.00000  Uiso   1.00
H128   H     0.99775   0.74638   0.20542   0.00000  Uiso   1.00
H129   H     0.80675   0.54782   0.47175   0.00000  Uiso   1.00
O130   O     0.81257   0.12671   0.82927   0.00000  Uiso   1.00
O131   O     0.85714   0.53341   0.35351   0.00000  Uiso   1.00
O132   O     0.91852   0.27289   0.39097   0.00000  Uiso   1.00
N133   N     0.74163   0.88767   0.85371   0.00000  Uiso   1.00
N134   N     0.06075   0.46490   0.22732   0.00000  Uiso   1.00
N135   N     0.81707   0.27923   0.54143   0.00000  Uiso   1.00
N136   N     0.72089   0.08847   0.82118   0.00000  Uiso   1.00
N137   N     0.04001   0.66570   0.19479   0.00000  Uiso   1.00
N138   N     0.79633   0.48004   0.50889   0.00000  Uiso   1.00
C139   C     0.04171   0.02628   0.87697   0.00000  Uiso   1.00
C140   C     0.09176   0.17495   0.86260   0.00000  Uiso   1.00
C141   C     0.14537   0.18809   0.86864   0.00000  Uiso   1.00
C142   C     0.18532   0.33422   0.85316   0.00000  Uiso   1.00
C143   C     0.26499   0.54556   0.83405   0.00000  Uiso   1.00
C144   C     0.90409   0.05845   0.96558   0.00000  Uiso   1.00
C145   C     0.79993   0.97362   0.05820   0.00000  Uiso   1.00
C146   C     0.68191   0.02167   0.12940   0.00000  Uiso   1.00
C147   C     0.47023   0.05207   0.27014   0.00000  Uiso   1.00
C148   C     0.11255   0.00729   0.77654   0.00000  Uiso   1.00
C149   C     0.18363   0.87943   0.71023   0.00000  Uiso   1.00
C150   C     0.24109   0.88439   0.62228   0.00000  Uiso   1.00
C151   C     0.35308   0.83536   0.46950   0.00000  Uiso   1.00
C152   C     0.01732   0.26243   0.83871   0.00000  Uiso   1.00
C153   C     0.07850   0.30321   0.84182   0.00000  Uiso   1.00
C154   C     0.11839   0.44936   0.82632   0.00000  Uiso   1.00
C155   C     0.17206   0.46272   0.83234   0.00000  Uiso   1.00
C156   C     0.89084   0.18670   0.94480   0.00000  Uiso   1.00
C157   C     0.77295   0.23489   0.01587   0.00000  Uiso   1.00
C158   C     0.66863   0.15017   0.10859   0.00000  Uiso   1.00
C159   C     0.09931   0.13555   0.75575   0.00000  Uiso   1.00
C160   C     0.15665   0.14071   0.66790   0.00000  Uiso   1.00
C161   C     0.22782   0.01289   0.60146   0.00000  Uiso   1.00
H162   H     0.05202   0.92642   0.89316   0.00000  Uiso   1.00
H163   H     0.15560   0.08881   0.88474   0.00000  Uiso   1.00
H164   H     0.81021   0.87436   0.07426   0.00000  Uiso   1.00
H165   H     0.19386   0.78020   0.72633   0.00000  Uiso   1.00
H166   H     0.26455   0.32541   0.86628   0.00000  Uiso   1.00
H167   H     0.53630   0.87321   0.26587   0.00000  Uiso   1.00
H168   H     0.34529   0.67463   0.53221   0.00000  Uiso   1.00
H169   H     0.00700   0.36229   0.82254   0.00000  Uiso   1.00
H170   H     0.10812   0.54860   0.81024   0.00000  Uiso   1.00
H171   H     0.76273   0.33414   0.99976   0.00000  Uiso   1.00
H172   H     0.14638   0.23998   0.65184   0.00000  Uiso   1.00
H173   H     0.22601   0.69860   0.80582   0.00000  Uiso   1.00
H174   H     0.49775   0.24638   0.20542   0.00000  Uiso   1.00
H175   H     0.30675   0.04782   0.47175   0.00000  Uiso   1.00
O176   O     0.31257   0.62671   0.82927   0.00000  Uiso   1.00
O177   O     0.35714   0.03341   0.35351   0.00000  Uiso   1.00
O178   O     0.41852   0.77289   0.39097   0.00000  Uiso   1.00
N179   N     0.24163   0.38767   0.85371   0.00000  Uiso   1.00
N180   N     0.56075   0.96490   0.22732   0.00000  Uiso   1.00
N181   N     0.31707   0.77923   0.54143   0.00000  Uiso   1.00
N182   N     0.22089   0.58847   0.82118   0.00000  Uiso   1.00
N183   N     0.54001   0.16570   0.19479   0.00000  Uiso   1.00
N184   N     0.29633   0.98004   0.50889   0.00000  Uiso   1.00
