data_job_05965
_audit_creation_date              2018-12-19
_audit_creation_method            'Materials Studio'
_symmetry_space_group_name_H-M    'P1'
_symmetry_Int_Tables_number       1
_symmetry_cell_setting            triclinic
loop_
_symmetry_equiv_pos_as_xyz
  x,y,z
_cell_length_a                    14.7475
_cell_length_b                    16.4894
_cell_length_c                    16.6788
_cell_angle_alpha                 68.2190
_cell_angle_beta                  74.2824
_cell_angle_gamma                 105.5959
loop_
_atom_site_label
_atom_site_type_symbol
_atom_site_fract_x
_atom_site_fract_y
_atom_site_fract_z
_atom_site_U_iso_or_equiv
_atom_site_adp_type
_atom_site_occupancy
C1     C     0.37315   0.50907   0.12257   0.00000  Uiso   1.00
C2     C     0.29769   0.41932   0.13093   0.00000  Uiso   1.00
C3     C     0.32442   0.36281   0.09293   0.00000  Uiso   1.00
C4     C     0.24398   0.28371   0.10839   0.00000  Uiso   1.00
C5     C     0.14254   0.14768   0.11347   0.00000  Uiso   1.00
C6     C     0.34093   0.58924   0.07803   0.00000  Uiso   1.00
C7     C     0.40402   0.67560   0.99556   0.00000  Uiso   1.00
C8     C     0.35999   0.73954   0.96650   0.00000  Uiso   1.00
C9     C     0.32570   0.86734   0.88949   0.00000  Uiso   1.00
C10    C     0.35037   0.49125   0.22388   0.00000  Uiso   1.00
C11    C     0.42140   0.49525   0.26404   0.00000  Uiso   1.00
C12    C     0.38532   0.47672   0.35777   0.00000  Uiso   1.00
C13    C     0.36569   0.45238   0.50722   0.00000  Uiso   1.00
C14    C     0.18278   0.46908   0.21762   0.00000  Uiso   1.00
C15    C     0.19429   0.39760   0.18255   0.00000  Uiso   1.00
C16    C     0.11379   0.31856   0.19808   0.00000  Uiso   1.00
C17    C     0.14039   0.26194   0.16011   0.00000  Uiso   1.00
C18    C     0.23753   0.56752   0.12965   0.00000  Uiso   1.00
C19    C     0.19340   0.63135   0.10071   0.00000  Uiso   1.00
C20    C     0.25640   0.71778   0.01821   0.00000  Uiso   1.00
C21    C     0.24697   0.46953   0.27551   0.00000  Uiso   1.00
C22    C     0.21077   0.45100   0.36919   0.00000  Uiso   1.00
C23    C     0.28173   0.45496   0.40948   0.00000  Uiso   1.00
H24    H     0.45366   0.52599   0.08238   0.00000  Uiso   1.00
H25    H     0.40445   0.37965   0.05297   0.00000  Uiso   1.00
H26    H     0.48404   0.69239   0.95563   0.00000  Uiso   1.00
H27    H     0.50141   0.51206   0.22406   0.00000  Uiso   1.00
H28    H     0.30429   0.20784   0.04310   0.00000  Uiso   1.00
H29    H     0.47213   0.86729   0.83787   0.00000  Uiso   1.00
H30    H     0.50877   0.48704   0.40392   0.00000  Uiso   1.00
H31    H     0.10227   0.45217   0.25781   0.00000  Uiso   1.00
H32    H     0.03378   0.30177   0.23803   0.00000  Uiso   1.00
H33    H     0.11337   0.61452   0.14068   0.00000  Uiso   1.00
H34    H     0.13075   0.43419   0.40912   0.00000  Uiso   1.00
H35    H     0.00344   0.14464   0.19330   0.00000  Uiso   1.00
H36    H     0.17128   0.80409   0.98806   0.00000  Uiso   1.00
H37    H     0.20792   0.42384   0.55412   0.00000  Uiso   1.00
O38    O     0.11515   0.07865   0.10200   0.00000  Uiso   1.00
O39    O     0.33535   0.94383   0.83274   0.00000  Uiso   1.00
O40    O     0.38342   0.44495   0.57539   0.00000  Uiso   1.00
N41    N     0.24289   0.21359   0.08119   0.00000  Uiso   1.00
N42    N     0.39980   0.83013   0.88929   0.00000  Uiso   1.00
N43    N     0.43406   0.47466   0.41849   0.00000  Uiso   1.00
N44    N     0.08100   0.17958   0.16201   0.00000  Uiso   1.00
N45    N     0.23791   0.79612   0.97011   0.00000  Uiso   1.00
N46    N     0.27217   0.44065   0.49932   0.00000  Uiso   1.00
C47    C     0.83613   0.35748   0.52083   0.00000  Uiso   1.00
C48    C     0.84522   0.43741   0.43116   0.00000  Uiso   1.00
C49    C     0.92337   0.52948   0.37845   0.00000  Uiso   1.00
C50    C     0.91780   0.59211   0.29870   0.00000  Uiso   1.00
C51    C     0.94419   0.72057   0.16344   0.00000  Uiso   1.00
C52    C     0.73017   0.32561   0.59729   0.00000  Uiso   1.00
C53    C     0.71159   0.32367   0.68427   0.00000  Uiso   1.00
C54    C     0.60917   0.29217   0.74439   0.00000  Uiso   1.00
C55    C     0.45695   0.24699   0.86708   0.00000  Uiso   1.00
C56    C     0.83097   0.27345   0.50125   0.00000  Uiso   1.00
C57    C     0.89712   0.22764   0.50749   0.00000  Uiso   1.00
C58    C     0.87954   0.15221   0.48676   0.00000  Uiso   1.00
C59    C     0.88382   0.02605   0.46033   0.00000  Uiso   1.00
C60    C     0.68727   0.30497   0.47295   0.00000  Uiso   1.00
C61    C     0.76437   0.40888   0.40515   0.00000  Uiso   1.00
C62    C     0.75868   0.47139   0.32547   0.00000  Uiso   1.00
C63    C     0.83681   0.56354   0.27265   0.00000  Uiso   1.00
C64    C     0.64932   0.29709   0.57129   0.00000  Uiso   1.00
C65    C     0.54691   0.26558   0.63129   0.00000  Uiso   1.00
C66    C     0.52817   0.26360   0.71834   0.00000  Uiso   1.00
C67    C     0.75012   0.24493   0.47524   0.00000  Uiso   1.00
C68    C     0.73243   0.16955   0.45451   0.00000  Uiso   1.00
C69    C     0.79855   0.12364   0.46071   0.00000  Uiso   1.00
H70    H     0.89907   0.37969   0.54109   0.00000  Uiso   1.00
H71    H     0.98592   0.55153   0.39860   0.00000  Uiso   1.00
H72    H     0.77418   0.34574   0.70438   0.00000  Uiso   1.00
H73    H     0.95968   0.24973   0.52762   0.00000  Uiso   1.00
H74    H     0.04654   0.72949   0.22918   0.00000  Uiso   1.00
H75    H     0.60006   0.29553   0.87394   0.00000  Uiso   1.00
H76    H     0.99122   0.09308   0.50122   0.00000  Uiso   1.00
H77    H     0.62432   0.28277   0.45271   0.00000  Uiso   1.00
H78    H     0.69610   0.44930   0.30536   0.00000  Uiso   1.00
H79    H     0.48436   0.24351   0.61115   0.00000  Uiso   1.00
H80    H     0.66986   0.14750   0.43438   0.00000  Uiso   1.00
H81    H     0.81131   0.64651   0.15350   0.00000  Uiso   1.00
H82    H     0.36483   0.21255   0.79827   0.00000  Uiso   1.00
H83    H     0.75599   0.01010   0.42554   0.00000  Uiso   1.00
O84    O     0.98108   0.79931   0.09603   0.00000  Uiso   1.00
O85    O     0.39532   0.22996   0.94194   0.00000  Uiso   1.00
O86    O     0.90852   0.96435   0.45292   0.00000  Uiso   1.00
N87    N     0.98134   0.68710   0.23158   0.00000  Uiso   1.00
N88    N     0.56391   0.28139   0.83439   0.00000  Uiso   1.00
N89    N     0.92960   0.09210   0.48594   0.00000  Uiso   1.00
N90    N     0.85476   0.64245   0.19086   0.00000  Uiso   1.00
N91    N     0.43733   0.23674   0.79367   0.00000  Uiso   1.00
N92    N     0.80302   0.04745   0.44522   0.00000  Uiso   1.00
C93    C     0.51093   0.12951   0.36022   0.00000  Uiso   1.00
C94    C     0.44536   0.14225   0.43884   0.00000  Uiso   1.00
C95    C     0.43644   0.10457   0.53152   0.00000  Uiso   1.00
C96    C     0.37256   0.12435   0.59273   0.00000  Uiso   1.00
C97    C     0.27877   0.13566   0.71946   0.00000  Uiso   1.00
C98    C     0.43713   0.08590   0.32397   0.00000  Uiso   1.00
C99    C     0.42131   0.00085   0.32005   0.00000  Uiso   1.00
C100   C     0.35052   0.97321   0.28455   0.00000  Uiso   1.00
C101   C     0.24402   0.89706   0.23287   0.00000  Uiso   1.00
C102   C     0.58340   0.23038   0.27941   0.00000  Uiso   1.00
C103   C     0.69057   0.26679   0.23801   0.00000  Uiso   1.00
C104   C     0.74293   0.36078   0.16497   0.00000  Uiso   1.00
C105   C     0.86353   0.50894   0.04411   0.00000  Uiso   1.00
C106   C     0.41334   0.23167   0.30412   0.00000  Uiso   1.00
C107   C     0.39235   0.19774   0.40837   0.00000  Uiso   1.00
C108   C     0.32847   0.21759   0.46946   0.00000  Uiso   1.00
C109   C     0.31946   0.17994   0.56221   0.00000  Uiso   1.00
C110   C     0.38413   0.14139   0.29350   0.00000  Uiso   1.00
C111   C     0.31334   0.11387   0.25799   0.00000  Uiso   1.00
C112   C     0.29742   0.02879   0.25402   0.00000  Uiso   1.00
C113   C     0.53040   0.28587   0.24894   0.00000  Uiso   1.00
C114   C     0.58260   0.37981   0.17595   0.00000  Uiso   1.00
C115   C     0.68983   0.41636   0.13445   0.00000  Uiso   1.00
H116   H     0.55219   0.08631   0.38394   0.00000  Uiso   1.00
H117   H     0.47747   0.06162   0.55507   0.00000  Uiso   1.00
H118   H     0.46235   0.95793   0.34362   0.00000  Uiso   1.00
H119   H     0.73156   0.22383   0.26160   0.00000  Uiso   1.00
H120   H     0.37122   0.05869   0.73138   0.00000  Uiso   1.00
H121   H     0.33937   0.84006   0.28550   0.00000  Uiso   1.00
H122   H     0.90706   0.40076   0.11254   0.00000  Uiso   1.00
H123   H     0.37207   0.27487   0.28040   0.00000  Uiso   1.00
H124   H     0.28746   0.26053   0.44586   0.00000  Uiso   1.00
H125   H     0.27234   0.15683   0.23441   0.00000  Uiso   1.00
H126   H     0.54156   0.42273   0.15239   0.00000  Uiso   1.00
H127   H     0.21700   0.22013   0.64274   0.00000  Uiso   1.00
H128   H     0.18515   0.00150   0.19686   0.00000  Uiso   1.00
H129   H     0.75284   0.56220   0.02390   0.00000  Uiso   1.00
O130   O     0.24167   0.12655   0.79778   0.00000  Uiso   1.00
O131   O     0.19991   0.83973   0.21279   0.00000  Uiso   1.00
O132   O     0.94470   0.57535   0.98587   0.00000  Uiso   1.00
N133   N     0.34655   0.09867   0.68781   0.00000  Uiso   1.00
N134   N     0.31676   0.89426   0.27095   0.00000  Uiso   1.00
N135   N     0.84750   0.41846   0.10923   0.00000  Uiso   1.00
N136   N     0.26356   0.18554   0.64011   0.00000  Uiso   1.00
N137   N     0.23378   0.98112   0.22325   0.00000  Uiso   1.00
N138   N     0.76452   0.50532   0.06153   0.00000  Uiso   1.00
C139   C     0.62685   0.49093   0.87743   0.00000  Uiso   1.00
C140   C     0.70231   0.58068   0.86907   0.00000  Uiso   1.00
C141   C     0.67558   0.63719   0.90707   0.00000  Uiso   1.00
C142   C     0.75602   0.71629   0.89161   0.00000  Uiso   1.00
C143   C     0.85746   0.85232   0.88653   0.00000  Uiso   1.00
C144   C     0.65907   0.41076   0.92197   0.00000  Uiso   1.00
C145   C     0.59598   0.32440   0.00444   0.00000  Uiso   1.00
C146   C     0.64001   0.26046   0.03350   0.00000  Uiso   1.00
C147   C     0.67430   0.13266   0.11051   0.00000  Uiso   1.00
C148   C     0.64963   0.50875   0.77612   0.00000  Uiso   1.00
C149   C     0.57860   0.50475   0.73596   0.00000  Uiso   1.00
C150   C     0.61468   0.52328   0.64223   0.00000  Uiso   1.00
C151   C     0.63431   0.54762   0.49278   0.00000  Uiso   1.00
C152   C     0.81722   0.53092   0.78238   0.00000  Uiso   1.00
C153   C     0.80571   0.60240   0.81745   0.00000  Uiso   1.00
C154   C     0.88621   0.68144   0.80192   0.00000  Uiso   1.00
C155   C     0.85961   0.73806   0.83989   0.00000  Uiso   1.00
C156   C     0.76247   0.43248   0.87035   0.00000  Uiso   1.00
C157   C     0.80661   0.36865   0.89929   0.00000  Uiso   1.00
C158   C     0.74360   0.28222   0.98179   0.00000  Uiso   1.00
C159   C     0.75303   0.53047   0.72449   0.00000  Uiso   1.00
C160   C     0.78923   0.54900   0.63081   0.00000  Uiso   1.00
C161   C     0.71827   0.54504   0.59052   0.00000  Uiso   1.00
H162   H     0.54634   0.47401   0.91762   0.00000  Uiso   1.00
H163   H     0.59555   0.62035   0.94703   0.00000  Uiso   1.00
H164   H     0.51596   0.30761   0.04437   0.00000  Uiso   1.00
H165   H     0.49859   0.48794   0.77594   0.00000  Uiso   1.00
H166   H     0.69571   0.79216   0.95689   0.00000  Uiso   1.00
H167   H     0.52787   0.13271   0.16213   0.00000  Uiso   1.00
H168   H     0.49123   0.51296   0.59608   0.00000  Uiso   1.00
H169   H     0.89773   0.54783   0.74219   0.00000  Uiso   1.00
H170   H     0.96622   0.69823   0.76197   0.00000  Uiso   1.00
H171   H     0.88663   0.38548   0.85932   0.00000  Uiso   1.00
H172   H     0.86925   0.56581   0.59088   0.00000  Uiso   1.00
H173   H     0.99656   0.85536   0.80670   0.00000  Uiso   1.00
H174   H     0.82872   0.19591   0.01194   0.00000  Uiso   1.00
H175   H     0.79209   0.57616   0.44588   0.00000  Uiso   1.00
O176   O     0.88485   0.92135   0.89800   0.00000  Uiso   1.00
O177   O     0.66465   0.05617   0.16726   0.00000  Uiso   1.00
O178   O     0.61658   0.55505   0.42461   0.00000  Uiso   1.00
N179   N     0.75711   0.78641   0.91881   0.00000  Uiso   1.00
N180   N     0.60020   0.16987   0.11071   0.00000  Uiso   1.00
N181   N     0.56594   0.52534   0.58151   0.00000  Uiso   1.00
N182   N     0.91900   0.82042   0.83799   0.00000  Uiso   1.00
N183   N     0.76209   0.20388   0.02989   0.00000  Uiso   1.00
N184   N     0.72783   0.55935   0.50068   0.00000  Uiso   1.00
C185   C     0.16387   0.64252   0.47917   0.00000  Uiso   1.00
C186   C     0.15478   0.56259   0.56884   0.00000  Uiso   1.00
C187   C     0.07663   0.47052   0.62155   0.00000  Uiso   1.00
C188   C     0.08220   0.40789   0.70130   0.00000  Uiso   1.00
C189   C     0.05581   0.27943   0.83656   0.00000  Uiso   1.00
C190   C     0.26983   0.67439   0.40271   0.00000  Uiso   1.00
C191   C     0.28841   0.67633   0.31573   0.00000  Uiso   1.00
C192   C     0.39083   0.70783   0.25561   0.00000  Uiso   1.00
C193   C     0.54305   0.75301   0.13292   0.00000  Uiso   1.00
C194   C     0.16903   0.72655   0.49875   0.00000  Uiso   1.00
C195   C     0.10288   0.77236   0.49251   0.00000  Uiso   1.00
C196   C     0.12046   0.84779   0.51324   0.00000  Uiso   1.00
C197   C     0.11618   0.97395   0.53967   0.00000  Uiso   1.00
C198   C     0.31273   0.69503   0.52705   0.00000  Uiso   1.00
C199   C     0.23563   0.59112   0.59485   0.00000  Uiso   1.00
C200   C     0.24132   0.52861   0.67453   0.00000  Uiso   1.00
C201   C     0.16319   0.43646   0.72735   0.00000  Uiso   1.00
C202   C     0.35068   0.70291   0.42871   0.00000  Uiso   1.00
C203   C     0.45309   0.73442   0.36871   0.00000  Uiso   1.00
C204   C     0.47183   0.73640   0.28166   0.00000  Uiso   1.00
C205   C     0.24988   0.75507   0.52476   0.00000  Uiso   1.00
C206   C     0.26757   0.83045   0.54549   0.00000  Uiso   1.00
C207   C     0.20145   0.87636   0.53929   0.00000  Uiso   1.00
H208   H     0.10093   0.62031   0.45891   0.00000  Uiso   1.00
H209   H     0.01408   0.44847   0.60140   0.00000  Uiso   1.00
H210   H     0.22582   0.65426   0.29562   0.00000  Uiso   1.00
H211   H     0.04032   0.75027   0.47238   0.00000  Uiso   1.00
H212   H     0.95346   0.27051   0.77082   0.00000  Uiso   1.00
H213   H     0.39994   0.70447   0.12606   0.00000  Uiso   1.00
H214   H     0.00878   0.90692   0.49878   0.00000  Uiso   1.00
H215   H     0.37568   0.71723   0.54729   0.00000  Uiso   1.00
H216   H     0.30390   0.55070   0.69464   0.00000  Uiso   1.00
H217   H     0.51564   0.75649   0.38885   0.00000  Uiso   1.00
H218   H     0.33014   0.85250   0.56562   0.00000  Uiso   1.00
H219   H     0.18869   0.35349   0.84650   0.00000  Uiso   1.00
H220   H     0.63517   0.78745   0.20172   0.00000  Uiso   1.00
H221   H     0.24401   0.98990   0.57446   0.00000  Uiso   1.00
O222   O     0.01892   0.20069   0.90397   0.00000  Uiso   1.00
O223   O     0.60468   0.77004   0.05806   0.00000  Uiso   1.00
O224   O     0.09148   0.03565   0.54708   0.00000  Uiso   1.00
N225   N     0.01866   0.31290   0.76842   0.00000  Uiso   1.00
N226   N     0.43609   0.71861   0.16561   0.00000  Uiso   1.00
N227   N     0.07040   0.90790   0.51406   0.00000  Uiso   1.00
N228   N     0.14524   0.35755   0.80914   0.00000  Uiso   1.00
N229   N     0.56267   0.76326   0.20633   0.00000  Uiso   1.00
N230   N     0.19698   0.95255   0.55478   0.00000  Uiso   1.00
C231   C     0.48907   0.87049   0.63978   0.00000  Uiso   1.00
C232   C     0.55464   0.85775   0.56116   0.00000  Uiso   1.00
C233   C     0.56356   0.89543   0.46848   0.00000  Uiso   1.00
C234   C     0.62744   0.87565   0.40727   0.00000  Uiso   1.00
C235   C     0.72123   0.86434   0.28054   0.00000  Uiso   1.00
C236   C     0.56287   0.91410   0.67603   0.00000  Uiso   1.00
C237   C     0.57869   0.99915   0.67995   0.00000  Uiso   1.00
C238   C     0.64948   0.02679   0.71545   0.00000  Uiso   1.00
C239   C     0.75598   0.10294   0.76713   0.00000  Uiso   1.00
C240   C     0.41660   0.76963   0.72059   0.00000  Uiso   1.00
C241   C     0.30943   0.73321   0.76199   0.00000  Uiso   1.00
C242   C     0.25707   0.63922   0.83503   0.00000  Uiso   1.00
C243   C     0.13647   0.49106   0.95589   0.00000  Uiso   1.00
C244   C     0.58666   0.76833   0.69588   0.00000  Uiso   1.00
C245   C     0.60765   0.80226   0.59163   0.00000  Uiso   1.00
C246   C     0.67153   0.78241   0.53054   0.00000  Uiso   1.00
C247   C     0.68054   0.82006   0.43779   0.00000  Uiso   1.00
C248   C     0.61587   0.85861   0.70650   0.00000  Uiso   1.00
C249   C     0.68666   0.88613   0.74201   0.00000  Uiso   1.00
C250   C     0.70259   0.97121   0.74598   0.00000  Uiso   1.00
C251   C     0.46960   0.71413   0.75106   0.00000  Uiso   1.00
C252   C     0.41740   0.62019   0.82405   0.00000  Uiso   1.00
C253   C     0.31017   0.58364   0.86555   0.00000  Uiso   1.00
H254   H     0.44781   0.91369   0.61606   0.00000  Uiso   1.00
H255   H     0.52253   0.93838   0.44493   0.00000  Uiso   1.00
H256   H     0.53765   0.04207   0.65638   0.00000  Uiso   1.00
H257   H     0.26844   0.77617   0.73840   0.00000  Uiso   1.00
H258   H     0.62878   0.94131   0.26862   0.00000  Uiso   1.00
H259   H     0.66063   0.15994   0.71450   0.00000  Uiso   1.00
H260   H     0.09294   0.59924   0.88746   0.00000  Uiso   1.00
H261   H     0.62793   0.72513   0.71960   0.00000  Uiso   1.00
H262   H     0.71254   0.73947   0.55414   0.00000  Uiso   1.00
H263   H     0.72766   0.84317   0.76559   0.00000  Uiso   1.00
H264   H     0.45844   0.57727   0.84761   0.00000  Uiso   1.00
H265   H     0.78300   0.77987   0.35726   0.00000  Uiso   1.00
H266   H     0.81485   0.99850   0.80314   0.00000  Uiso   1.00
H267   H     0.24716   0.43780   0.97610   0.00000  Uiso   1.00
O268   O     0.75833   0.87345   0.20222   0.00000  Uiso   1.00
O269   O     0.80009   0.16027   0.78721   0.00000  Uiso   1.00
O270   O     0.05530   0.42465   0.01413   0.00000  Uiso   1.00
N271   N     0.65345   0.90133   0.31219   0.00000  Uiso   1.00
N272   N     0.68324   0.10574   0.72905   0.00000  Uiso   1.00
N273   N     0.15250   0.58154   0.89077   0.00000  Uiso   1.00
N274   N     0.73644   0.81446   0.35989   0.00000  Uiso   1.00
N275   N     0.76622   0.01888   0.77675   0.00000  Uiso   1.00
N276   N     0.23548   0.49468   0.93847   0.00000  Uiso   1.00
