data_job_06855
_audit_creation_date              2018-12-19
_audit_creation_method            'Materials Studio'
_symmetry_space_group_name_H-M    'P1'
_symmetry_Int_Tables_number       1
_symmetry_cell_setting            triclinic
loop_
_symmetry_equiv_pos_as_xyz
  x,y,z
_cell_length_a                    19.5992
_cell_length_b                    19.8775
_cell_length_c                    24.5027
_cell_angle_alpha                 66.2102
_cell_angle_beta                  87.0911
_cell_angle_gamma                 114.7172
loop_
_atom_site_label
_atom_site_type_symbol
_atom_site_fract_x
_atom_site_fract_y
_atom_site_fract_z
_atom_site_U_iso_or_equiv
_atom_site_adp_type
_atom_site_occupancy
C1     C     0.35794   0.34791   0.70646   0.00000  Uiso   1.00
C2     C     0.39827   0.30503   0.68992   0.00000  Uiso   1.00
C3     C     0.36173   0.23255   0.68400   0.00000  Uiso   1.00
C4     C     0.40888   0.20327   0.66858   0.00000  Uiso   1.00
C5     C     0.45921   0.13031   0.64431   0.00000  Uiso   1.00
C6     C     0.38079   0.35364   0.76363   0.00000  Uiso   1.00
C7     C     0.32955   0.32204   0.81969   0.00000  Uiso   1.00
C8     C     0.36199   0.33369   0.86632   0.00000  Uiso   1.00
C9     C     0.38518   0.33625   0.95648   0.00000  Uiso   1.00
C10    C     0.39670   0.43775   0.65430   0.00000  Uiso   1.00
C11    C     0.35882   0.47688   0.61844   0.00000  Uiso   1.00
C12    C     0.40465   0.55935   0.57303   0.00000  Uiso   1.00
C13    C     0.45253   0.69251   0.49343   0.00000  Uiso   1.00
C14    C     0.50669   0.42479   0.68961   0.00000  Uiso   1.00
C15    C     0.47906   0.34679   0.68077   0.00000  Uiso   1.00
C16    C     0.52629   0.31761   0.66535   0.00000  Uiso   1.00
C17    C     0.48982   0.24510   0.65941   0.00000  Uiso   1.00
C18    C     0.46158   0.39539   0.75448   0.00000  Uiso   1.00
C19    C     0.49411   0.40710   0.80104   0.00000  Uiso   1.00
C20    C     0.44293   0.37552   0.85715   0.00000  Uiso   1.00
C21    C     0.47749   0.47951   0.64515   0.00000  Uiso   1.00
C22    C     0.52339   0.56194   0.59979   0.00000  Uiso   1.00
C23    C     0.48559   0.60119   0.56386   0.00000  Uiso   1.00
H24    H     0.29504   0.31540   0.71359   0.00000  Uiso   1.00
H25    H     0.29920   0.20025   0.69109   0.00000  Uiso   1.00
H26    H     0.26703   0.28973   0.82675   0.00000  Uiso   1.00
H27    H     0.29630   0.44454   0.62553   0.00000  Uiso   1.00
H28    H     0.33943   0.09098   0.66212   0.00000  Uiso   1.00
H29    H     0.27160   0.27968   0.94818   0.00000  Uiso   1.00
H30    H     0.33332   0.60614   0.52386   0.00000  Uiso   1.00
H31    H     0.56959   0.45731   0.68249   0.00000  Uiso   1.00
H32    H     0.58881   0.34994   0.65827   0.00000  Uiso   1.00
H33    H     0.55664   0.43942   0.79394   0.00000  Uiso   1.00
H34    H     0.58591   0.59424   0.59272   0.00000  Uiso   1.00
H35    H     0.57449   0.21247   0.63549   0.00000  Uiso   1.00
H36    H     0.50665   0.40118   0.92154   0.00000  Uiso   1.00
H37    H     0.56837   0.72764   0.49723   0.00000  Uiso   1.00
O38    O     0.46465   0.07852   0.63346   0.00000  Uiso   1.00
O39    O     0.37565   0.32611   0.00874   0.00000  Uiso   1.00
O40    O     0.45663   0.75441   0.45205   0.00000  Uiso   1.00
N41    N     0.39212   0.13432   0.65917   0.00000  Uiso   1.00
N42    N     0.32869   0.31073   0.92661   0.00000  Uiso   1.00
N43    N     0.38639   0.61595   0.52992   0.00000  Uiso   1.00
N44    N     0.51860   0.19969   0.64484   0.00000  Uiso   1.00
N45    N     0.45518   0.37611   0.91228   0.00000  Uiso   1.00
N46    N     0.51288   0.68133   0.51559   0.00000  Uiso   1.00
C47    C     0.04717   0.08282   0.71732   0.00000  Uiso   1.00
C48    C     0.96849   0.06160   0.70245   0.00000  Uiso   1.00
C49    C     0.92478   0.10119   0.70308   0.00000  Uiso   1.00
C50    C     0.85433   0.07254   0.68811   0.00000  Uiso   1.00
C51    C     0.73607   0.04958   0.66734   0.00000  Uiso   1.00
C52    C     0.03742   0.00174   0.76955   0.00000  Uiso   1.00
C53    C     0.05168   0.99102   0.82659   0.00000  Uiso   1.00
C54    C     0.03927   0.91199   0.86810   0.00000  Uiso   1.00
C55    C     0.02809   0.79613   0.95149   0.00000  Uiso   1.00
C56    C     0.10311   0.10200   0.66099   0.00000  Uiso   1.00
C57    C     0.17260   0.17557   0.62675   0.00000  Uiso   1.00
C58    C     0.21551   0.18094   0.57687   0.00000  Uiso   1.00
C59    C     0.30630   0.22074   0.49169   0.00000  Uiso   1.00
C60    C     0.99979   0.96154   0.68962   0.00000  Uiso   1.00
C61    C     0.94276   0.99572   0.68740   0.00000  Uiso   1.00
C62    C     0.87236   0.96700   0.67242   0.00000  Uiso   1.00
C63    C     0.82855   0.00655   0.67303   0.00000  Uiso   1.00
C64    C     0.01169   0.93587   0.75450   0.00000  Uiso   1.00
C65    C     0.99926   0.85684   0.79594   0.00000  Uiso   1.00
C66    C     0.01349   0.84600   0.85303   0.00000  Uiso   1.00
C67    C     0.07737   0.03613   0.64593   0.00000  Uiso   1.00
C68    C     0.12018   0.04138   0.59609   0.00000  Uiso   1.00
C69    C     0.18972   0.11495   0.56179   0.00000  Uiso   1.00
H70    H     0.06720   0.13410   0.72905   0.00000  Uiso   1.00
H71    H     0.94471   0.15216   0.71474   0.00000  Uiso   1.00
H72    H     0.07161   0.04202   0.83822   0.00000  Uiso   1.00
H73    H     0.19250   0.22653   0.63841   0.00000  Uiso   1.00
H74    H     0.79755   0.14311   0.69226   0.00000  Uiso   1.00
H75    H     0.06513   0.91087   0.95263   0.00000  Uiso   1.00
H76    H     0.32007   0.29996   0.53129   0.00000  Uiso   1.00
H77    H     0.97975   0.91025   0.67790   0.00000  Uiso   1.00
H78    H     0.85246   0.91602   0.66078   0.00000  Uiso   1.00
H79    H     0.97935   0.80588   0.78427   0.00000  Uiso   1.00
H80    H     0.10025   0.99039   0.58446   0.00000  Uiso   1.00
H81    H     0.72267   0.95145   0.64847   0.00000  Uiso   1.00
H82    H     0.99026   0.71921   0.90884   0.00000  Uiso   1.00
H83    H     0.24519   0.10830   0.48750   0.00000  Uiso   1.00
O84    O     0.67794   0.05510   0.66005   0.00000  Uiso   1.00
O85    O     0.02902   0.75041   0.00164   0.00000  Uiso   1.00
O86    O     0.36348   0.26090   0.44885   0.00000  Uiso   1.00
N87    N     0.79740   0.09722   0.68429   0.00000  Uiso   1.00
N88    N     0.04757   0.88009   0.92773   0.00000  Uiso   1.00
N89    N     0.28592   0.24385   0.53382   0.00000  Uiso   1.00
N90    N     0.75711   0.99409   0.66073   0.00000  Uiso   1.00
N91    N     0.00728   0.77696   0.90416   0.00000  Uiso   1.00
N92    N     0.24563   0.14072   0.51026   0.00000  Uiso   1.00
C93    C     0.08602   0.35675   0.73792   0.00000  Uiso   1.00
C94    C     0.15345   0.44369   0.71873   0.00000  Uiso   1.00
C95    C     0.22910   0.46196   0.72225   0.00000  Uiso   1.00
C96    C     0.28231   0.54543   0.70242   0.00000  Uiso   1.00
C97    C     0.39030   0.67085   0.67609   0.00000  Uiso   1.00
C98    C     0.02195   0.34335   0.78544   0.00000  Uiso   1.00
C99    C     0.98704   0.27724   0.84504   0.00000  Uiso   1.00
C100   C     0.92955   0.27624   0.88137   0.00000  Uiso   1.00
C101   C     0.83335   0.24585   0.95859   0.00000  Uiso   1.00
C102   C     0.05522   0.36254   0.68117   0.00000  Uiso   1.00
C103   C     0.04827   0.31255   0.65311   0.00000  Uiso   1.00
C104   C     0.01877   0.32769   0.60165   0.00000  Uiso   1.00
C105   C     0.97423   0.32709   0.51697   0.00000  Uiso   1.00
C106   C     0.04597   0.47250   0.69645   0.00000  Uiso   1.00
C107   C     0.13169   0.50656   0.69621   0.00000  Uiso   1.00
C108   C     0.18479   0.59003   0.67637   0.00000  Uiso   1.00
C109   C     0.26052   0.60841   0.67986   0.00000  Uiso   1.00
C110   C     0.00020   0.40622   0.76292   0.00000  Uiso   1.00
C111   C     0.94274   0.40531   0.79917   0.00000  Uiso   1.00
C112   C     0.90775   0.33923   0.85881   0.00000  Uiso   1.00
C113   C     0.03347   0.42541   0.65865   0.00000  Uiso   1.00
C114   C     0.00397   0.44062   0.60723   0.00000  Uiso   1.00
C115   C     0.99697   0.39067   0.57909   0.00000  Uiso   1.00
H116   H     0.10296   0.30780   0.75545   0.00000  Uiso   1.00
H117   H     0.24591   0.41328   0.73969   0.00000  Uiso   1.00
H118   H     0.00389   0.22860   0.86246   0.00000  Uiso   1.00
H119   H     0.06511   0.26390   0.67055   0.00000  Uiso   1.00
H120   H     0.39481   0.55795   0.71229   0.00000  Uiso   1.00
H121   H     0.88446   0.16851   0.97116   0.00000  Uiso   1.00
H122   H     0.01356   0.24296   0.56648   0.00000  Uiso   1.00
H123   H     0.02904   0.52145   0.67892   0.00000  Uiso   1.00
H124   H     0.16794   0.63867   0.65895   0.00000  Uiso   1.00
H125   H     0.92591   0.45397   0.78172   0.00000  Uiso   1.00
H126   H     0.98714   0.48928   0.58981   0.00000  Uiso   1.00
H127   H     0.33152   0.74088   0.64676   0.00000  Uiso   1.00
H128   H     0.82117   0.35143   0.90563   0.00000  Uiso   1.00
H129   H     0.95027   0.42589   0.50095   0.00000  Uiso   1.00
O130   O     0.45587   0.72266   0.66779   0.00000  Uiso   1.00
O131   O     0.78631   0.21172   0.00741   0.00000  Uiso   1.00
O132   O     0.95568   0.30940   0.47648   0.00000  Uiso   1.00
N133   N     0.36085   0.58492   0.69960   0.00000  Uiso   1.00
N134   N     0.88372   0.22082   0.94163   0.00000  Uiso   1.00
N135   N     0.00439   0.29041   0.56330   0.00000  Uiso   1.00
N136   N     0.32680   0.68335   0.66434   0.00000  Uiso   1.00
N137   N     0.84967   0.31926   0.90637   0.00000  Uiso   1.00
N138   N     0.97034   0.38885   0.52804   0.00000  Uiso   1.00
C139   C     0.96898   0.42443   0.22274   0.00000  Uiso   1.00
C140   C     0.00571   0.51659   0.20720   0.00000  Uiso   1.00
C141   C     0.96592   0.55729   0.21452   0.00000  Uiso   1.00
C142   C     0.01010   0.64177   0.19763   0.00000  Uiso   1.00
C143   C     0.05481   0.77844   0.17707   0.00000  Uiso   1.00
C144   C     0.00921   0.38684   0.26806   0.00000  Uiso   1.00
C145   C     0.97235   0.31845   0.32656   0.00000  Uiso   1.00
C146   C     0.01947   0.29370   0.36090   0.00000  Uiso   1.00
C147   C     0.06961   0.22890   0.43482   0.00000  Uiso   1.00
C148   C     0.99427   0.42308   0.16348   0.00000  Uiso   1.00
C149   C     0.94486   0.38512   0.13404   0.00000  Uiso   1.00
C150   C     0.97941   0.39086   0.08033   0.00000  Uiso   1.00
C151   C     0.00637   0.38231   0.99186   0.00000  Uiso   1.00
C152   C     0.11821   0.50208   0.17970   0.00000  Uiso   1.00
C153   C     0.08677   0.55876   0.18382   0.00000  Uiso   1.00
C154   C     0.13102   0.64320   0.16690   0.00000  Uiso   1.00
C155   C     0.09130   0.68402   0.17420   0.00000  Uiso   1.00
C156   C     0.09026   0.42902   0.24469   0.00000  Uiso   1.00
C157   C     0.13745   0.40436   0.27894   0.00000  Uiso   1.00
C158   C     0.10067   0.33595   0.33747   0.00000  Uiso   1.00
C159   C     0.07533   0.46525   0.14009   0.00000  Uiso   1.00
C160   C     0.10997   0.47104   0.08642   0.00000  Uiso   1.00
C161   C     0.06062   0.43311   0.05691   0.00000  Uiso   1.00
H162   H     0.90587   0.39159   0.24095   0.00000  Uiso   1.00
H163   H     0.90319   0.52463   0.23263   0.00000  Uiso   1.00
H164   H     0.90962   0.28582   0.34464   0.00000  Uiso   1.00
H165   H     0.88214   0.35249   0.15215   0.00000  Uiso   1.00
H166   H     0.93596   0.69072   0.21311   0.00000  Uiso   1.00
H167   H     0.94952   0.18716   0.44929   0.00000  Uiso   1.00
H168   H     0.89157   0.32774   0.04338   0.00000  Uiso   1.00
H169   H     0.18132   0.53492   0.16150   0.00000  Uiso   1.00
H170   H     0.19375   0.67582   0.14881   0.00000  Uiso   1.00
H171   H     0.20018   0.43701   0.26083   0.00000  Uiso   1.00
H172   H     0.17270   0.50368   0.06834   0.00000  Uiso   1.00
H173   H     0.17179   0.81343   0.14508   0.00000  Uiso   1.00
H174   H     0.18535   0.30986   0.38127   0.00000  Uiso   1.00
H175   H     0.12740   0.45045   0.97536   0.00000  Uiso   1.00
O176   O     0.05709   0.84217   0.17220   0.00000  Uiso   1.00
O177   O     0.07487   0.18151   0.48206   0.00000  Uiso   1.00
O178   O     0.99884   0.36596   0.94952   0.00000  Uiso   1.00
N179   N     0.98976   0.70026   0.19883   0.00000  Uiso   1.00
N180   N     0.00243   0.22947   0.41965   0.00000  Uiso   1.00
N181   N     0.94825   0.36089   0.04017   0.00000  Uiso   1.00
N182   N     0.11665   0.76630   0.16222   0.00000  Uiso   1.00
N183   N     0.12933   0.29550   0.38304   0.00000  Uiso   1.00
N184   N     0.07515   0.42692   0.00357   0.00000  Uiso   1.00
C185   C     0.58592   0.39241   0.21845   0.00000  Uiso   1.00
C186   C     0.51766   0.34087   0.20015   0.00000  Uiso   1.00
C187   C     0.50051   0.26425   0.20283   0.00000  Uiso   1.00
C188   C     0.43549   0.22710   0.18405   0.00000  Uiso   1.00
C189   C     0.33650   0.14125   0.15882   0.00000  Uiso   1.00
C190   C     0.55054   0.40619   0.26726   0.00000  Uiso   1.00
C191   C     0.56105   0.38450   0.32636   0.00000  Uiso   1.00
C192   C     0.52372   0.40234   0.36407   0.00000  Uiso   1.00
C193   C     0.47583   0.41796   0.44301   0.00000  Uiso   1.00
C194   C     0.63131   0.47831   0.16182   0.00000  Uiso   1.00
C195   C     0.70974   0.51727   0.13227   0.00000  Uiso   1.00
C196   C     0.74042   0.59584   0.08121   0.00000  Uiso   1.00
C197   C     0.81794   0.72343   0.99644   0.00000  Uiso   1.00
C198   C     0.50094   0.46268   0.18033   0.00000  Uiso   1.00
C199   C     0.47150   0.37904   0.17945   0.00000  Uiso   1.00
C200   C     0.40649   0.34200   0.16066   0.00000  Uiso   1.00
C201   C     0.38925   0.26534   0.16331   0.00000  Uiso   1.00
C202   C     0.50439   0.44436   0.24656   0.00000  Uiso   1.00
C203   C     0.46704   0.46224   0.28419   0.00000  Uiso   1.00
C204   C     0.47749   0.44058   0.34333   0.00000  Uiso   1.00
C205   C     0.58516   0.51648   0.14111   0.00000  Uiso   1.00
C206   C     0.61572   0.59501   0.09010   0.00000  Uiso   1.00
C207   C     0.69418   0.63408   0.06048   0.00000  Uiso   1.00
H208   H     0.62185   0.36269   0.23457   0.00000  Uiso   1.00
H209   H     0.53624   0.23473   0.21885   0.00000  Uiso   1.00
H210   H     0.59678   0.35497   0.34236   0.00000  Uiso   1.00
H211   H     0.74544   0.48771   0.14830   0.00000  Uiso   1.00
H212   H     0.42095   0.10968   0.19233   0.00000  Uiso   1.00
H213   H     0.54863   0.36324   0.45274   0.00000  Uiso   1.00
H214   H     0.86211   0.64315   0.04353   0.00000  Uiso   1.00
H215   H     0.46501   0.49239   0.16422   0.00000  Uiso   1.00
H216   H     0.37079   0.37155   0.14464   0.00000  Uiso   1.00
H217   H     0.43133   0.49178   0.26815   0.00000  Uiso   1.00
H218   H     0.57999   0.62452   0.07409   0.00000  Uiso   1.00
H219   H     0.28667   0.22072   0.13210   0.00000  Uiso   1.00
H220   H     0.41434   0.47428   0.39252   0.00000  Uiso   1.00
H221   H     0.72783   0.75419   0.98330   0.00000  Uiso   1.00
O222   O     0.29465   0.08335   0.15062   0.00000  Uiso   1.00
O223   O     0.46216   0.41602   0.49228   0.00000  Uiso   1.00
O224   O     0.87344   0.78326   0.95540   0.00000  Uiso   1.00
N225   N     0.40229   0.15241   0.18083   0.00000  Uiso   1.00
N226   N     0.52165   0.38945   0.42431   0.00000  Uiso   1.00
N227   N     0.81473   0.65116   0.04173   0.00000  Uiso   1.00
N228   N     0.33003   0.21216   0.14842   0.00000  Uiso   1.00
N229   N     0.44939   0.44921   0.39190   0.00000  Uiso   1.00
N230   N     0.74248   0.71091   0.00932   0.00000  Uiso   1.00
C231   C     0.71144   0.18248   0.21500   0.00000  Uiso   1.00
C232   C     0.74608   0.13633   0.19669   0.00000  Uiso   1.00
C233   C     0.82390   0.15593   0.18688   0.00000  Uiso   1.00
C234   C     0.84393   0.10613   0.17043   0.00000  Uiso   1.00
C235   C     0.90621   0.04464   0.14300   0.00000  Uiso   1.00
C236   C     0.64707   0.11648   0.27453   0.00000  Uiso   1.00
C237   C     0.64163   0.11938   0.33015   0.00000  Uiso   1.00
C238   C     0.57830   0.05287   0.37921   0.00000  Uiso   1.00
C239   C     0.48682   0.96058   0.47261   0.00000  Uiso   1.00
C240   C     0.67073   0.21012   0.16574   0.00000  Uiso   1.00
C241   C     0.68516   0.29177   0.12990   0.00000  Uiso   1.00
C242   C     0.64175   0.30410   0.08738   0.00000  Uiso   1.00
C243   C     0.58701   0.35722   0.01187   0.00000  Uiso   1.00
C244   C     0.60865   0.05919   0.20324   0.00000  Uiso   1.00
C245   C     0.69025   0.06937   0.19031   0.00000  Uiso   1.00
C246   C     0.71017   0.01952   0.17386   0.00000  Uiso   1.00
C247   C     0.78800   0.03904   0.16402   0.00000  Uiso   1.00
C248   C     0.59124   0.04951   0.26814   0.00000  Uiso   1.00
C249   C     0.52790   0.98298   0.31713   0.00000  Uiso   1.00
C250   C     0.52237   0.98578   0.37281   0.00000  Uiso   1.00
C251   C     0.61490   0.14316   0.15935   0.00000  Uiso   1.00
C252   C     0.57144   0.15536   0.11688   0.00000  Uiso   1.00
C253   C     0.58581   0.23701   0.08098   0.00000  Uiso   1.00
H254   H     0.75490   0.23461   0.21998   0.00000  Uiso   1.00
H255   H     0.86709   0.20775   0.19183   0.00000  Uiso   1.00
H256   H     0.68484   0.17122   0.33508   0.00000  Uiso   1.00
H257   H     0.72837   0.34357   0.13486   0.00000  Uiso   1.00
H258   H     0.96683   0.14843   0.15783   0.00000  Uiso   1.00
H259   H     0.58254   0.07140   0.45986   0.00000  Uiso   1.00
H260   H     0.67434   0.43486   0.03766   0.00000  Uiso   1.00
H261   H     0.56518   0.00705   0.19827   0.00000  Uiso   1.00
H262   H     0.66695   0.96770   0.16892   0.00000  Uiso   1.00
H263   H     0.48470   0.93117   0.31217   0.00000  Uiso   1.00
H264   H     0.52824   0.10353   0.11195   0.00000  Uiso   1.00
H265   H     0.80440   0.95359   0.13924   0.00000  Uiso   1.00
H266   H     0.42010   0.87657   0.44127   0.00000  Uiso   1.00
H267   H     0.51191   0.24002   0.01907   0.00000  Uiso   1.00
O268   O     0.95598   0.02921   0.12965   0.00000  Uiso   1.00
O269   O     0.45180   0.92818   0.52589   0.00000  Uiso   1.00
O270   O     0.57225   0.40502   0.97197   0.00000  Uiso   1.00
N271   N     0.91464   0.10798   0.15747   0.00000  Uiso   1.00
N272   N     0.55535   0.03596   0.43985   0.00000  Uiso   1.00
N273   N     0.64117   0.37576   0.04514   0.00000  Uiso   1.00
N274   N     0.82723   0.00314   0.14746   0.00000  Uiso   1.00
N275   N     0.46795   0.93112   0.42985   0.00000  Uiso   1.00
N276   N     0.55376   0.27092   0.03514   0.00000  Uiso   1.00
C277   C     0.79983   0.78750   0.29637   0.00000  Uiso   1.00
C278   C     0.79169   0.84921   0.31455   0.00000  Uiso   1.00
C279   C     0.85268   0.92000   0.31192   0.00000  Uiso   1.00
C280   C     0.83311   0.96841   0.33057   0.00000  Uiso   1.00
C281   C     0.83230   0.06754   0.35564   0.00000  Uiso   1.00
C282   C     0.75525   0.78434   0.24744   0.00000  Uiso   1.00
C283   C     0.78561   0.80058   0.18841   0.00000  Uiso   1.00
C284   C     0.73536   0.79436   0.15058   0.00000  Uiso   1.00
C285   C     0.67797   0.79272   0.07149   0.00000  Uiso   1.00
C286   C     0.75440   0.70161   0.35300   0.00000  Uiso   1.00
C287   C     0.78403   0.64829   0.38271   0.00000  Uiso   1.00
C288   C     0.73306   0.57242   0.43374   0.00000  Uiso   1.00
C289   C     0.67434   0.44234   0.51855   0.00000  Uiso   1.00
C290   C     0.65660   0.74758   0.33416   0.00000  Uiso   1.00
C291   C     0.71389   0.82752   0.33507   0.00000  Uiso   1.00
C292   C     0.69422   0.87583   0.35373   0.00000  Uiso   1.00
C293   C     0.75518   0.94669   0.35114   0.00000  Uiso   1.00
C294   C     0.67746   0.76265   0.26797   0.00000  Uiso   1.00
C295   C     0.62715   0.75641   0.23022   0.00000  Uiso   1.00
C296   C     0.65743   0.77264   0.17114   0.00000  Uiso   1.00
C297   C     0.67660   0.67993   0.37353   0.00000  Uiso   1.00
C298   C     0.62557   0.60413   0.42452   0.00000  Uiso   1.00
C299   C     0.65512   0.55070   0.45431   0.00000  Uiso   1.00
H300   H     0.86039   0.80438   0.28038   0.00000  Uiso   1.00
H301   H     0.91288   0.93677   0.29603   0.00000  Uiso   1.00
H302   H     0.84582   0.81735   0.17254   0.00000  Uiso   1.00
H303   H     0.84424   0.66509   0.36681   0.00000  Uiso   1.00
H304   H     0.93676   0.07399   0.32240   0.00000  Uiso   1.00
H305   H     0.79535   0.82216   0.06202   0.00000  Uiso   1.00
H306   H     0.79202   0.50109   0.47169   0.00000  Uiso   1.00
H307   H     0.59603   0.73070   0.35014   0.00000  Uiso   1.00
H308   H     0.63401   0.85904   0.36961   0.00000  Uiso   1.00
H309   H     0.56695   0.73962   0.24612   0.00000  Uiso   1.00
H310   H     0.56537   0.58737   0.44039   0.00000  Uiso   1.00
H311   H     0.71042   0.01091   0.38212   0.00000  Uiso   1.00
H312   H     0.56901   0.75908   0.12175   0.00000  Uiso   1.00
H313   H     0.56568   0.43801   0.53141   0.00000  Uiso   1.00
O314   O     0.85335   0.12822   0.36380   0.00000  Uiso   1.00
O315   O     0.66782   0.79782   0.02220   0.00000  Uiso   1.00
O316   O     0.66345   0.37659   0.55967   0.00000  Uiso   1.00
N317   N     0.87828   0.04152   0.33380   0.00000  Uiso   1.00
N318   N     0.74607   0.80609   0.09036   0.00000  Uiso   1.00
N319   N     0.74295   0.50591   0.47335   0.00000  Uiso   1.00
N320   N     0.75649   0.00758   0.36593   0.00000  Uiso   1.00
N321   N     0.62428   0.77215   0.12249   0.00000  Uiso   1.00
N322   N     0.62116   0.47196   0.50548   0.00000  Uiso   1.00
C323   C     0.13596   0.01007   0.30560   0.00000  Uiso   1.00
C324   C     0.20545   0.05454   0.32646   0.00000  Uiso   1.00
C325   C     0.27022   0.04241   0.32945   0.00000  Uiso   1.00
C326   C     0.32754   0.08914   0.34972   0.00000  Uiso   1.00
C327   C     0.43656   0.14958   0.37954   0.00000  Uiso   1.00
C328   C     0.12897   0.07908   0.25259   0.00000  Uiso   1.00
C329   C     0.12942   0.08758   0.19348   0.00000  Uiso   1.00
C330   C     0.12234   0.15496   0.15157   0.00000  Uiso   1.00
C331   C     0.11257   0.25346   0.06672   0.00000  Uiso   1.00
C332   C     0.06430   0.96825   0.35877   0.00000  Uiso   1.00
C333   C     0.01036   0.88357   0.38894   0.00000  Uiso   1.00
C334   C     0.94883   0.85765   0.43643   0.00000  Uiso   1.00
C335   C     0.83865   0.78407   0.51645   0.00000  Uiso   1.00
C336   C     0.12258   0.11462   0.33627   0.00000  Uiso   1.00
C337   C     0.19818   0.11132   0.34311   0.00000  Uiso   1.00
C338   C     0.25541   0.15808   0.36339   0.00000  Uiso   1.00
C339   C     0.32025   0.14602   0.36641   0.00000  Uiso   1.00
C340   C     0.12170   0.13586   0.26925   0.00000  Uiso   1.00
C341   C     0.11461   0.20324   0.22742   0.00000  Uiso   1.00
C342   C     0.11506   0.21185   0.16826   0.00000  Uiso   1.00
C343   C     0.05703   0.02504   0.37544   0.00000  Uiso   1.00
C344   C     0.99557   0.99924   0.42288   0.00000  Uiso   1.00
C345   C     0.94155   0.91453   0.45311   0.00000  Uiso   1.00
H346   H     0.14162   0.96587   0.29263   0.00000  Uiso   1.00
H347   H     0.27582   0.99847   0.31655   0.00000  Uiso   1.00
H348   H     0.13504   0.04362   0.18060   0.00000  Uiso   1.00
H349   H     0.01601   0.83965   0.37604   0.00000  Uiso   1.00
H350   H     0.42142   0.05968   0.35040   0.00000  Uiso   1.00
H351   H     0.12454   0.15487   0.06376   0.00000  Uiso   1.00
H352   H     0.87354   0.72475   0.47586   0.00000  Uiso   1.00
H353   H     0.11692   0.15883   0.34924   0.00000  Uiso   1.00
H354   H     0.24977   0.20202   0.37628   0.00000  Uiso   1.00
H355   H     0.10899   0.24717   0.24033   0.00000  Uiso   1.00
H356   H     0.98996   0.04320   0.43576   0.00000  Uiso   1.00
H357   H     0.40028   0.22489   0.39887   0.00000  Uiso   1.00
H358   H     0.10340   0.32007   0.11223   0.00000  Uiso   1.00
H359   H     0.85240   0.88996   0.52433   0.00000  Uiso   1.00
O360   O     0.49870   0.16723   0.39137   0.00000  Uiso   1.00
O361   O     0.10919   0.29211   0.01532   0.00000  Uiso   1.00
O362   O     0.77989   0.72780   0.55599   0.00000  Uiso   1.00
N363   N     0.39821   0.09262   0.35811   0.00000  Uiso   1.00
N364   N     0.12065   0.18163   0.09011   0.00000  Uiso   1.00
N365   N     0.88598   0.77950   0.47538   0.00000  Uiso   1.00
N366   N     0.38683   0.18152   0.38419   0.00000  Uiso   1.00
N367   N     0.10928   0.27052   0.11619   0.00000  Uiso   1.00
N368   N     0.87460   0.86840   0.50147   0.00000  Uiso   1.00
C369   C     0.14812   0.78394   0.32702   0.00000  Uiso   1.00
C370   C     0.09202   0.69510   0.33959   0.00000  Uiso   1.00
C371   C     0.01334   0.66395   0.34213   0.00000  Uiso   1.00
C372   C     0.97202   0.58100   0.35420   0.00000  Uiso   1.00
C373   C     0.87942   0.45066   0.37229   0.00000  Uiso   1.00
C374   C     0.21419   0.81898   0.27129   0.00000  Uiso   1.00
C375   C     0.23823   0.89200   0.21640   0.00000  Uiso   1.00
C376   C     0.29976   0.91334   0.17099   0.00000  Uiso   1.00
C377   C     0.39686   0.97536   0.08306   0.00000  Uiso   1.00
C378   C     0.18375   0.77474   0.38177   0.00000  Uiso   1.00
C379   C     0.18223   0.81058   0.41978   0.00000  Uiso   1.00
C380   C     0.21815   0.79469   0.46738   0.00000  Uiso   1.00
C381   C     0.26800   0.78802   0.55100   0.00000  Uiso   1.00
C382   C     0.21465   0.69201   0.34395   0.00000  Uiso   1.00
C383   C     0.12816   0.64517   0.34878   0.00000  Uiso   1.00
C384   C     0.08695   0.56224   0.36086   0.00000  Uiso   1.00
C385   C     0.00822   0.53097   0.36342   0.00000  Uiso   1.00
C386   C     0.25033   0.76905   0.28048   0.00000  Uiso   1.00
C387   C     0.31184   0.79029   0.23514   0.00000  Uiso   1.00
C388   C     0.33596   0.86331   0.18020   0.00000  Uiso   1.00
C389   C     0.21989   0.72481   0.39097   0.00000  Uiso   1.00
C390   C     0.25583   0.70886   0.43852   0.00000  Uiso   1.00
C391   C     0.25435   0.74466   0.47660   0.00000  Uiso   1.00
H392   H     0.12000   0.82282   0.31985   0.00000  Uiso   1.00
H393   H     0.98540   0.70262   0.33500   0.00000  Uiso   1.00
H394   H     0.21026   0.93063   0.20930   0.00000  Uiso   1.00
H395   H     0.15426   0.84922   0.41265   0.00000  Uiso   1.00
H396   H     0.85212   0.54734   0.35583   0.00000  Uiso   1.00
H397   H     0.32627   0.02814   0.09079   0.00000  Uiso   1.00
H398   H     0.20818   0.85647   0.51960   0.00000  Uiso   1.00
H399   H     0.24279   0.65313   0.35111   0.00000  Uiso   1.00
H400   H     0.11493   0.52361   0.36798   0.00000  Uiso   1.00
H401   H     0.33979   0.75163   0.24227   0.00000  Uiso   1.00
H402   H     0.28379   0.67022   0.44562   0.00000  Uiso   1.00
H403   H     0.95725   0.40205   0.38259   0.00000  Uiso   1.00
H404   H     0.43140   0.88286   0.11755   0.00000  Uiso   1.00
H405   H     0.31331   0.71118   0.54636   0.00000  Uiso   1.00
O406   O     0.81837   0.39256   0.37972   0.00000  Uiso   1.00
O407   O     0.44043   0.02336   0.03201   0.00000  Uiso   1.00
O408   O     0.28550   0.79813   0.59459   0.00000  Uiso   1.00
N409   N     0.89441   0.53092   0.35982   0.00000  Uiso   1.00
N410   N     0.33770   0.98043   0.11203   0.00000  Uiso   1.00
N411   N     0.22731   0.81995   0.51291   0.00000  Uiso   1.00
N412   N     0.95098   0.45274   0.37422   0.00000  Uiso   1.00
N413   N     0.39427   0.90225   0.12643   0.00000  Uiso   1.00
N414   N     0.28388   0.74177   0.52731   0.00000  Uiso   1.00
C415   C     0.32088   0.76628   0.80556   0.00000  Uiso   1.00
C416   C     0.27791   0.67289   0.82470   0.00000  Uiso   1.00
C417   C     0.31246   0.62342   0.82832   0.00000  Uiso   1.00
C418   C     0.26303   0.53935   0.84677   0.00000  Uiso   1.00
C419   C     0.20863   0.39941   0.87428   0.00000  Uiso   1.00
C420   C     0.29293   0.80815   0.75126   0.00000  Uiso   1.00
C421   C     0.34010   0.87242   0.69313   0.00000  Uiso   1.00
C422   C     0.30332   0.90223   0.64975   0.00000  Uiso   1.00
C423   C     0.27224   0.97234   0.56325   0.00000  Uiso   1.00
C424   C     0.28955   0.77577   0.85875   0.00000  Uiso   1.00
C425   C     0.33390   0.81283   0.89100   0.00000  Uiso   1.00
C426   C     0.29427   0.81539   0.93811   0.00000  Uiso   1.00
C427   C     0.25796   0.83522   0.01852   0.00000  Uiso   1.00
C428   C     0.17167   0.70495   0.83188   0.00000  Uiso   1.00
C429   C     0.19686   0.63958   0.83899   0.00000  Uiso   1.00
C430   C     0.14737   0.55556   0.85744   0.00000  Uiso   1.00
C431   C     0.18184   0.50598   0.86109   0.00000  Uiso   1.00
C432   C     0.21188   0.77485   0.76555   0.00000  Uiso   1.00
C433   C     0.17502   0.80457   0.72224   0.00000  Uiso   1.00
C434   C     0.22212   0.86886   0.66406   0.00000  Uiso   1.00
C435   C     0.20851   0.74246   0.87305   0.00000  Uiso   1.00
C436   C     0.16880   0.74497   0.92011   0.00000  Uiso   1.00
C437   C     0.21308   0.78202   0.95243   0.00000  Uiso   1.00
H438   H     0.38398   0.79221   0.79443   0.00000  Uiso   1.00
H439   H     0.37518   0.64922   0.81725   0.00000  Uiso   1.00
H440   H     0.40282   0.89819   0.68208   0.00000  Uiso   1.00
H441   H     0.39661   0.83860   0.87992   0.00000  Uiso   1.00
H442   H     0.32968   0.47600   0.84884   0.00000  Uiso   1.00
H443   H     0.38797   0.00099   0.56383   0.00000  Uiso   1.00
H444   H     0.37488   0.87533   0.98101   0.00000  Uiso   1.00
H445   H     0.10856   0.67902   0.84300   0.00000  Uiso   1.00
H446   H     0.08465   0.52981   0.86850   0.00000  Uiso   1.00
H447   H     0.11230   0.77878   0.73332   0.00000  Uiso   1.00
H448   H     0.10609   0.71919   0.93116   0.00000  Uiso   1.00
H449   H     0.09388   0.37908   0.89043   0.00000  Uiso   1.00
H450   H     0.15217   0.90407   0.60542   0.00000  Uiso   1.00
H451   H     0.13907   0.77842   0.02260   0.00000  Uiso   1.00
O452   O     0.20102   0.33143   0.88551   0.00000  Uiso   1.00
O453   O     0.27749   0.02021   0.51159   0.00000  Uiso   1.00
O454   O     0.26032   0.85535   0.05892   0.00000  Uiso   1.00
N455   N     0.27747   0.47366   0.85514   0.00000  Uiso   1.00
N456   N     0.33196   0.96449   0.58867   0.00000  Uiso   1.00
N457   N     0.31973   0.84703   0.97869   0.00000  Uiso   1.00
N458   N     0.15058   0.42151   0.87752   0.00000  Uiso   1.00
N459   N     0.20508   0.91233   0.61105   0.00000  Uiso   1.00
N460   N     0.19284   0.79488   0.00107   0.00000  Uiso   1.00
C461   C     0.58896   0.81256   0.80290   0.00000  Uiso   1.00
C462   C     0.66393   0.84887   0.82129   0.00000  Uiso   1.00
C463   C     0.69536   0.92321   0.82505   0.00000  Uiso   1.00
C464   C     0.76440   0.94557   0.84272   0.00000  Uiso   1.00
C465   C     0.87531   0.00961   0.86921   0.00000  Uiso   1.00
C466   C     0.61127   0.80073   0.74817   0.00000  Uiso   1.00
C467   C     0.59842   0.83459   0.69046   0.00000  Uiso   1.00
C468   C     0.62313   0.81642   0.64658   0.00000  Uiso   1.00
C469   C     0.65223   0.80568   0.55956   0.00000  Uiso   1.00
C470   C     0.53741   0.72471   0.85615   0.00000  Uiso   1.00
C471   C     0.46245   0.69463   0.88921   0.00000  Uiso   1.00
C472   C     0.42497   0.61244   0.93623   0.00000  Uiso   1.00
C473   C     0.33939   0.48366   0.01686   0.00000  Uiso   1.00
C474   C     0.65567   0.72008   0.82759   0.00000  Uiso   1.00
C475   C     0.70016   0.79864   0.83470   0.00000  Uiso   1.00
C476   C     0.76917   0.82089   0.85237   0.00000  Uiso   1.00
C477   C     0.80070   0.89525   0.85616   0.00000  Uiso   1.00
C478   C     0.64750   0.75050   0.76158   0.00000  Uiso   1.00
C479   C     0.67223   0.73227   0.71777   0.00000  Uiso   1.00
C480   C     0.65943   0.76610   0.66001   0.00000  Uiso   1.00
C481   C     0.57364   0.67447   0.86956   0.00000  Uiso   1.00
C482   C     0.53626   0.59231   0.91653   0.00000  Uiso   1.00
C483   C     0.46126   0.56212   0.94966   0.00000  Uiso   1.00
H484   H     0.56076   0.85167   0.79245   0.00000  Uiso   1.00
H485   H     0.66731   0.96207   0.81466   0.00000  Uiso   1.00
H486   H     0.57038   0.87346   0.68010   0.00000  Uiso   1.00
H487   H     0.43443   0.73352   0.87882   0.00000  Uiso   1.00
H488   H     0.80144   0.06233   0.84518   0.00000  Uiso   1.00
H489   H     0.59703   0.87547   0.56144   0.00000  Uiso   1.00
H490   H     0.31036   0.58038   0.98049   0.00000  Uiso   1.00
H491   H     0.68388   0.68097   0.83803   0.00000  Uiso   1.00
H492   H     0.79719   0.78200   0.86274   0.00000  Uiso   1.00
H493   H     0.70026   0.69339   0.72817   0.00000  Uiso   1.00
H494   H     0.56432   0.55346   0.92689   0.00000  Uiso   1.00
H495   H     0.90686   0.91619   0.88420   0.00000  Uiso   1.00
H496   H     0.70244   0.72932   0.60046   0.00000  Uiso   1.00
H497   H     0.41578   0.43424   0.01951   0.00000  Uiso   1.00
O498   O     0.92648   0.05882   0.88010   0.00000  Uiso   1.00
O499   O     0.65829   0.81364   0.50785   0.00000  Uiso   1.00
O500   O     0.28219   0.42651   0.05763   0.00000  Uiso   1.00
N501   N     0.81069   0.01406   0.85098   0.00000  Uiso   1.00
N502   N     0.61959   0.83937   0.58570   0.00000  Uiso   1.00
N503   N     0.35157   0.56348   0.97746   0.00000  Uiso   1.00
N504   N     0.86742   0.93542   0.87198   0.00000  Uiso   1.00
N505   N     0.67631   0.76072   0.60670   0.00000  Uiso   1.00
N506   N     0.40829   0.48484   0.99846   0.00000  Uiso   1.00
C507   C     0.57917   0.09720   0.80563   0.00000  Uiso   1.00
C508   C     0.50795   0.10610   0.82081   0.00000  Uiso   1.00
C509   C     0.43307   0.05717   0.81996   0.00000  Uiso   1.00
C510   C     0.37592   0.07525   0.83528   0.00000  Uiso   1.00
C511   C     0.26271   0.07926   0.85645   0.00000  Uiso   1.00
C512   C     0.63949   0.18266   0.75372   0.00000  Uiso   1.00
C513   C     0.67522   0.19808   0.69647   0.00000  Uiso   1.00
C514   C     0.72880   0.28060   0.65532   0.00000  Uiso   1.00
C515   C     0.81986   0.40344   0.57236   0.00000  Uiso   1.00
C516   C     0.61178   0.08449   0.86203   0.00000  Uiso   1.00
C517   C     0.62423   0.01739   0.89583   0.00000  Uiso   1.00
C518   C     0.65451   0.01727   0.94587   0.00000  Uiso   1.00
C519   C     0.70254   0.98769   0.03107   0.00000  Uiso   1.00
C520   C     0.61082   0.21632   0.83436   0.00000  Uiso   1.00
C521   C     0.52514   0.17081   0.83642   0.00000  Uiso   1.00
C522   C     0.46809   0.18896   0.85175   0.00000  Uiso   1.00
C523   C     0.39314   0.14007   0.85092   0.00000  Uiso   1.00
C524   C     0.65668   0.24735   0.76933   0.00000  Uiso   1.00
C525   C     0.71023   0.32987   0.72826   0.00000  Uiso   1.00
C526   C     0.74603   0.34542   0.67096   0.00000  Uiso   1.00
C527   C     0.62897   0.14919   0.87764   0.00000  Uiso   1.00
C528   C     0.65924   0.14917   0.92763   0.00000  Uiso   1.00
C529   C     0.67173   0.08208   0.96150   0.00000  Uiso   1.00
H530   H     0.56579   0.04684   0.79347   0.00000  Uiso   1.00
H531   H     0.41979   0.00712   0.80787   0.00000  Uiso   1.00
H532   H     0.66190   0.14800   0.68441   0.00000  Uiso   1.00
H533   H     0.61092   0.96733   0.88374   0.00000  Uiso   1.00
H534   H     0.26551   0.99163   0.83069   0.00000  Uiso   1.00
H535   H     0.77604   0.28869   0.57037   0.00000  Uiso   1.00
H536   H     0.66853   0.90771   0.99071   0.00000  Uiso   1.00
H537   H     0.62421   0.26669   0.84651   0.00000  Uiso   1.00
H538   H     0.48141   0.23903   0.86382   0.00000  Uiso   1.00
H539   H     0.72353   0.37992   0.74035   0.00000  Uiso   1.00
H540   H     0.67254   0.19925   0.93969   0.00000  Uiso   1.00
H541   H     0.31552   0.17987   0.87611   0.00000  Uiso   1.00
H542   H     0.82606   0.47693   0.61578   0.00000  Uiso   1.00
H543   H     0.71854   0.09595   0.03612   0.00000  Uiso   1.00
O544   O     0.19553   0.06360   0.86381   0.00000  Uiso   1.00
O545   O     0.86533   0.45333   0.52228   0.00000  Uiso   1.00
O546   O     0.72427   0.95350   0.07376   0.00000  Uiso   1.00
N547   N     0.29687   0.03972   0.83902   0.00000  Uiso   1.00
N548   N     0.77418   0.31745   0.59562   0.00000  Uiso   1.00
N549   N     0.67368   0.96128   0.98860   0.00000  Uiso   1.00
N550   N     0.32378   0.14100   0.86345   0.00000  Uiso   1.00
N551   N     0.80109   0.41874   0.62006   0.00000  Uiso   1.00
N552   N     0.70059   0.06257   0.01304   0.00000  Uiso   1.00
