data_job_00780
_audit_creation_date              2018-12-19
_audit_creation_method            'Materials Studio'
_symmetry_space_group_name_H-M    'P1'
_symmetry_Int_Tables_number       1
_symmetry_cell_setting            triclinic
loop_
_symmetry_equiv_pos_as_xyz
  x,y,z
_cell_length_a                    21.0412
_cell_length_b                    13.6590
_cell_length_c                    24.2874
_cell_angle_alpha                 90.0000
_cell_angle_beta                  46.9679
_cell_angle_gamma                 90.0000
loop_
_atom_site_label
_atom_site_type_symbol
_atom_site_fract_x
_atom_site_fract_y
_atom_site_fract_z
_atom_site_U_iso_or_equiv
_atom_site_adp_type
_atom_site_occupancy
C1     C     0.22477   0.56294   0.76592   0.00000  Uiso   1.00
C2     C     0.20124   0.51213   0.72595   0.00000  Uiso   1.00
C3     C     0.14534   0.54845   0.71907   0.00000  Uiso   1.00
C4     C     0.13229   0.49085   0.68042   0.00000  Uiso   1.00
C5     C     0.08942   0.42571   0.62305   0.00000  Uiso   1.00
C6     C     0.20167   0.49098   0.82530   0.00000  Uiso   1.00
C7     C     0.14614   0.50954   0.90195   0.00000  Uiso   1.00
C8     C     0.13346   0.43413   0.94693   0.00000  Uiso   1.00
C9     C     0.09131   0.33618   0.04379   0.00000  Uiso   1.00
C10    C     0.32363   0.57134   0.70788   0.00000  Uiso   1.00
C11    C     0.37066   0.65745   0.68580   0.00000  Uiso   1.00
C12    C     0.46066   0.64969   0.63193   0.00000  Uiso   1.00
C13    C     0.60788   0.67652   0.54647   0.00000  Uiso   1.00
C14    C     0.30099   0.39603   0.70953   0.00000  Uiso   1.00
C15    C     0.24264   0.42147   0.69532   0.00000  Uiso   1.00
C16    C     0.22967   0.36379   0.65667   0.00000  Uiso   1.00
C17    C     0.17376   0.40003   0.64973   0.00000  Uiso   1.00
C18    C     0.24307   0.40032   0.79467   0.00000  Uiso   1.00
C19    C     0.23047   0.32487   0.83955   0.00000  Uiso   1.00
C20    C     0.17494   0.34330   0.91624   0.00000  Uiso   1.00
C21    C     0.36504   0.48068   0.67724   0.00000  Uiso   1.00
C22    C     0.45499   0.47279   0.62340   0.00000  Uiso   1.00
C23    C     0.50214   0.55887   0.60124   0.00000  Uiso   1.00
H24    H     0.19254   0.63352   0.78978   0.00000  Uiso   1.00
H25    H     0.11331   0.61861   0.74279   0.00000  Uiso   1.00
H26    H     0.11412   0.57970   0.92563   0.00000  Uiso   1.00
H27    H     0.33860   0.72760   0.70952   0.00000  Uiso   1.00
H28    H     0.04370   0.56209   0.67721   0.00000  Uiso   1.00
H29    H     0.04544   0.48005   0.06274   0.00000  Uiso   1.00
H30    H     0.51879   0.79192   0.60703   0.00000  Uiso   1.00
H31    H     0.33323   0.32545   0.68568   0.00000  Uiso   1.00
H32    H     0.26172   0.29363   0.63297   0.00000  Uiso   1.00
H33    H     0.26252   0.25472   0.81582   0.00000  Uiso   1.00
H34    H     0.48700   0.40262   0.59971   0.00000  Uiso   1.00
H35    H     0.16415   0.29832   0.58808   0.00000  Uiso   1.00
H36    H     0.16588   0.21629   0.97362   0.00000  Uiso   1.00
H37    H     0.63924   0.52815   0.51790   0.00000  Uiso   1.00
O38    O     0.05432   0.41482   0.59988   0.00000  Uiso   1.00
O39    O     0.05661   0.30720   0.10568   0.00000  Uiso   1.00
O40    O     0.67764   0.71636   0.50779   0.00000  Uiso   1.00
N41    N     0.08188   0.50439   0.66345   0.00000  Uiso   1.00
N42    N     0.08349   0.42768   0.02391   0.00000  Uiso   1.00
N43    N     0.52603   0.71925   0.59786   0.00000  Uiso   1.00
N44    N     0.14669   0.36246   0.61549   0.00000  Uiso   1.00
N45    N     0.14830   0.28575   0.97595   0.00000  Uiso   1.00
N46    N     0.59085   0.57732   0.54990   0.00000  Uiso   1.00
C47    C     0.72477   0.06294   0.76592   0.00000  Uiso   1.00
C48    C     0.70124   0.01213   0.72595   0.00000  Uiso   1.00
C49    C     0.64534   0.04845   0.71907   0.00000  Uiso   1.00
C50    C     0.63229   0.99085   0.68042   0.00000  Uiso   1.00
C51    C     0.58942   0.92571   0.62305   0.00000  Uiso   1.00
C52    C     0.70167   0.99098   0.82530   0.00000  Uiso   1.00
C53    C     0.64614   0.00954   0.90195   0.00000  Uiso   1.00
C54    C     0.63346   0.93413   0.94693   0.00000  Uiso   1.00
C55    C     0.59131   0.83618   0.04379   0.00000  Uiso   1.00
C56    C     0.82363   0.07134   0.70788   0.00000  Uiso   1.00
C57    C     0.87066   0.15745   0.68580   0.00000  Uiso   1.00
C58    C     0.96066   0.14969   0.63193   0.00000  Uiso   1.00
C59    C     0.10788   0.17652   0.54647   0.00000  Uiso   1.00
C60    C     0.80099   0.89603   0.70953   0.00000  Uiso   1.00
C61    C     0.74264   0.92147   0.69532   0.00000  Uiso   1.00
C62    C     0.72967   0.86379   0.65667   0.00000  Uiso   1.00
C63    C     0.67376   0.90003   0.64973   0.00000  Uiso   1.00
C64    C     0.74307   0.90032   0.79467   0.00000  Uiso   1.00
C65    C     0.73047   0.82487   0.83955   0.00000  Uiso   1.00
C66    C     0.67494   0.84330   0.91624   0.00000  Uiso   1.00
C67    C     0.86504   0.98068   0.67724   0.00000  Uiso   1.00
C68    C     0.95499   0.97279   0.62340   0.00000  Uiso   1.00
C69    C     0.00214   0.05887   0.60124   0.00000  Uiso   1.00
H70    H     0.69254   0.13352   0.78978   0.00000  Uiso   1.00
H71    H     0.61331   0.11861   0.74279   0.00000  Uiso   1.00
H72    H     0.61412   0.07970   0.92563   0.00000  Uiso   1.00
H73    H     0.83860   0.22760   0.70952   0.00000  Uiso   1.00
H74    H     0.54370   0.06209   0.67721   0.00000  Uiso   1.00
H75    H     0.54544   0.98005   0.06274   0.00000  Uiso   1.00
H76    H     0.01879   0.29192   0.60703   0.00000  Uiso   1.00
H77    H     0.83323   0.82545   0.68568   0.00000  Uiso   1.00
H78    H     0.76172   0.79363   0.63297   0.00000  Uiso   1.00
H79    H     0.76252   0.75472   0.81582   0.00000  Uiso   1.00
H80    H     0.98700   0.90262   0.59971   0.00000  Uiso   1.00
H81    H     0.66415   0.79832   0.58808   0.00000  Uiso   1.00
H82    H     0.66588   0.71629   0.97362   0.00000  Uiso   1.00
H83    H     0.13924   0.02815   0.51790   0.00000  Uiso   1.00
O84    O     0.55432   0.91482   0.59988   0.00000  Uiso   1.00
O85    O     0.55661   0.80720   0.10568   0.00000  Uiso   1.00
O86    O     0.17764   0.21636   0.50779   0.00000  Uiso   1.00
N87    N     0.58188   0.00439   0.66345   0.00000  Uiso   1.00
N88    N     0.58349   0.92768   0.02391   0.00000  Uiso   1.00
N89    N     0.02603   0.21925   0.59786   0.00000  Uiso   1.00
N90    N     0.64669   0.86246   0.61549   0.00000  Uiso   1.00
N91    N     0.64830   0.78575   0.97595   0.00000  Uiso   1.00
N92    N     0.09085   0.07732   0.54990   0.00000  Uiso   1.00
C93    C     0.77523   0.56294   0.73408   0.00000  Uiso   1.00
C94    C     0.79876   0.51213   0.77405   0.00000  Uiso   1.00
C95    C     0.85466   0.54845   0.78093   0.00000  Uiso   1.00
C96    C     0.86771   0.49085   0.81958   0.00000  Uiso   1.00
C97    C     0.91058   0.42571   0.87695   0.00000  Uiso   1.00
C98    C     0.79833   0.49098   0.67470   0.00000  Uiso   1.00
C99    C     0.85386   0.50954   0.59805   0.00000  Uiso   1.00
C100   C     0.86654   0.43413   0.55307   0.00000  Uiso   1.00
C101   C     0.90869   0.33618   0.45621   0.00000  Uiso   1.00
C102   C     0.67637   0.57134   0.79212   0.00000  Uiso   1.00
C103   C     0.62934   0.65745   0.81420   0.00000  Uiso   1.00
C104   C     0.53934   0.64969   0.86807   0.00000  Uiso   1.00
C105   C     0.39212   0.67652   0.95353   0.00000  Uiso   1.00
C106   C     0.69901   0.39603   0.79047   0.00000  Uiso   1.00
C107   C     0.75736   0.42147   0.80468   0.00000  Uiso   1.00
C108   C     0.77033   0.36379   0.84333   0.00000  Uiso   1.00
C109   C     0.82624   0.40003   0.85027   0.00000  Uiso   1.00
C110   C     0.75693   0.40032   0.70533   0.00000  Uiso   1.00
C111   C     0.76953   0.32487   0.66045   0.00000  Uiso   1.00
C112   C     0.82506   0.34330   0.58376   0.00000  Uiso   1.00
C113   C     0.63496   0.48068   0.82276   0.00000  Uiso   1.00
C114   C     0.54501   0.47279   0.87660   0.00000  Uiso   1.00
C115   C     0.49786   0.55887   0.89876   0.00000  Uiso   1.00
H116   H     0.80746   0.63352   0.71022   0.00000  Uiso   1.00
H117   H     0.88669   0.61861   0.75721   0.00000  Uiso   1.00
H118   H     0.88588   0.57970   0.57437   0.00000  Uiso   1.00
H119   H     0.66140   0.72760   0.79048   0.00000  Uiso   1.00
H120   H     0.95630   0.56209   0.82279   0.00000  Uiso   1.00
H121   H     0.95456   0.48005   0.43726   0.00000  Uiso   1.00
H122   H     0.48121   0.79192   0.89297   0.00000  Uiso   1.00
H123   H     0.66677   0.32545   0.81432   0.00000  Uiso   1.00
H124   H     0.73828   0.29363   0.86703   0.00000  Uiso   1.00
H125   H     0.73748   0.25472   0.68418   0.00000  Uiso   1.00
H126   H     0.51300   0.40262   0.90029   0.00000  Uiso   1.00
H127   H     0.83585   0.29832   0.91192   0.00000  Uiso   1.00
H128   H     0.83412   0.21629   0.52638   0.00000  Uiso   1.00
H129   H     0.36076   0.52815   0.98210   0.00000  Uiso   1.00
O130   O     0.94568   0.41482   0.90012   0.00000  Uiso   1.00
O131   O     0.94339   0.30720   0.39432   0.00000  Uiso   1.00
O132   O     0.32236   0.71636   0.99221   0.00000  Uiso   1.00
N133   N     0.91812   0.50439   0.83655   0.00000  Uiso   1.00
N134   N     0.91651   0.42768   0.47609   0.00000  Uiso   1.00
N135   N     0.47397   0.71925   0.90214   0.00000  Uiso   1.00
N136   N     0.85331   0.36246   0.88451   0.00000  Uiso   1.00
N137   N     0.85170   0.28575   0.52405   0.00000  Uiso   1.00
N138   N     0.40915   0.57732   0.95010   0.00000  Uiso   1.00
C139   C     0.27523   0.06294   0.73408   0.00000  Uiso   1.00
C140   C     0.29876   0.01213   0.77405   0.00000  Uiso   1.00
C141   C     0.35466   0.04845   0.78093   0.00000  Uiso   1.00
C142   C     0.36771   0.99085   0.81958   0.00000  Uiso   1.00
C143   C     0.41058   0.92571   0.87695   0.00000  Uiso   1.00
C144   C     0.29833   0.99098   0.67470   0.00000  Uiso   1.00
C145   C     0.35386   0.00954   0.59805   0.00000  Uiso   1.00
C146   C     0.36654   0.93413   0.55307   0.00000  Uiso   1.00
C147   C     0.40869   0.83618   0.45621   0.00000  Uiso   1.00
C148   C     0.17637   0.07134   0.79212   0.00000  Uiso   1.00
C149   C     0.12934   0.15745   0.81420   0.00000  Uiso   1.00
C150   C     0.03934   0.14969   0.86807   0.00000  Uiso   1.00
C151   C     0.89212   0.17652   0.95353   0.00000  Uiso   1.00
C152   C     0.19901   0.89603   0.79047   0.00000  Uiso   1.00
C153   C     0.25736   0.92147   0.80468   0.00000  Uiso   1.00
C154   C     0.27033   0.86379   0.84333   0.00000  Uiso   1.00
C155   C     0.32624   0.90003   0.85027   0.00000  Uiso   1.00
C156   C     0.25693   0.90032   0.70533   0.00000  Uiso   1.00
C157   C     0.26953   0.82487   0.66045   0.00000  Uiso   1.00
C158   C     0.32506   0.84330   0.58376   0.00000  Uiso   1.00
C159   C     0.13496   0.98068   0.82276   0.00000  Uiso   1.00
C160   C     0.04501   0.97279   0.87660   0.00000  Uiso   1.00
C161   C     0.99786   0.05887   0.89876   0.00000  Uiso   1.00
H162   H     0.30746   0.13352   0.71022   0.00000  Uiso   1.00
H163   H     0.38669   0.11861   0.75721   0.00000  Uiso   1.00
H164   H     0.38588   0.07970   0.57437   0.00000  Uiso   1.00
H165   H     0.16140   0.22760   0.79048   0.00000  Uiso   1.00
H166   H     0.45630   0.06209   0.82279   0.00000  Uiso   1.00
H167   H     0.45456   0.98005   0.43726   0.00000  Uiso   1.00
H168   H     0.98121   0.29192   0.89297   0.00000  Uiso   1.00
H169   H     0.16677   0.82545   0.81432   0.00000  Uiso   1.00
H170   H     0.23828   0.79363   0.86703   0.00000  Uiso   1.00
H171   H     0.23748   0.75472   0.68418   0.00000  Uiso   1.00
H172   H     0.01300   0.90262   0.90029   0.00000  Uiso   1.00
H173   H     0.33585   0.79832   0.91192   0.00000  Uiso   1.00
H174   H     0.33412   0.71629   0.52638   0.00000  Uiso   1.00
H175   H     0.86076   0.02815   0.98210   0.00000  Uiso   1.00
O176   O     0.44568   0.91482   0.90012   0.00000  Uiso   1.00
O177   O     0.44339   0.80720   0.39432   0.00000  Uiso   1.00
O178   O     0.82236   0.21636   0.99221   0.00000  Uiso   1.00
N179   N     0.41812   0.00439   0.83655   0.00000  Uiso   1.00
N180   N     0.41651   0.92768   0.47609   0.00000  Uiso   1.00
N181   N     0.97397   0.21925   0.90214   0.00000  Uiso   1.00
N182   N     0.35331   0.86246   0.88451   0.00000  Uiso   1.00
N183   N     0.35170   0.78575   0.52405   0.00000  Uiso   1.00
N184   N     0.90915   0.07732   0.95010   0.00000  Uiso   1.00
C185   C     0.77523   0.43706   0.23408   0.00000  Uiso   1.00
C186   C     0.79876   0.48787   0.27405   0.00000  Uiso   1.00
C187   C     0.85466   0.45155   0.28093   0.00000  Uiso   1.00
C188   C     0.86771   0.50915   0.31958   0.00000  Uiso   1.00
C189   C     0.91058   0.57429   0.37695   0.00000  Uiso   1.00
C190   C     0.79833   0.50902   0.17470   0.00000  Uiso   1.00
C191   C     0.85386   0.49046   0.09805   0.00000  Uiso   1.00
C192   C     0.86654   0.56587   0.05307   0.00000  Uiso   1.00
C193   C     0.90869   0.66382   0.95621   0.00000  Uiso   1.00
C194   C     0.67637   0.42866   0.29212   0.00000  Uiso   1.00
C195   C     0.62934   0.34255   0.31420   0.00000  Uiso   1.00
C196   C     0.53934   0.35031   0.36807   0.00000  Uiso   1.00
C197   C     0.39212   0.32348   0.45353   0.00000  Uiso   1.00
C198   C     0.69901   0.60397   0.29047   0.00000  Uiso   1.00
C199   C     0.75736   0.57853   0.30468   0.00000  Uiso   1.00
C200   C     0.77033   0.63621   0.34333   0.00000  Uiso   1.00
C201   C     0.82624   0.59997   0.35027   0.00000  Uiso   1.00
C202   C     0.75693   0.59968   0.20533   0.00000  Uiso   1.00
C203   C     0.76953   0.67513   0.16045   0.00000  Uiso   1.00
C204   C     0.82506   0.65670   0.08376   0.00000  Uiso   1.00
C205   C     0.63496   0.51932   0.32276   0.00000  Uiso   1.00
C206   C     0.54501   0.52721   0.37660   0.00000  Uiso   1.00
C207   C     0.49786   0.44113   0.39876   0.00000  Uiso   1.00
H208   H     0.80746   0.36648   0.21022   0.00000  Uiso   1.00
H209   H     0.88669   0.38139   0.25721   0.00000  Uiso   1.00
H210   H     0.88588   0.42030   0.07437   0.00000  Uiso   1.00
H211   H     0.66140   0.27240   0.29048   0.00000  Uiso   1.00
H212   H     0.95630   0.43791   0.32279   0.00000  Uiso   1.00
H213   H     0.95456   0.51995   0.93726   0.00000  Uiso   1.00
H214   H     0.48121   0.20808   0.39297   0.00000  Uiso   1.00
H215   H     0.66677   0.67455   0.31432   0.00000  Uiso   1.00
H216   H     0.73828   0.70637   0.36703   0.00000  Uiso   1.00
H217   H     0.73748   0.74528   0.18418   0.00000  Uiso   1.00
H218   H     0.51300   0.59738   0.40029   0.00000  Uiso   1.00
H219   H     0.83585   0.70168   0.41192   0.00000  Uiso   1.00
H220   H     0.83412   0.78371   0.02638   0.00000  Uiso   1.00
H221   H     0.36076   0.47185   0.48210   0.00000  Uiso   1.00
O222   O     0.94568   0.58518   0.40012   0.00000  Uiso   1.00
O223   O     0.94339   0.69280   0.89432   0.00000  Uiso   1.00
O224   O     0.32236   0.28364   0.49221   0.00000  Uiso   1.00
N225   N     0.91812   0.49561   0.33655   0.00000  Uiso   1.00
N226   N     0.91651   0.57232   0.97609   0.00000  Uiso   1.00
N227   N     0.47397   0.28075   0.40214   0.00000  Uiso   1.00
N228   N     0.85331   0.63754   0.38451   0.00000  Uiso   1.00
N229   N     0.85170   0.71425   0.02405   0.00000  Uiso   1.00
N230   N     0.40915   0.42268   0.45010   0.00000  Uiso   1.00
C231   C     0.27523   0.93706   0.23408   0.00000  Uiso   1.00
C232   C     0.29876   0.98787   0.27405   0.00000  Uiso   1.00
C233   C     0.35466   0.95155   0.28093   0.00000  Uiso   1.00
C234   C     0.36771   0.00915   0.31958   0.00000  Uiso   1.00
C235   C     0.41058   0.07429   0.37695   0.00000  Uiso   1.00
C236   C     0.29833   0.00902   0.17470   0.00000  Uiso   1.00
C237   C     0.35386   0.99046   0.09805   0.00000  Uiso   1.00
C238   C     0.36654   0.06587   0.05307   0.00000  Uiso   1.00
C239   C     0.40869   0.16382   0.95621   0.00000  Uiso   1.00
C240   C     0.17637   0.92866   0.29212   0.00000  Uiso   1.00
C241   C     0.12934   0.84255   0.31420   0.00000  Uiso   1.00
C242   C     0.03934   0.85031   0.36807   0.00000  Uiso   1.00
C243   C     0.89212   0.82348   0.45353   0.00000  Uiso   1.00
C244   C     0.19901   0.10397   0.29047   0.00000  Uiso   1.00
C245   C     0.25736   0.07853   0.30468   0.00000  Uiso   1.00
C246   C     0.27033   0.13621   0.34333   0.00000  Uiso   1.00
C247   C     0.32624   0.09997   0.35027   0.00000  Uiso   1.00
C248   C     0.25693   0.09968   0.20533   0.00000  Uiso   1.00
C249   C     0.26953   0.17513   0.16045   0.00000  Uiso   1.00
C250   C     0.32506   0.15670   0.08376   0.00000  Uiso   1.00
C251   C     0.13496   0.01932   0.32276   0.00000  Uiso   1.00
C252   C     0.04501   0.02721   0.37660   0.00000  Uiso   1.00
C253   C     0.99786   0.94113   0.39876   0.00000  Uiso   1.00
H254   H     0.30746   0.86648   0.21022   0.00000  Uiso   1.00
H255   H     0.38669   0.88139   0.25721   0.00000  Uiso   1.00
H256   H     0.38588   0.92030   0.07437   0.00000  Uiso   1.00
H257   H     0.16140   0.77240   0.29048   0.00000  Uiso   1.00
H258   H     0.45630   0.93791   0.32279   0.00000  Uiso   1.00
H259   H     0.45456   0.01995   0.93726   0.00000  Uiso   1.00
H260   H     0.98121   0.70808   0.39297   0.00000  Uiso   1.00
H261   H     0.16677   0.17455   0.31432   0.00000  Uiso   1.00
H262   H     0.23828   0.20637   0.36703   0.00000  Uiso   1.00
H263   H     0.23748   0.24528   0.18418   0.00000  Uiso   1.00
H264   H     0.01300   0.09738   0.40029   0.00000  Uiso   1.00
H265   H     0.33585   0.20168   0.41192   0.00000  Uiso   1.00
H266   H     0.33412   0.28371   0.02638   0.00000  Uiso   1.00
H267   H     0.86076   0.97185   0.48210   0.00000  Uiso   1.00
O268   O     0.44568   0.08518   0.40012   0.00000  Uiso   1.00
O269   O     0.44339   0.19280   0.89432   0.00000  Uiso   1.00
O270   O     0.82236   0.78364   0.49221   0.00000  Uiso   1.00
N271   N     0.41812   0.99561   0.33655   0.00000  Uiso   1.00
N272   N     0.41651   0.07232   0.97609   0.00000  Uiso   1.00
N273   N     0.97397   0.78075   0.40214   0.00000  Uiso   1.00
N274   N     0.35331   0.13754   0.38451   0.00000  Uiso   1.00
N275   N     0.35170   0.21425   0.02405   0.00000  Uiso   1.00
N276   N     0.90915   0.92268   0.45010   0.00000  Uiso   1.00
C277   C     0.22477   0.43706   0.26592   0.00000  Uiso   1.00
C278   C     0.20124   0.48787   0.22595   0.00000  Uiso   1.00
C279   C     0.14534   0.45155   0.21907   0.00000  Uiso   1.00
C280   C     0.13229   0.50915   0.18042   0.00000  Uiso   1.00
C281   C     0.08942   0.57429   0.12305   0.00000  Uiso   1.00
C282   C     0.20167   0.50902   0.32530   0.00000  Uiso   1.00
C283   C     0.14614   0.49046   0.40195   0.00000  Uiso   1.00
C284   C     0.13346   0.56587   0.44693   0.00000  Uiso   1.00
C285   C     0.09131   0.66382   0.54379   0.00000  Uiso   1.00
C286   C     0.32363   0.42866   0.20788   0.00000  Uiso   1.00
C287   C     0.37066   0.34255   0.18580   0.00000  Uiso   1.00
C288   C     0.46066   0.35031   0.13193   0.00000  Uiso   1.00
C289   C     0.60788   0.32348   0.04647   0.00000  Uiso   1.00
C290   C     0.30099   0.60397   0.20953   0.00000  Uiso   1.00
C291   C     0.24264   0.57853   0.19532   0.00000  Uiso   1.00
C292   C     0.22967   0.63621   0.15667   0.00000  Uiso   1.00
C293   C     0.17376   0.59997   0.14973   0.00000  Uiso   1.00
C294   C     0.24307   0.59968   0.29467   0.00000  Uiso   1.00
C295   C     0.23047   0.67513   0.33955   0.00000  Uiso   1.00
C296   C     0.17494   0.65670   0.41624   0.00000  Uiso   1.00
C297   C     0.36504   0.51932   0.17724   0.00000  Uiso   1.00
C298   C     0.45499   0.52721   0.12340   0.00000  Uiso   1.00
C299   C     0.50214   0.44113   0.10124   0.00000  Uiso   1.00
H300   H     0.19254   0.36648   0.28978   0.00000  Uiso   1.00
H301   H     0.11331   0.38139   0.24279   0.00000  Uiso   1.00
H302   H     0.11412   0.42030   0.42563   0.00000  Uiso   1.00
H303   H     0.33860   0.27240   0.20952   0.00000  Uiso   1.00
H304   H     0.04370   0.43791   0.17721   0.00000  Uiso   1.00
H305   H     0.04544   0.51995   0.56274   0.00000  Uiso   1.00
H306   H     0.51879   0.20808   0.10703   0.00000  Uiso   1.00
H307   H     0.33323   0.67455   0.18568   0.00000  Uiso   1.00
H308   H     0.26172   0.70637   0.13297   0.00000  Uiso   1.00
H309   H     0.26252   0.74528   0.31582   0.00000  Uiso   1.00
H310   H     0.48700   0.59738   0.09971   0.00000  Uiso   1.00
H311   H     0.16415   0.70168   0.08808   0.00000  Uiso   1.00
H312   H     0.16588   0.78371   0.47362   0.00000  Uiso   1.00
H313   H     0.63924   0.47185   0.01790   0.00000  Uiso   1.00
O314   O     0.05432   0.58518   0.09988   0.00000  Uiso   1.00
O315   O     0.05661   0.69280   0.60568   0.00000  Uiso   1.00
O316   O     0.67764   0.28364   0.00779   0.00000  Uiso   1.00
N317   N     0.08188   0.49561   0.16345   0.00000  Uiso   1.00
N318   N     0.08349   0.57232   0.52391   0.00000  Uiso   1.00
N319   N     0.52603   0.28075   0.09786   0.00000  Uiso   1.00
N320   N     0.14669   0.63754   0.11549   0.00000  Uiso   1.00
N321   N     0.14830   0.71425   0.47595   0.00000  Uiso   1.00
N322   N     0.59085   0.42268   0.04990   0.00000  Uiso   1.00
C323   C     0.72477   0.93706   0.26592   0.00000  Uiso   1.00
C324   C     0.70124   0.98787   0.22595   0.00000  Uiso   1.00
C325   C     0.64534   0.95155   0.21907   0.00000  Uiso   1.00
C326   C     0.63229   0.00915   0.18042   0.00000  Uiso   1.00
C327   C     0.58942   0.07429   0.12305   0.00000  Uiso   1.00
C328   C     0.70167   0.00902   0.32530   0.00000  Uiso   1.00
C329   C     0.64614   0.99046   0.40195   0.00000  Uiso   1.00
C330   C     0.63346   0.06587   0.44693   0.00000  Uiso   1.00
C331   C     0.59131   0.16382   0.54379   0.00000  Uiso   1.00
C332   C     0.82363   0.92866   0.20788   0.00000  Uiso   1.00
C333   C     0.87066   0.84255   0.18580   0.00000  Uiso   1.00
C334   C     0.96066   0.85031   0.13193   0.00000  Uiso   1.00
C335   C     0.10788   0.82348   0.04647   0.00000  Uiso   1.00
C336   C     0.80099   0.10397   0.20953   0.00000  Uiso   1.00
C337   C     0.74264   0.07853   0.19532   0.00000  Uiso   1.00
C338   C     0.72967   0.13621   0.15667   0.00000  Uiso   1.00
C339   C     0.67376   0.09997   0.14973   0.00000  Uiso   1.00
C340   C     0.74307   0.09968   0.29467   0.00000  Uiso   1.00
C341   C     0.73047   0.17513   0.33955   0.00000  Uiso   1.00
C342   C     0.67494   0.15670   0.41624   0.00000  Uiso   1.00
C343   C     0.86504   0.01932   0.17724   0.00000  Uiso   1.00
C344   C     0.95499   0.02721   0.12340   0.00000  Uiso   1.00
C345   C     0.00214   0.94113   0.10124   0.00000  Uiso   1.00
H346   H     0.69254   0.86648   0.28978   0.00000  Uiso   1.00
H347   H     0.61331   0.88139   0.24279   0.00000  Uiso   1.00
H348   H     0.61412   0.92030   0.42563   0.00000  Uiso   1.00
H349   H     0.83860   0.77240   0.20952   0.00000  Uiso   1.00
H350   H     0.54370   0.93791   0.17721   0.00000  Uiso   1.00
H351   H     0.54544   0.01995   0.56274   0.00000  Uiso   1.00
H352   H     0.01879   0.70808   0.10703   0.00000  Uiso   1.00
H353   H     0.83323   0.17455   0.18568   0.00000  Uiso   1.00
H354   H     0.76172   0.20637   0.13297   0.00000  Uiso   1.00
H355   H     0.76252   0.24528   0.31582   0.00000  Uiso   1.00
H356   H     0.98700   0.09738   0.09971   0.00000  Uiso   1.00
H357   H     0.66415   0.20168   0.08808   0.00000  Uiso   1.00
H358   H     0.66588   0.28371   0.47362   0.00000  Uiso   1.00
H359   H     0.13924   0.97185   0.01790   0.00000  Uiso   1.00
O360   O     0.55432   0.08518   0.09988   0.00000  Uiso   1.00
O361   O     0.55661   0.19280   0.60568   0.00000  Uiso   1.00
O362   O     0.17764   0.78364   0.00779   0.00000  Uiso   1.00
N363   N     0.58188   0.99561   0.16345   0.00000  Uiso   1.00
N364   N     0.58349   0.07232   0.52391   0.00000  Uiso   1.00
N365   N     0.02603   0.78075   0.09786   0.00000  Uiso   1.00
N366   N     0.64669   0.13754   0.11549   0.00000  Uiso   1.00
N367   N     0.64830   0.21425   0.47595   0.00000  Uiso   1.00
N368   N     0.09085   0.92268   0.04990   0.00000  Uiso   1.00
