data_job_03185
_audit_creation_date              2018-12-19
_audit_creation_method            'Materials Studio'
_symmetry_space_group_name_H-M    'P1'
_symmetry_Int_Tables_number       1
_symmetry_cell_setting            triclinic
loop_
_symmetry_equiv_pos_as_xyz
  x,y,z
_cell_length_a                    20.6908
_cell_length_b                    20.6908
_cell_length_c                    21.7359
_cell_angle_alpha                 90.0000
_cell_angle_beta                  90.0000
_cell_angle_gamma                 120.0000
loop_
_atom_site_label
_atom_site_type_symbol
_atom_site_fract_x
_atom_site_fract_y
_atom_site_fract_z
_atom_site_U_iso_or_equiv
_atom_site_adp_type
_atom_site_occupancy
C1     C     0.31410   0.92192   0.29433   0.00000  Uiso   1.00
C2     C     0.24294   0.91435   0.32210   0.00000  Uiso   1.00
C3     C     0.18215   0.90713   0.28927   0.00000  Uiso   1.00
C4     C     0.12244   0.90092   0.32317   0.00000  Uiso   1.00
C5     C     0.01180   0.88905   0.35649   0.00000  Uiso   1.00
C6     C     0.37818   0.99396   0.32044   0.00000  Uiso   1.00
C7     C     0.43111   0.05367   0.28621   0.00000  Uiso   1.00
C8     C     0.48524   0.11447   0.31873   0.00000  Uiso   1.00
C9     C     0.58460   0.22617   0.34947   0.00000  Uiso   1.00
C10    C     0.32257   0.85872   0.32174   0.00000  Uiso   1.00
C11    C     0.32875   0.80472   0.28860   0.00000  Uiso   1.00
C12    C     0.33609   0.75168   0.32221   0.00000  Uiso   1.00
C13    C     0.34910   0.65339   0.35496   0.00000  Uiso   1.00
C14    C     0.31615   0.92373   0.41294   0.00000  Uiso   1.00
C15    C     0.24406   0.91533   0.38652   0.00000  Uiso   1.00
C16    C     0.18442   0.90913   0.42049   0.00000  Uiso   1.00
C17    C     0.12355   0.90191   0.38771   0.00000  Uiso   1.00
C18    C     0.37930   0.99494   0.38486   0.00000  Uiso   1.00
C19    C     0.43337   0.05567   0.41744   0.00000  Uiso   1.00
C20    C     0.48636   0.11546   0.38327   0.00000  Uiso   1.00
C21    C     0.32368   0.85970   0.38616   0.00000  Uiso   1.00
C22    C     0.33101   0.80673   0.41982   0.00000  Uiso   1.00
C23    C     0.33720   0.75266   0.38674   0.00000  Uiso   1.00
H24    H     0.31324   0.92116   0.24418   0.00000  Uiso   1.00
H25    H     0.18132   0.90638   0.23941   0.00000  Uiso   1.00
H26    H     0.43024   0.05289   0.23636   0.00000  Uiso   1.00
H27    H     0.32789   0.80398   0.23875   0.00000  Uiso   1.00
H28    H     0.03556   0.89045   0.26253   0.00000  Uiso   1.00
H29    H     0.56044   0.19936   0.25610   0.00000  Uiso   1.00
H30    H     0.34463   0.67450   0.26113   0.00000  Uiso   1.00
H31    H     0.31701   0.92450   0.46310   0.00000  Uiso   1.00
H32    H     0.18530   0.90989   0.47034   0.00000  Uiso   1.00
H33    H     0.43422   0.05641   0.46729   0.00000  Uiso   1.00
H34    H     0.33187   0.80750   0.46968   0.00000  Uiso   1.00
H35    H     0.03879   0.89331   0.44996   0.00000  Uiso   1.00
H36    H     0.56367   0.20222   0.44353   0.00000  Uiso   1.00
H37    H     0.34786   0.67735   0.44856   0.00000  Uiso   1.00
O38    O     0.95047   0.88224   0.35706   0.00000  Uiso   1.00
O39    O     0.63910   0.28751   0.34863   0.00000  Uiso   1.00
O40    O     0.35595   0.59890   0.35523   0.00000  Uiso   1.00
N41    N     0.05439   0.89311   0.30565   0.00000  Uiso   1.00
N42    N     0.54511   0.18193   0.29964   0.00000  Uiso   1.00
N43    N     0.34337   0.69124   0.30434   0.00000  Uiso   1.00
N44    N     0.05613   0.89465   0.40651   0.00000  Uiso   1.00
N45    N     0.54685   0.18347   0.40049   0.00000  Uiso   1.00
N46    N     0.34511   0.69277   0.40520   0.00000  Uiso   1.00
C47    C     0.07808   0.39217   0.62767   0.00000  Uiso   1.00
C48    C     0.08565   0.32860   0.65543   0.00000  Uiso   1.00
C49    C     0.09287   0.27502   0.62260   0.00000  Uiso   1.00
C50    C     0.09908   0.22151   0.65651   0.00000  Uiso   1.00
C51    C     0.11095   0.12275   0.68982   0.00000  Uiso   1.00
C52    C     0.00604   0.38423   0.65378   0.00000  Uiso   1.00
C53    C     0.94633   0.37744   0.61955   0.00000  Uiso   1.00
C54    C     0.88553   0.37077   0.65206   0.00000  Uiso   1.00
C55    C     0.77383   0.35843   0.68280   0.00000  Uiso   1.00
C56    C     0.14128   0.46385   0.65507   0.00000  Uiso   1.00
C57    C     0.19528   0.52403   0.62193   0.00000  Uiso   1.00
C58    C     0.24832   0.58441   0.65554   0.00000  Uiso   1.00
C59    C     0.34661   0.69571   0.68829   0.00000  Uiso   1.00
C60    C     0.07627   0.39241   0.74627   0.00000  Uiso   1.00
C61    C     0.08467   0.32873   0.71986   0.00000  Uiso   1.00
C62    C     0.09087   0.27529   0.75382   0.00000  Uiso   1.00
C63    C     0.09809   0.22164   0.72104   0.00000  Uiso   1.00
C64    C     0.00506   0.38436   0.71820   0.00000  Uiso   1.00
C65    C     0.94433   0.37770   0.75077   0.00000  Uiso   1.00
C66    C     0.88454   0.37090   0.71660   0.00000  Uiso   1.00
C67    C     0.14030   0.46399   0.71949   0.00000  Uiso   1.00
C68    C     0.19327   0.52429   0.75316   0.00000  Uiso   1.00
C69    C     0.24734   0.58454   0.72008   0.00000  Uiso   1.00
H70    H     0.07884   0.39207   0.57751   0.00000  Uiso   1.00
H71    H     0.09362   0.27494   0.57274   0.00000  Uiso   1.00
H72    H     0.94711   0.37735   0.56970   0.00000  Uiso   1.00
H73    H     0.19602   0.52391   0.57208   0.00000  Uiso   1.00
H74    H     0.10955   0.14511   0.59587   0.00000  Uiso   1.00
H75    H     0.80064   0.36107   0.58944   0.00000  Uiso   1.00
H76    H     0.32550   0.67013   0.59447   0.00000  Uiso   1.00
H77    H     0.07550   0.39251   0.79643   0.00000  Uiso   1.00
H78    H     0.09011   0.27540   0.80367   0.00000  Uiso   1.00
H79    H     0.94359   0.37781   0.80062   0.00000  Uiso   1.00
H80    H     0.19250   0.52437   0.80301   0.00000  Uiso   1.00
H81    H     0.10669   0.14549   0.78330   0.00000  Uiso   1.00
H82    H     0.79778   0.36145   0.77687   0.00000  Uiso   1.00
H83    H     0.32265   0.67050   0.78190   0.00000  Uiso   1.00
O84    O     0.11776   0.06824   0.69040   0.00000  Uiso   1.00
O85    O     0.71249   0.35158   0.68196   0.00000  Uiso   1.00
O86    O     0.40110   0.75705   0.68856   0.00000  Uiso   1.00
N87    N     0.10689   0.16128   0.63898   0.00000  Uiso   1.00
N88    N     0.81807   0.36318   0.63297   0.00000  Uiso   1.00
N89    N     0.30876   0.65213   0.63767   0.00000  Uiso   1.00
N90    N     0.10535   0.16148   0.73984   0.00000  Uiso   1.00
N91    N     0.81653   0.36338   0.73383   0.00000  Uiso   1.00
N92    N     0.30723   0.65233   0.73853   0.00000  Uiso   1.00
C93    C     0.60783   0.68590   0.96100   0.00000  Uiso   1.00
C94    C     0.67140   0.75706   0.98877   0.00000  Uiso   1.00
C95    C     0.72498   0.81785   0.95593   0.00000  Uiso   1.00
C96    C     0.77849   0.87756   0.98984   0.00000  Uiso   1.00
C97    C     0.87725   0.98820   0.02315   0.00000  Uiso   1.00
C98    C     0.61577   0.62182   0.98711   0.00000  Uiso   1.00
C99    C     0.62256   0.56889   0.95288   0.00000  Uiso   1.00
C100   C     0.62923   0.51476   0.98540   0.00000  Uiso   1.00
C101   C     0.64157   0.41540   0.01614   0.00000  Uiso   1.00
C102   C     0.53615   0.67743   0.98841   0.00000  Uiso   1.00
C103   C     0.47597   0.67125   0.95527   0.00000  Uiso   1.00
C104   C     0.41559   0.66391   0.98887   0.00000  Uiso   1.00
C105   C     0.30429   0.65090   0.02162   0.00000  Uiso   1.00
C106   C     0.60759   0.68385   0.07961   0.00000  Uiso   1.00
C107   C     0.67127   0.75594   0.05319   0.00000  Uiso   1.00
C108   C     0.72471   0.81558   0.08716   0.00000  Uiso   1.00
C109   C     0.77836   0.87645   0.05438   0.00000  Uiso   1.00
C110   C     0.61564   0.62070   0.05153   0.00000  Uiso   1.00
C111   C     0.62230   0.56663   0.08410   0.00000  Uiso   1.00
C112   C     0.62910   0.51364   0.04993   0.00000  Uiso   1.00
C113   C     0.53601   0.67632   0.05283   0.00000  Uiso   1.00
C114   C     0.47571   0.66899   0.08649   0.00000  Uiso   1.00
C115   C     0.41546   0.66280   0.05341   0.00000  Uiso   1.00
H116   H     0.60793   0.68676   0.91085   0.00000  Uiso   1.00
H117   H     0.72506   0.81868   0.90608   0.00000  Uiso   1.00
H118   H     0.62265   0.56976   0.90303   0.00000  Uiso   1.00
H119   H     0.47609   0.67211   0.90541   0.00000  Uiso   1.00
H120   H     0.85489   0.96444   0.92920   0.00000  Uiso   1.00
H121   H     0.63893   0.43956   0.92277   0.00000  Uiso   1.00
H122   H     0.32987   0.65537   0.92780   0.00000  Uiso   1.00
H123   H     0.60749   0.68299   0.12976   0.00000  Uiso   1.00
H124   H     0.72460   0.81470   0.13701   0.00000  Uiso   1.00
H125   H     0.62219   0.56578   0.13396   0.00000  Uiso   1.00
H126   H     0.47563   0.66813   0.13634   0.00000  Uiso   1.00
H127   H     0.85451   0.96121   0.11663   0.00000  Uiso   1.00
H128   H     0.63855   0.43633   0.11020   0.00000  Uiso   1.00
H129   H     0.32950   0.65214   0.11523   0.00000  Uiso   1.00
O130   O     0.93176   0.04953   0.02373   0.00000  Uiso   1.00
O131   O     0.64842   0.36090   0.01529   0.00000  Uiso   1.00
O132   O     0.24295   0.64405   0.02189   0.00000  Uiso   1.00
N133   N     0.83872   0.94561   0.97232   0.00000  Uiso   1.00
N134   N     0.63682   0.45489   0.96631   0.00000  Uiso   1.00
N135   N     0.34787   0.65663   0.97101   0.00000  Uiso   1.00
N136   N     0.83852   0.94387   0.07317   0.00000  Uiso   1.00
N137   N     0.63662   0.45315   0.06716   0.00000  Uiso   1.00
N138   N     0.34767   0.65489   0.07186   0.00000  Uiso   1.00
C139   C     0.68590   0.07808   0.79433   0.00000  Uiso   1.00
C140   C     0.75706   0.08565   0.82210   0.00000  Uiso   1.00
C141   C     0.81785   0.09287   0.78927   0.00000  Uiso   1.00
C142   C     0.87756   0.09908   0.82317   0.00000  Uiso   1.00
C143   C     0.98820   0.11095   0.85649   0.00000  Uiso   1.00
C144   C     0.62182   0.00604   0.82044   0.00000  Uiso   1.00
C145   C     0.56889   0.94633   0.78621   0.00000  Uiso   1.00
C146   C     0.51476   0.88553   0.81873   0.00000  Uiso   1.00
C147   C     0.41540   0.77383   0.84947   0.00000  Uiso   1.00
C148   C     0.67743   0.14128   0.82174   0.00000  Uiso   1.00
C149   C     0.67125   0.19528   0.78860   0.00000  Uiso   1.00
C150   C     0.66391   0.24832   0.82221   0.00000  Uiso   1.00
C151   C     0.65090   0.34661   0.85496   0.00000  Uiso   1.00
C152   C     0.68385   0.07627   0.91294   0.00000  Uiso   1.00
C153   C     0.75594   0.08467   0.88652   0.00000  Uiso   1.00
C154   C     0.81558   0.09087   0.92049   0.00000  Uiso   1.00
C155   C     0.87645   0.09809   0.88771   0.00000  Uiso   1.00
C156   C     0.62070   0.00506   0.88486   0.00000  Uiso   1.00
C157   C     0.56663   0.94433   0.91744   0.00000  Uiso   1.00
C158   C     0.51364   0.88454   0.88327   0.00000  Uiso   1.00
C159   C     0.67632   0.14030   0.88616   0.00000  Uiso   1.00
C160   C     0.66899   0.19327   0.91982   0.00000  Uiso   1.00
C161   C     0.66280   0.24734   0.88674   0.00000  Uiso   1.00
H162   H     0.68676   0.07884   0.74418   0.00000  Uiso   1.00
H163   H     0.81868   0.09362   0.73941   0.00000  Uiso   1.00
H164   H     0.56976   0.94711   0.73636   0.00000  Uiso   1.00
H165   H     0.67211   0.19602   0.73875   0.00000  Uiso   1.00
H166   H     0.96444   0.10955   0.76253   0.00000  Uiso   1.00
H167   H     0.43956   0.80064   0.75610   0.00000  Uiso   1.00
H168   H     0.65537   0.32550   0.76113   0.00000  Uiso   1.00
H169   H     0.68299   0.07550   0.96310   0.00000  Uiso   1.00
H170   H     0.81470   0.09011   0.97034   0.00000  Uiso   1.00
H171   H     0.56578   0.94359   0.96729   0.00000  Uiso   1.00
H172   H     0.66813   0.19250   0.96968   0.00000  Uiso   1.00
H173   H     0.96121   0.10669   0.94996   0.00000  Uiso   1.00
H174   H     0.43633   0.79778   0.94353   0.00000  Uiso   1.00
H175   H     0.65214   0.32265   0.94856   0.00000  Uiso   1.00
O176   O     0.04953   0.11776   0.85706   0.00000  Uiso   1.00
O177   O     0.36090   0.71249   0.84863   0.00000  Uiso   1.00
O178   O     0.64405   0.40110   0.85523   0.00000  Uiso   1.00
N179   N     0.94561   0.10689   0.80565   0.00000  Uiso   1.00
N180   N     0.45489   0.81807   0.79964   0.00000  Uiso   1.00
N181   N     0.65663   0.30876   0.80434   0.00000  Uiso   1.00
N182   N     0.94387   0.10535   0.90651   0.00000  Uiso   1.00
N183   N     0.45315   0.81653   0.90049   0.00000  Uiso   1.00
N184   N     0.65489   0.30723   0.90520   0.00000  Uiso   1.00
C185   C     0.92192   0.60783   0.12767   0.00000  Uiso   1.00
C186   C     0.91435   0.67140   0.15543   0.00000  Uiso   1.00
C187   C     0.90713   0.72498   0.12260   0.00000  Uiso   1.00
C188   C     0.90092   0.77849   0.15651   0.00000  Uiso   1.00
C189   C     0.88905   0.87725   0.18982   0.00000  Uiso   1.00
C190   C     0.99396   0.61577   0.15378   0.00000  Uiso   1.00
C191   C     0.05367   0.62256   0.11955   0.00000  Uiso   1.00
C192   C     0.11447   0.62923   0.15206   0.00000  Uiso   1.00
C193   C     0.22617   0.64157   0.18280   0.00000  Uiso   1.00
C194   C     0.85872   0.53615   0.15507   0.00000  Uiso   1.00
C195   C     0.80472   0.47597   0.12193   0.00000  Uiso   1.00
C196   C     0.75168   0.41559   0.15554   0.00000  Uiso   1.00
C197   C     0.65339   0.30429   0.18829   0.00000  Uiso   1.00
C198   C     0.92373   0.60759   0.24627   0.00000  Uiso   1.00
C199   C     0.91533   0.67127   0.21986   0.00000  Uiso   1.00
C200   C     0.90913   0.72471   0.25382   0.00000  Uiso   1.00
C201   C     0.90191   0.77836   0.22104   0.00000  Uiso   1.00
C202   C     0.99494   0.61564   0.21820   0.00000  Uiso   1.00
C203   C     0.05567   0.62230   0.25077   0.00000  Uiso   1.00
C204   C     0.11546   0.62910   0.21660   0.00000  Uiso   1.00
C205   C     0.85970   0.53601   0.21949   0.00000  Uiso   1.00
C206   C     0.80673   0.47571   0.25316   0.00000  Uiso   1.00
C207   C     0.75266   0.41546   0.22008   0.00000  Uiso   1.00
H208   H     0.92116   0.60793   0.07751   0.00000  Uiso   1.00
H209   H     0.90638   0.72506   0.07274   0.00000  Uiso   1.00
H210   H     0.05289   0.62265   0.06970   0.00000  Uiso   1.00
H211   H     0.80398   0.47609   0.07208   0.00000  Uiso   1.00
H212   H     0.89045   0.85489   0.09587   0.00000  Uiso   1.00
H213   H     0.19936   0.63893   0.08944   0.00000  Uiso   1.00
H214   H     0.67450   0.32987   0.09447   0.00000  Uiso   1.00
H215   H     0.92450   0.60749   0.29643   0.00000  Uiso   1.00
H216   H     0.90989   0.72460   0.30367   0.00000  Uiso   1.00
H217   H     0.05641   0.62219   0.30062   0.00000  Uiso   1.00
H218   H     0.80750   0.47563   0.30301   0.00000  Uiso   1.00
H219   H     0.89331   0.85451   0.28330   0.00000  Uiso   1.00
H220   H     0.20222   0.63855   0.27687   0.00000  Uiso   1.00
H221   H     0.67735   0.32950   0.28190   0.00000  Uiso   1.00
O222   O     0.88224   0.93176   0.19040   0.00000  Uiso   1.00
O223   O     0.28751   0.64842   0.18196   0.00000  Uiso   1.00
O224   O     0.59890   0.24295   0.18856   0.00000  Uiso   1.00
N225   N     0.89311   0.83872   0.13898   0.00000  Uiso   1.00
N226   N     0.18193   0.63682   0.13297   0.00000  Uiso   1.00
N227   N     0.69124   0.34787   0.13767   0.00000  Uiso   1.00
N228   N     0.89465   0.83852   0.23984   0.00000  Uiso   1.00
N229   N     0.18347   0.63662   0.23383   0.00000  Uiso   1.00
N230   N     0.69277   0.34767   0.23853   0.00000  Uiso   1.00
C231   C     0.39217   0.31410   0.46100   0.00000  Uiso   1.00
C232   C     0.32860   0.24294   0.48877   0.00000  Uiso   1.00
C233   C     0.27502   0.18215   0.45593   0.00000  Uiso   1.00
C234   C     0.22151   0.12244   0.48984   0.00000  Uiso   1.00
C235   C     0.12275   0.01180   0.52315   0.00000  Uiso   1.00
C236   C     0.38423   0.37818   0.48711   0.00000  Uiso   1.00
C237   C     0.37744   0.43111   0.45288   0.00000  Uiso   1.00
C238   C     0.37077   0.48524   0.48540   0.00000  Uiso   1.00
C239   C     0.35843   0.58460   0.51614   0.00000  Uiso   1.00
C240   C     0.46385   0.32257   0.48841   0.00000  Uiso   1.00
C241   C     0.52403   0.32875   0.45527   0.00000  Uiso   1.00
C242   C     0.58441   0.33609   0.48887   0.00000  Uiso   1.00
C243   C     0.69571   0.34910   0.52162   0.00000  Uiso   1.00
C244   C     0.39241   0.31615   0.57961   0.00000  Uiso   1.00
C245   C     0.32873   0.24406   0.55319   0.00000  Uiso   1.00
C246   C     0.27529   0.18442   0.58716   0.00000  Uiso   1.00
C247   C     0.22164   0.12355   0.55438   0.00000  Uiso   1.00
C248   C     0.38436   0.37930   0.55153   0.00000  Uiso   1.00
C249   C     0.37770   0.43337   0.58410   0.00000  Uiso   1.00
C250   C     0.37090   0.48636   0.54993   0.00000  Uiso   1.00
C251   C     0.46399   0.32368   0.55283   0.00000  Uiso   1.00
C252   C     0.52429   0.33101   0.58649   0.00000  Uiso   1.00
C253   C     0.58454   0.33720   0.55341   0.00000  Uiso   1.00
H254   H     0.39207   0.31324   0.41085   0.00000  Uiso   1.00
H255   H     0.27494   0.18132   0.40608   0.00000  Uiso   1.00
H256   H     0.37735   0.43024   0.40303   0.00000  Uiso   1.00
H257   H     0.52391   0.32789   0.40541   0.00000  Uiso   1.00
H258   H     0.14511   0.03556   0.42920   0.00000  Uiso   1.00
H259   H     0.36107   0.56044   0.42277   0.00000  Uiso   1.00
H260   H     0.67013   0.34463   0.42780   0.00000  Uiso   1.00
H261   H     0.39251   0.31701   0.62976   0.00000  Uiso   1.00
H262   H     0.27540   0.18530   0.63701   0.00000  Uiso   1.00
H263   H     0.37781   0.43422   0.63396   0.00000  Uiso   1.00
H264   H     0.52437   0.33187   0.63634   0.00000  Uiso   1.00
H265   H     0.14549   0.03879   0.61663   0.00000  Uiso   1.00
H266   H     0.36145   0.56367   0.61020   0.00000  Uiso   1.00
H267   H     0.67050   0.34786   0.61523   0.00000  Uiso   1.00
O268   O     0.06824   0.95047   0.52373   0.00000  Uiso   1.00
O269   O     0.35158   0.63910   0.51529   0.00000  Uiso   1.00
O270   O     0.75705   0.35595   0.52189   0.00000  Uiso   1.00
N271   N     0.16128   0.05439   0.47232   0.00000  Uiso   1.00
N272   N     0.36318   0.54511   0.46631   0.00000  Uiso   1.00
N273   N     0.65213   0.34337   0.47101   0.00000  Uiso   1.00
N274   N     0.16148   0.05613   0.57317   0.00000  Uiso   1.00
N275   N     0.36338   0.54685   0.56716   0.00000  Uiso   1.00
N276   N     0.65233   0.34511   0.57186   0.00000  Uiso   1.00
