data_job_00444
_audit_creation_date              2018-12-19
_audit_creation_method            'Materials Studio'
_symmetry_space_group_name_H-M    'P1'
_symmetry_Int_Tables_number       1
_symmetry_cell_setting            triclinic
loop_
_symmetry_equiv_pos_as_xyz
  x,y,z
_cell_length_a                    11.2418
_cell_length_b                    12.2865
_cell_length_c                    11.5603
_cell_angle_alpha                 65.6379
_cell_angle_beta                  97.7316
_cell_angle_gamma                 101.8630
loop_
_atom_site_label
_atom_site_type_symbol
_atom_site_fract_x
_atom_site_fract_y
_atom_site_fract_z
_atom_site_U_iso_or_equiv
_atom_site_adp_type
_atom_site_occupancy
C1     C     0.32924   0.82805   0.81019   0.00000  Uiso   1.00
C2     C     0.31408   0.80008   0.94926   0.00000  Uiso   1.00
C3     C     0.40470   0.77477   0.04619   0.00000  Uiso   1.00
C4     C     0.37255   0.75154   0.16701   0.00000  Uiso   1.00
C5     C     0.36703   0.70775   0.37947   0.00000  Uiso   1.00
C6     C     0.23442   0.73582   0.77665   0.00000  Uiso   1.00
C7     C     0.25808   0.65649   0.72843   0.00000  Uiso   1.00
C8     C     0.15887   0.57917   0.70394   0.00000  Uiso   1.00
C9     C     0.02967   0.43567   0.64832   0.00000  Uiso   1.00
C10    C     0.28965   0.95081   0.73361   0.00000  Uiso   1.00
C11    C     0.35973   0.05224   0.64918   0.00000  Uiso   1.00
C12    C     0.30700   0.15593   0.58843   0.00000  Uiso   1.00
C13    C     0.26355   0.34623   0.46599   0.00000  Uiso   1.00
C14    C     0.11099   0.83181   0.85240   0.00000  Uiso   1.00
C15    C     0.19553   0.80213   0.97218   0.00000  Uiso   1.00
C16    C     0.16323   0.77894   0.09289   0.00000  Uiso   1.00
C17    C     0.25380   0.75359   0.18998   0.00000  Uiso   1.00
C18    C     0.11588   0.73786   0.79957   0.00000  Uiso   1.00
C19    C     0.01661   0.66066   0.77513   0.00000  Uiso   1.00
C20    C     0.04011   0.58122   0.72690   0.00000  Uiso   1.00
C21    C     0.17110   0.95286   0.75654   0.00000  Uiso   1.00
C22    C     0.11825   0.05640   0.69589   0.00000  Uiso   1.00
C23    C     0.18824   0.15797   0.61139   0.00000  Uiso   1.00
H24    H     0.42153   0.82645   0.79234   0.00000  Uiso   1.00
H25    H     0.49643   0.77318   0.02841   0.00000  Uiso   1.00
H26    H     0.34983   0.65493   0.71069   0.00000  Uiso   1.00
H27    H     0.45146   0.05062   0.63146   0.00000  Uiso   1.00
H28    H     0.52718   0.71499   0.30025   0.00000  Uiso   1.00
H29    H     0.21806   0.46568   0.63028   0.00000  Uiso   1.00
H30    H     0.43237   0.30006   0.46321   0.00000  Uiso   1.00
H31    H     0.01869   0.83341   0.87025   0.00000  Uiso   1.00
H32    H     0.07148   0.78053   0.11060   0.00000  Uiso   1.00
H33    H     0.92488   0.66227   0.79288   0.00000  Uiso   1.00
H34    H     0.02651   0.05796   0.71366   0.00000  Uiso   1.00
H35    H     0.18228   0.72094   0.36697   0.00000  Uiso   1.00
H36    H     0.87315   0.47163   0.69698   0.00000  Uiso   1.00
H37    H     0.08746   0.30602   0.52992   0.00000  Uiso   1.00
O38    O     0.39672   0.68301   0.49032   0.00000  Uiso   1.00
O39    O     0.99116   0.35594   0.61132   0.00000  Uiso   1.00
O40    O     0.27233   0.45063   0.39214   0.00000  Uiso   1.00
N41    N     0.43877   0.72367   0.28296   0.00000  Uiso   1.00
N42    N     0.14976   0.49056   0.65660   0.00000  Uiso   1.00
N43    N     0.35011   0.27064   0.50038   0.00000  Uiso   1.00
N44    N     0.25318   0.72687   0.31886   0.00000  Uiso   1.00
N45    N     0.96417   0.49377   0.69250   0.00000  Uiso   1.00
N46    N     0.16452   0.27384   0.53628   0.00000  Uiso   1.00
C47    C     0.67076   0.17195   0.18981   0.00000  Uiso   1.00
C48    C     0.68592   0.19992   0.05074   0.00000  Uiso   1.00
C49    C     0.59530   0.22523   0.95381   0.00000  Uiso   1.00
C50    C     0.62745   0.24846   0.83299   0.00000  Uiso   1.00
C51    C     0.63297   0.29225   0.62053   0.00000  Uiso   1.00
C52    C     0.76558   0.26418   0.22335   0.00000  Uiso   1.00
C53    C     0.74192   0.34351   0.27157   0.00000  Uiso   1.00
C54    C     0.84113   0.42083   0.29606   0.00000  Uiso   1.00
C55    C     0.97033   0.56433   0.35168   0.00000  Uiso   1.00
C56    C     0.71035   0.04919   0.26639   0.00000  Uiso   1.00
C57    C     0.64027   0.94776   0.35082   0.00000  Uiso   1.00
C58    C     0.69300   0.84407   0.41157   0.00000  Uiso   1.00
C59    C     0.73645   0.65377   0.53401   0.00000  Uiso   1.00
C60    C     0.88901   0.16819   0.14760   0.00000  Uiso   1.00
C61    C     0.80447   0.19787   0.02782   0.00000  Uiso   1.00
C62    C     0.83677   0.22106   0.90711   0.00000  Uiso   1.00
C63    C     0.74620   0.24641   0.81002   0.00000  Uiso   1.00
C64    C     0.88412   0.26214   0.20043   0.00000  Uiso   1.00
C65    C     0.98339   0.33934   0.22487   0.00000  Uiso   1.00
C66    C     0.95989   0.41878   0.27310   0.00000  Uiso   1.00
C67    C     0.82890   0.04714   0.24346   0.00000  Uiso   1.00
C68    C     0.88175   0.94360   0.30411   0.00000  Uiso   1.00
C69    C     0.81176   0.84203   0.38861   0.00000  Uiso   1.00
H70    H     0.57847   0.17355   0.20766   0.00000  Uiso   1.00
H71    H     0.50357   0.22682   0.97159   0.00000  Uiso   1.00
H72    H     0.65017   0.34507   0.28931   0.00000  Uiso   1.00
H73    H     0.54854   0.94938   0.36854   0.00000  Uiso   1.00
H74    H     0.47282   0.28501   0.69975   0.00000  Uiso   1.00
H75    H     0.78194   0.53432   0.36972   0.00000  Uiso   1.00
H76    H     0.56763   0.69994   0.53679   0.00000  Uiso   1.00
H77    H     0.98131   0.16659   0.12975   0.00000  Uiso   1.00
H78    H     0.92852   0.21947   0.88940   0.00000  Uiso   1.00
H79    H     0.07512   0.33773   0.20712   0.00000  Uiso   1.00
H80    H     0.97349   0.94204   0.28634   0.00000  Uiso   1.00
H81    H     0.81772   0.27906   0.63303   0.00000  Uiso   1.00
H82    H     0.12685   0.52837   0.30302   0.00000  Uiso   1.00
H83    H     0.91254   0.69398   0.47008   0.00000  Uiso   1.00
O84    O     0.60328   0.31699   0.50968   0.00000  Uiso   1.00
O85    O     0.00884   0.64406   0.38868   0.00000  Uiso   1.00
O86    O     0.72767   0.54937   0.60786   0.00000  Uiso   1.00
N87    N     0.56123   0.27633   0.71704   0.00000  Uiso   1.00
N88    N     0.85024   0.50944   0.34340   0.00000  Uiso   1.00
N89    N     0.64989   0.72936   0.49962   0.00000  Uiso   1.00
N90    N     0.74682   0.27313   0.68114   0.00000  Uiso   1.00
N91    N     0.03583   0.50623   0.30750   0.00000  Uiso   1.00
N92    N     0.83548   0.72616   0.46372   0.00000  Uiso   1.00
