data_job_03578
_audit_creation_date              2018-12-19
_audit_creation_method            'Materials Studio'
_symmetry_space_group_name_H-M    'P1'
_symmetry_Int_Tables_number       1
_symmetry_cell_setting            triclinic
loop_
_symmetry_equiv_pos_as_xyz
  x,y,z
_cell_length_a                    22.2183
_cell_length_b                    17.5758
_cell_length_c                    19.3265
_cell_angle_alpha                 90.0000
_cell_angle_beta                  159.9548
_cell_angle_gamma                 90.0000
loop_
_atom_site_label
_atom_site_type_symbol
_atom_site_fract_x
_atom_site_fract_y
_atom_site_fract_z
_atom_site_U_iso_or_equiv
_atom_site_adp_type
_atom_site_occupancy
C1     C     0.14892   0.70068   0.15514   0.00000  Uiso   1.00
C2     C     0.16955   0.78393   0.19813   0.00000  Uiso   1.00
C3     C     0.32727   0.82304   0.37384   0.00000  Uiso   1.00
C4     C     0.31833   0.89890   0.38388   0.00000  Uiso   1.00
C5     C     0.37485   0.02276   0.47501   0.00000  Uiso   1.00
C6     C     0.04855   0.66267   0.10561   0.00000  Uiso   1.00
C7     C     0.10452   0.59982   0.20352   0.00000  Uiso   1.00
C8     C     0.99369   0.57361   0.13566   0.00000  Uiso   1.00
C9     C     0.86230   0.50918   0.08306   0.00000  Uiso   1.00
C10    C     0.02559   0.70013   0.95979   0.00000  Uiso   1.00
C11    C     0.06223   0.66875   0.93506   0.00000  Uiso   1.00
C12    C     0.93205   0.67406   0.74441   0.00000  Uiso   1.00
C13    C     0.76500   0.66779   0.46540   0.00000  Uiso   1.00
C14    C     0.85257   0.76588   0.86051   0.00000  Uiso   1.00
C15    C     0.00858   0.81934   0.03810   0.00000  Uiso   1.00
C16    C     0.99940   0.89517   0.04787   0.00000  Uiso   1.00
C17    C     0.15707   0.93438   0.22356   0.00000  Uiso   1.00
C18    C     0.88759   0.69808   0.94559   0.00000  Uiso   1.00
C19    C     0.77664   0.67195   0.87755   0.00000  Uiso   1.00
C20    C     0.83244   0.60908   0.97534   0.00000  Uiso   1.00
C21    C     0.86462   0.73554   0.79975   0.00000  Uiso   1.00
C22    C     0.73436   0.74089   0.60909   0.00000  Uiso   1.00
C23    C     0.77079   0.70953   0.58409   0.00000  Uiso   1.00
H24    H     0.27423   0.67311   0.27973   0.00000  Uiso   1.00
H25    H     0.45181   0.79561   0.49766   0.00000  Uiso   1.00
H26    H     0.22908   0.57243   0.32735   0.00000  Uiso   1.00
H27    H     0.18680   0.64135   0.05894   0.00000  Uiso   1.00
H28    H     0.57771   0.94703   0.66873   0.00000  Uiso   1.00
H29    H     0.10804   0.47642   0.30958   0.00000  Uiso   1.00
H30    H     0.01889   0.62176   0.74357   0.00000  Uiso   1.00
H31    H     0.72725   0.79345   0.73592   0.00000  Uiso   1.00
H32    H     0.87481   0.92255   0.92400   0.00000  Uiso   1.00
H33    H     0.65209   0.69936   0.75370   0.00000  Uiso   1.00
H34    H     0.60981   0.76829   0.48529   0.00000  Uiso   1.00
H35    H     0.10940   0.05006   0.20313   0.00000  Uiso   1.00
H36    H     0.63973   0.57944   0.84398   0.00000  Uiso   1.00
H37    H     0.55057   0.72479   0.27798   0.00000  Uiso   1.00
O38    O     0.45050   0.08130   0.56950   0.00000  Uiso   1.00
O39    O     0.83430   0.46386   0.09828   0.00000  Uiso   1.00
O40    O     0.71734   0.65456   0.35571   0.00000  Uiso   1.00
N41    N     0.44724   0.95356   0.53332   0.00000  Uiso   1.00
N42    N     0.00814   0.51358   0.19756   0.00000  Uiso   1.00
N43    N     0.92477   0.64944   0.66838   0.00000  Uiso   1.00
N44    N     0.19524   0.00900   0.28278   0.00000  Uiso   1.00
N45    N     0.75615   0.56902   0.94702   0.00000  Uiso   1.00
N46    N     0.67278   0.70488   0.41785   0.00000  Uiso   1.00
C47    C     0.85108   0.20068   0.34486   0.00000  Uiso   1.00
C48    C     0.83045   0.28393   0.30187   0.00000  Uiso   1.00
C49    C     0.67273   0.32304   0.12616   0.00000  Uiso   1.00
C50    C     0.68167   0.39890   0.11612   0.00000  Uiso   1.00
C51    C     0.62515   0.52276   0.02499   0.00000  Uiso   1.00
C52    C     0.95145   0.16267   0.39439   0.00000  Uiso   1.00
C53    C     0.89548   0.09982   0.29648   0.00000  Uiso   1.00
C54    C     0.00631   0.07361   0.36434   0.00000  Uiso   1.00
C55    C     0.13770   0.00918   0.41694   0.00000  Uiso   1.00
C56    C     0.97441   0.20013   0.54021   0.00000  Uiso   1.00
C57    C     0.93777   0.16875   0.56494   0.00000  Uiso   1.00
C58    C     0.06795   0.17406   0.75559   0.00000  Uiso   1.00
C59    C     0.23500   0.16779   0.03460   0.00000  Uiso   1.00
C60    C     0.14743   0.26588   0.63949   0.00000  Uiso   1.00
C61    C     0.99142   0.31934   0.46190   0.00000  Uiso   1.00
C62    C     0.00060   0.39517   0.45213   0.00000  Uiso   1.00
C63    C     0.84293   0.43438   0.27644   0.00000  Uiso   1.00
C64    C     0.11241   0.19808   0.55441   0.00000  Uiso   1.00
C65    C     0.22336   0.17195   0.62245   0.00000  Uiso   1.00
C66    C     0.16756   0.10908   0.52466   0.00000  Uiso   1.00
C67    C     0.13538   0.23554   0.70025   0.00000  Uiso   1.00
C68    C     0.26564   0.24089   0.89091   0.00000  Uiso   1.00
C69    C     0.22921   0.20953   0.91591   0.00000  Uiso   1.00
H70    H     0.72577   0.17311   0.22027   0.00000  Uiso   1.00
H71    H     0.54819   0.29561   0.00234   0.00000  Uiso   1.00
H72    H     0.77092   0.07243   0.17265   0.00000  Uiso   1.00
H73    H     0.81320   0.14135   0.44106   0.00000  Uiso   1.00
H74    H     0.42229   0.44703   0.83127   0.00000  Uiso   1.00
H75    H     0.89196   0.97642   0.19042   0.00000  Uiso   1.00
H76    H     0.98111   0.12176   0.75643   0.00000  Uiso   1.00
H77    H     0.27275   0.29345   0.76408   0.00000  Uiso   1.00
H78    H     0.12519   0.42255   0.57600   0.00000  Uiso   1.00
H79    H     0.34791   0.19936   0.74630   0.00000  Uiso   1.00
H80    H     0.39019   0.26829   0.01471   0.00000  Uiso   1.00
H81    H     0.89060   0.55006   0.29687   0.00000  Uiso   1.00
H82    H     0.36027   0.07944   0.65602   0.00000  Uiso   1.00
H83    H     0.44943   0.22479   0.22202   0.00000  Uiso   1.00
O84    O     0.54950   0.58130   0.93050   0.00000  Uiso   1.00
O85    O     0.16570   0.96386   0.40172   0.00000  Uiso   1.00
O86    O     0.28266   0.15456   0.14429   0.00000  Uiso   1.00
N87    N     0.55276   0.45356   0.96668   0.00000  Uiso   1.00
N88    N     0.99186   0.01358   0.30244   0.00000  Uiso   1.00
N89    N     0.07523   0.14944   0.83162   0.00000  Uiso   1.00
N90    N     0.80476   0.50900   0.21722   0.00000  Uiso   1.00
N91    N     0.24385   0.06902   0.55298   0.00000  Uiso   1.00
N92    N     0.32722   0.20488   0.08215   0.00000  Uiso   1.00
C93    C     0.85108   0.29932   0.84486   0.00000  Uiso   1.00
C94    C     0.83045   0.21607   0.80187   0.00000  Uiso   1.00
C95    C     0.67273   0.17696   0.62616   0.00000  Uiso   1.00
C96    C     0.68167   0.10110   0.61612   0.00000  Uiso   1.00
C97    C     0.62515   0.97724   0.52499   0.00000  Uiso   1.00
C98    C     0.95145   0.33733   0.89439   0.00000  Uiso   1.00
C99    C     0.89548   0.40018   0.79648   0.00000  Uiso   1.00
C100   C     0.00631   0.42639   0.86434   0.00000  Uiso   1.00
C101   C     0.13770   0.49082   0.91694   0.00000  Uiso   1.00
C102   C     0.97441   0.29987   0.04021   0.00000  Uiso   1.00
C103   C     0.93777   0.33125   0.06494   0.00000  Uiso   1.00
C104   C     0.06795   0.32594   0.25559   0.00000  Uiso   1.00
C105   C     0.23500   0.33221   0.53460   0.00000  Uiso   1.00
C106   C     0.14743   0.23412   0.13949   0.00000  Uiso   1.00
C107   C     0.99142   0.18066   0.96190   0.00000  Uiso   1.00
C108   C     0.00060   0.10483   0.95213   0.00000  Uiso   1.00
C109   C     0.84293   0.06562   0.77644   0.00000  Uiso   1.00
C110   C     0.11241   0.30192   0.05441   0.00000  Uiso   1.00
C111   C     0.22336   0.32805   0.12245   0.00000  Uiso   1.00
C112   C     0.16756   0.39092   0.02466   0.00000  Uiso   1.00
C113   C     0.13538   0.26446   0.20025   0.00000  Uiso   1.00
C114   C     0.26564   0.25911   0.39091   0.00000  Uiso   1.00
C115   C     0.22921   0.29047   0.41591   0.00000  Uiso   1.00
H116   H     0.72577   0.32689   0.72027   0.00000  Uiso   1.00
H117   H     0.54819   0.20439   0.50234   0.00000  Uiso   1.00
H118   H     0.77092   0.42757   0.67265   0.00000  Uiso   1.00
H119   H     0.81320   0.35865   0.94106   0.00000  Uiso   1.00
H120   H     0.42229   0.05297   0.33127   0.00000  Uiso   1.00
H121   H     0.89196   0.52358   0.69042   0.00000  Uiso   1.00
H122   H     0.98111   0.37824   0.25643   0.00000  Uiso   1.00
H123   H     0.27275   0.20655   0.26408   0.00000  Uiso   1.00
H124   H     0.12519   0.07745   0.07600   0.00000  Uiso   1.00
H125   H     0.34791   0.30064   0.24630   0.00000  Uiso   1.00
H126   H     0.39019   0.23171   0.51471   0.00000  Uiso   1.00
H127   H     0.89060   0.94994   0.79687   0.00000  Uiso   1.00
H128   H     0.36027   0.42056   0.15602   0.00000  Uiso   1.00
H129   H     0.44943   0.27521   0.72202   0.00000  Uiso   1.00
O130   O     0.54950   0.91870   0.43050   0.00000  Uiso   1.00
O131   O     0.16570   0.53614   0.90172   0.00000  Uiso   1.00
O132   O     0.28266   0.34544   0.64429   0.00000  Uiso   1.00
N133   N     0.55276   0.04644   0.46668   0.00000  Uiso   1.00
N134   N     0.99186   0.48642   0.80244   0.00000  Uiso   1.00
N135   N     0.07523   0.35056   0.33162   0.00000  Uiso   1.00
N136   N     0.80476   0.99100   0.71722   0.00000  Uiso   1.00
N137   N     0.24385   0.43098   0.05298   0.00000  Uiso   1.00
N138   N     0.32722   0.29512   0.58215   0.00000  Uiso   1.00
C139   C     0.14892   0.79932   0.65514   0.00000  Uiso   1.00
C140   C     0.16955   0.71607   0.69813   0.00000  Uiso   1.00
C141   C     0.32727   0.67696   0.87384   0.00000  Uiso   1.00
C142   C     0.31833   0.60110   0.88388   0.00000  Uiso   1.00
C143   C     0.37485   0.47724   0.97501   0.00000  Uiso   1.00
C144   C     0.04855   0.83733   0.60561   0.00000  Uiso   1.00
C145   C     0.10452   0.90018   0.70352   0.00000  Uiso   1.00
C146   C     0.99369   0.92639   0.63566   0.00000  Uiso   1.00
C147   C     0.86230   0.99082   0.58306   0.00000  Uiso   1.00
C148   C     0.02559   0.79987   0.45979   0.00000  Uiso   1.00
C149   C     0.06223   0.83125   0.43506   0.00000  Uiso   1.00
C150   C     0.93205   0.82594   0.24441   0.00000  Uiso   1.00
C151   C     0.76500   0.83221   0.96540   0.00000  Uiso   1.00
C152   C     0.85257   0.73412   0.36051   0.00000  Uiso   1.00
C153   C     0.00858   0.68066   0.53810   0.00000  Uiso   1.00
C154   C     0.99940   0.60483   0.54787   0.00000  Uiso   1.00
C155   C     0.15707   0.56562   0.72356   0.00000  Uiso   1.00
C156   C     0.88759   0.80192   0.44559   0.00000  Uiso   1.00
C157   C     0.77664   0.82805   0.37755   0.00000  Uiso   1.00
C158   C     0.83244   0.89092   0.47534   0.00000  Uiso   1.00
C159   C     0.86462   0.76446   0.29975   0.00000  Uiso   1.00
C160   C     0.73436   0.75911   0.10909   0.00000  Uiso   1.00
C161   C     0.77079   0.79047   0.08409   0.00000  Uiso   1.00
H162   H     0.27423   0.82689   0.77973   0.00000  Uiso   1.00
H163   H     0.45181   0.70439   0.99766   0.00000  Uiso   1.00
H164   H     0.22908   0.92757   0.82735   0.00000  Uiso   1.00
H165   H     0.18680   0.85865   0.55894   0.00000  Uiso   1.00
H166   H     0.57771   0.55297   0.16873   0.00000  Uiso   1.00
H167   H     0.10804   0.02358   0.80958   0.00000  Uiso   1.00
H168   H     0.01889   0.87824   0.24357   0.00000  Uiso   1.00
H169   H     0.72725   0.70655   0.23592   0.00000  Uiso   1.00
H170   H     0.87481   0.57745   0.42400   0.00000  Uiso   1.00
H171   H     0.65209   0.80064   0.25370   0.00000  Uiso   1.00
H172   H     0.60981   0.73171   0.98529   0.00000  Uiso   1.00
H173   H     0.10940   0.44994   0.70313   0.00000  Uiso   1.00
H174   H     0.63973   0.92056   0.34398   0.00000  Uiso   1.00
H175   H     0.55057   0.77521   0.77798   0.00000  Uiso   1.00
O176   O     0.45050   0.41870   0.06950   0.00000  Uiso   1.00
O177   O     0.83430   0.03614   0.59828   0.00000  Uiso   1.00
O178   O     0.71734   0.84544   0.85571   0.00000  Uiso   1.00
N179   N     0.44724   0.54644   0.03332   0.00000  Uiso   1.00
N180   N     0.00814   0.98642   0.69756   0.00000  Uiso   1.00
N181   N     0.92477   0.85056   0.16838   0.00000  Uiso   1.00
N182   N     0.19524   0.49100   0.78278   0.00000  Uiso   1.00
N183   N     0.75615   0.93098   0.44702   0.00000  Uiso   1.00
N184   N     0.67278   0.79512   0.91785   0.00000  Uiso   1.00
