data_job_02411
_audit_creation_date              2018-12-19
_audit_creation_method            'Materials Studio'
_symmetry_space_group_name_H-M    'P1'
_symmetry_Int_Tables_number       1
_symmetry_cell_setting            triclinic
loop_
_symmetry_equiv_pos_as_xyz
  x,y,z
_cell_length_a                    31.1148
_cell_length_b                    12.8637
_cell_length_c                    23.6914
_cell_angle_alpha                 90.0000
_cell_angle_beta                  137.0620
_cell_angle_gamma                 90.0000
loop_
_atom_site_label
_atom_site_type_symbol
_atom_site_fract_x
_atom_site_fract_y
_atom_site_fract_z
_atom_site_U_iso_or_equiv
_atom_site_adp_type
_atom_site_occupancy
C1     C     0.69898   0.22645   0.70039   0.00000  Uiso   1.00
C2     C     0.66416   0.13264   0.64287   0.00000  Uiso   1.00
C3     C     0.68944   0.03411   0.65961   0.00000  Uiso   1.00
C4     C     0.64989   0.95883   0.59897   0.00000  Uiso   1.00
C5     C     0.60534   0.80975   0.52098   0.00000  Uiso   1.00
C6     C     0.69384   0.31169   0.65095   0.00000  Uiso   1.00
C7     C     0.74408   0.36371   0.67449   0.00000  Uiso   1.00
C8     C     0.72952   0.43915   0.62066   0.00000  Uiso   1.00
C9     C     0.73105   0.56810   0.55525   0.00000  Uiso   1.00
C10    C     0.66001   0.26347   0.71315   0.00000  Uiso   1.00
C11    C     0.68182   0.27497   0.78900   0.00000  Uiso   1.00
C12    C     0.63878   0.30985   0.78754   0.00000  Uiso   1.00
C13    C     0.58779   0.36393   0.81872   0.00000  Uiso   1.00
C14    C     0.58378   0.26796   0.56293   0.00000  Uiso   1.00
C15    C     0.60158   0.15519   0.56820   0.00000  Uiso   1.00
C16    C     0.56198   0.08004   0.50752   0.00000  Uiso   1.00
C17    C     0.58721   0.98141   0.52417   0.00000  Uiso   1.00
C18    C     0.63127   0.33424   0.57628   0.00000  Uiso   1.00
C19    C     0.61662   0.40963   0.52240   0.00000  Uiso   1.00
C20    C     0.66683   0.46174   0.54586   0.00000  Uiso   1.00
C21    C     0.59744   0.28602   0.63849   0.00000  Uiso   1.00
C22    C     0.55436   0.32089   0.63691   0.00000  Uiso   1.00
C23    C     0.57610   0.33244   0.71274   0.00000  Uiso   1.00
H24    H     0.74770   0.20890   0.75852   0.00000  Uiso   1.00
H25    H     0.73787   0.01670   0.71739   0.00000  Uiso   1.00
H26    H     0.79250   0.34625   0.73228   0.00000  Uiso   1.00
H27    H     0.73025   0.25752   0.84677   0.00000  Uiso   1.00
H28    H     0.69938   0.81356   0.63886   0.00000  Uiso   1.00
H29    H     0.81457   0.50845   0.67026   0.00000  Uiso   1.00
H30    H     0.68330   0.32135   0.91168   0.00000  Uiso   1.00
H31    H     0.53506   0.28552   0.50479   0.00000  Uiso   1.00
H32    H     0.51356   0.09751   0.44974   0.00000  Uiso   1.00
H33    H     0.56820   0.42706   0.46463   0.00000  Uiso   1.00
H34    H     0.50594   0.33833   0.57912   0.00000  Uiso   1.00
H35    H     0.51733   0.87915   0.42162   0.00000  Uiso   1.00
H36    H     0.63252   0.57405   0.45303   0.00000  Uiso   1.00
H37    H     0.50124   0.38695   0.69444   0.00000  Uiso   1.00
O38    O     0.59806   0.72130   0.49859   0.00000  Uiso   1.00
O39    O     0.74918   0.63299   0.53980   0.00000  Uiso   1.00
O40    O     0.57695   0.38752   0.85654   0.00000  Uiso   1.00
N41    N     0.65948   0.85479   0.59529   0.00000  Uiso   1.00
N42    N     0.76718   0.50446   0.62465   0.00000  Uiso   1.00
N43    N     0.64446   0.32957   0.85036   0.00000  Uiso   1.00
N44    N     0.56152   0.89008   0.47840   0.00000  Uiso   1.00
N45    N     0.66922   0.53976   0.50775   0.00000  Uiso   1.00
N46    N     0.54649   0.36486   0.73346   0.00000  Uiso   1.00
C47    C     0.19898   0.72645   0.70039   0.00000  Uiso   1.00
C48    C     0.16416   0.63264   0.64287   0.00000  Uiso   1.00
C49    C     0.18944   0.53411   0.65961   0.00000  Uiso   1.00
C50    C     0.14989   0.45883   0.59897   0.00000  Uiso   1.00
C51    C     0.10534   0.30975   0.52098   0.00000  Uiso   1.00
C52    C     0.19384   0.81169   0.65095   0.00000  Uiso   1.00
C53    C     0.24408   0.86371   0.67449   0.00000  Uiso   1.00
C54    C     0.22952   0.93915   0.62066   0.00000  Uiso   1.00
C55    C     0.23105   0.06810   0.55525   0.00000  Uiso   1.00
C56    C     0.16001   0.76347   0.71315   0.00000  Uiso   1.00
C57    C     0.18182   0.77497   0.78900   0.00000  Uiso   1.00
C58    C     0.13878   0.80985   0.78754   0.00000  Uiso   1.00
C59    C     0.08779   0.86393   0.81872   0.00000  Uiso   1.00
C60    C     0.08378   0.76796   0.56293   0.00000  Uiso   1.00
C61    C     0.10158   0.65519   0.56820   0.00000  Uiso   1.00
C62    C     0.06198   0.58004   0.50752   0.00000  Uiso   1.00
C63    C     0.08721   0.48141   0.52417   0.00000  Uiso   1.00
C64    C     0.13127   0.83424   0.57628   0.00000  Uiso   1.00
C65    C     0.11662   0.90963   0.52240   0.00000  Uiso   1.00
C66    C     0.16683   0.96174   0.54586   0.00000  Uiso   1.00
C67    C     0.09744   0.78602   0.63849   0.00000  Uiso   1.00
C68    C     0.05436   0.82089   0.63691   0.00000  Uiso   1.00
C69    C     0.07610   0.83244   0.71274   0.00000  Uiso   1.00
H70    H     0.24770   0.70890   0.75852   0.00000  Uiso   1.00
H71    H     0.23787   0.51670   0.71739   0.00000  Uiso   1.00
H72    H     0.29250   0.84625   0.73228   0.00000  Uiso   1.00
H73    H     0.23025   0.75752   0.84677   0.00000  Uiso   1.00
H74    H     0.19938   0.31356   0.63886   0.00000  Uiso   1.00
H75    H     0.31457   0.00845   0.67026   0.00000  Uiso   1.00
H76    H     0.18330   0.82135   0.91168   0.00000  Uiso   1.00
H77    H     0.03506   0.78552   0.50479   0.00000  Uiso   1.00
H78    H     0.01356   0.59751   0.44974   0.00000  Uiso   1.00
H79    H     0.06820   0.92706   0.46463   0.00000  Uiso   1.00
H80    H     0.00594   0.83833   0.57912   0.00000  Uiso   1.00
H81    H     0.01733   0.37915   0.42162   0.00000  Uiso   1.00
H82    H     0.13252   0.07405   0.45303   0.00000  Uiso   1.00
H83    H     0.00124   0.88695   0.69444   0.00000  Uiso   1.00
O84    O     0.09806   0.22130   0.49859   0.00000  Uiso   1.00
O85    O     0.24918   0.13299   0.53980   0.00000  Uiso   1.00
O86    O     0.07695   0.88752   0.85654   0.00000  Uiso   1.00
N87    N     0.15948   0.35479   0.59529   0.00000  Uiso   1.00
N88    N     0.26718   0.00446   0.62465   0.00000  Uiso   1.00
N89    N     0.14446   0.82957   0.85036   0.00000  Uiso   1.00
N90    N     0.06152   0.39008   0.47840   0.00000  Uiso   1.00
N91    N     0.16922   0.03976   0.50775   0.00000  Uiso   1.00
N92    N     0.04649   0.86486   0.73346   0.00000  Uiso   1.00
C93    C     0.30102   0.22645   0.79961   0.00000  Uiso   1.00
C94    C     0.33584   0.13264   0.85713   0.00000  Uiso   1.00
C95    C     0.31056   0.03411   0.84039   0.00000  Uiso   1.00
C96    C     0.35011   0.95883   0.90103   0.00000  Uiso   1.00
C97    C     0.39466   0.80975   0.97902   0.00000  Uiso   1.00
C98    C     0.30616   0.31169   0.84905   0.00000  Uiso   1.00
C99    C     0.25592   0.36371   0.82551   0.00000  Uiso   1.00
C100   C     0.27048   0.43915   0.87934   0.00000  Uiso   1.00
C101   C     0.26895   0.56810   0.94475   0.00000  Uiso   1.00
C102   C     0.33999   0.26347   0.78685   0.00000  Uiso   1.00
C103   C     0.31818   0.27497   0.71100   0.00000  Uiso   1.00
C104   C     0.36122   0.30985   0.71246   0.00000  Uiso   1.00
C105   C     0.41221   0.36393   0.68128   0.00000  Uiso   1.00
C106   C     0.41622   0.26796   0.93707   0.00000  Uiso   1.00
C107   C     0.39842   0.15519   0.93180   0.00000  Uiso   1.00
C108   C     0.43802   0.08004   0.99248   0.00000  Uiso   1.00
C109   C     0.41279   0.98141   0.97583   0.00000  Uiso   1.00
C110   C     0.36873   0.33424   0.92372   0.00000  Uiso   1.00
C111   C     0.38338   0.40963   0.97760   0.00000  Uiso   1.00
C112   C     0.33317   0.46174   0.95414   0.00000  Uiso   1.00
C113   C     0.40256   0.28602   0.86151   0.00000  Uiso   1.00
C114   C     0.44564   0.32089   0.86309   0.00000  Uiso   1.00
C115   C     0.42390   0.33244   0.78726   0.00000  Uiso   1.00
H116   H     0.25230   0.20890   0.74148   0.00000  Uiso   1.00
H117   H     0.26213   0.01670   0.78261   0.00000  Uiso   1.00
H118   H     0.20750   0.34625   0.76772   0.00000  Uiso   1.00
H119   H     0.26975   0.25752   0.65323   0.00000  Uiso   1.00
H120   H     0.30062   0.81356   0.86114   0.00000  Uiso   1.00
H121   H     0.18543   0.50845   0.82974   0.00000  Uiso   1.00
H122   H     0.31670   0.32135   0.58832   0.00000  Uiso   1.00
H123   H     0.46494   0.28552   0.99521   0.00000  Uiso   1.00
H124   H     0.48644   0.09751   0.05026   0.00000  Uiso   1.00
H125   H     0.43180   0.42706   0.03537   0.00000  Uiso   1.00
H126   H     0.49406   0.33833   0.92088   0.00000  Uiso   1.00
H127   H     0.48267   0.87915   0.07838   0.00000  Uiso   1.00
H128   H     0.36748   0.57405   0.04697   0.00000  Uiso   1.00
H129   H     0.49876   0.38695   0.80556   0.00000  Uiso   1.00
O130   O     0.40194   0.72130   0.00141   0.00000  Uiso   1.00
O131   O     0.25082   0.63299   0.96020   0.00000  Uiso   1.00
O132   O     0.42305   0.38752   0.64346   0.00000  Uiso   1.00
N133   N     0.34052   0.85479   0.90471   0.00000  Uiso   1.00
N134   N     0.23282   0.50446   0.87535   0.00000  Uiso   1.00
N135   N     0.35554   0.32957   0.64964   0.00000  Uiso   1.00
N136   N     0.43848   0.89008   0.02160   0.00000  Uiso   1.00
N137   N     0.33078   0.53976   0.99225   0.00000  Uiso   1.00
N138   N     0.45351   0.36486   0.76654   0.00000  Uiso   1.00
C139   C     0.80102   0.72645   0.79961   0.00000  Uiso   1.00
C140   C     0.83584   0.63264   0.85713   0.00000  Uiso   1.00
C141   C     0.81056   0.53411   0.84039   0.00000  Uiso   1.00
C142   C     0.85011   0.45883   0.90103   0.00000  Uiso   1.00
C143   C     0.89466   0.30975   0.97902   0.00000  Uiso   1.00
C144   C     0.80616   0.81169   0.84905   0.00000  Uiso   1.00
C145   C     0.75592   0.86371   0.82551   0.00000  Uiso   1.00
C146   C     0.77048   0.93915   0.87934   0.00000  Uiso   1.00
C147   C     0.76895   0.06810   0.94475   0.00000  Uiso   1.00
C148   C     0.83999   0.76347   0.78685   0.00000  Uiso   1.00
C149   C     0.81818   0.77497   0.71100   0.00000  Uiso   1.00
C150   C     0.86122   0.80985   0.71246   0.00000  Uiso   1.00
C151   C     0.91221   0.86393   0.68128   0.00000  Uiso   1.00
C152   C     0.91622   0.76796   0.93707   0.00000  Uiso   1.00
C153   C     0.89842   0.65519   0.93180   0.00000  Uiso   1.00
C154   C     0.93802   0.58004   0.99248   0.00000  Uiso   1.00
C155   C     0.91279   0.48141   0.97583   0.00000  Uiso   1.00
C156   C     0.86873   0.83424   0.92372   0.00000  Uiso   1.00
C157   C     0.88338   0.90963   0.97760   0.00000  Uiso   1.00
C158   C     0.83317   0.96174   0.95414   0.00000  Uiso   1.00
C159   C     0.90256   0.78602   0.86151   0.00000  Uiso   1.00
C160   C     0.94564   0.82089   0.86309   0.00000  Uiso   1.00
C161   C     0.92390   0.83244   0.78726   0.00000  Uiso   1.00
H162   H     0.75230   0.70890   0.74148   0.00000  Uiso   1.00
H163   H     0.76213   0.51670   0.78261   0.00000  Uiso   1.00
H164   H     0.70750   0.84625   0.76772   0.00000  Uiso   1.00
H165   H     0.76975   0.75752   0.65323   0.00000  Uiso   1.00
H166   H     0.80062   0.31356   0.86114   0.00000  Uiso   1.00
H167   H     0.68543   0.00845   0.82974   0.00000  Uiso   1.00
H168   H     0.81670   0.82135   0.58832   0.00000  Uiso   1.00
H169   H     0.96494   0.78552   0.99521   0.00000  Uiso   1.00
H170   H     0.98644   0.59751   0.05026   0.00000  Uiso   1.00
H171   H     0.93180   0.92706   0.03537   0.00000  Uiso   1.00
H172   H     0.99406   0.83833   0.92088   0.00000  Uiso   1.00
H173   H     0.98267   0.37915   0.07838   0.00000  Uiso   1.00
H174   H     0.86748   0.07405   0.04697   0.00000  Uiso   1.00
H175   H     0.99876   0.88695   0.80556   0.00000  Uiso   1.00
O176   O     0.90194   0.22130   0.00141   0.00000  Uiso   1.00
O177   O     0.75082   0.13299   0.96020   0.00000  Uiso   1.00
O178   O     0.92305   0.88752   0.64346   0.00000  Uiso   1.00
N179   N     0.84052   0.35479   0.90471   0.00000  Uiso   1.00
N180   N     0.73282   0.00446   0.87535   0.00000  Uiso   1.00
N181   N     0.85554   0.82957   0.64964   0.00000  Uiso   1.00
N182   N     0.93848   0.39008   0.02160   0.00000  Uiso   1.00
N183   N     0.83078   0.03976   0.99225   0.00000  Uiso   1.00
N184   N     0.95351   0.86486   0.76654   0.00000  Uiso   1.00
C185   C     0.30102   0.77355   0.29961   0.00000  Uiso   1.00
C186   C     0.33584   0.86736   0.35713   0.00000  Uiso   1.00
C187   C     0.31056   0.96589   0.34039   0.00000  Uiso   1.00
C188   C     0.35011   0.04117   0.40103   0.00000  Uiso   1.00
C189   C     0.39466   0.19025   0.47902   0.00000  Uiso   1.00
C190   C     0.30616   0.68831   0.34905   0.00000  Uiso   1.00
C191   C     0.25592   0.63629   0.32551   0.00000  Uiso   1.00
C192   C     0.27048   0.56085   0.37934   0.00000  Uiso   1.00
C193   C     0.26895   0.43190   0.44475   0.00000  Uiso   1.00
C194   C     0.33999   0.73653   0.28685   0.00000  Uiso   1.00
C195   C     0.31818   0.72503   0.21100   0.00000  Uiso   1.00
C196   C     0.36122   0.69015   0.21246   0.00000  Uiso   1.00
C197   C     0.41221   0.63607   0.18128   0.00000  Uiso   1.00
C198   C     0.41622   0.73204   0.43707   0.00000  Uiso   1.00
C199   C     0.39842   0.84481   0.43180   0.00000  Uiso   1.00
C200   C     0.43802   0.91996   0.49248   0.00000  Uiso   1.00
C201   C     0.41279   0.01859   0.47583   0.00000  Uiso   1.00
C202   C     0.36873   0.66576   0.42372   0.00000  Uiso   1.00
C203   C     0.38338   0.59037   0.47760   0.00000  Uiso   1.00
C204   C     0.33317   0.53826   0.45414   0.00000  Uiso   1.00
C205   C     0.40256   0.71398   0.36151   0.00000  Uiso   1.00
C206   C     0.44564   0.67911   0.36309   0.00000  Uiso   1.00
C207   C     0.42390   0.66756   0.28726   0.00000  Uiso   1.00
H208   H     0.25230   0.79110   0.24148   0.00000  Uiso   1.00
H209   H     0.26213   0.98330   0.28261   0.00000  Uiso   1.00
H210   H     0.20750   0.65375   0.26772   0.00000  Uiso   1.00
H211   H     0.26975   0.74248   0.15323   0.00000  Uiso   1.00
H212   H     0.30062   0.18644   0.36114   0.00000  Uiso   1.00
H213   H     0.18543   0.49155   0.32974   0.00000  Uiso   1.00
H214   H     0.31670   0.67865   0.08832   0.00000  Uiso   1.00
H215   H     0.46494   0.71448   0.49521   0.00000  Uiso   1.00
H216   H     0.48644   0.90249   0.55026   0.00000  Uiso   1.00
H217   H     0.43180   0.57294   0.53537   0.00000  Uiso   1.00
H218   H     0.49406   0.66167   0.42088   0.00000  Uiso   1.00
H219   H     0.48267   0.12085   0.57838   0.00000  Uiso   1.00
H220   H     0.36748   0.42595   0.54697   0.00000  Uiso   1.00
H221   H     0.49876   0.61305   0.30556   0.00000  Uiso   1.00
O222   O     0.40194   0.27870   0.50141   0.00000  Uiso   1.00
O223   O     0.25082   0.36701   0.46020   0.00000  Uiso   1.00
O224   O     0.42305   0.61248   0.14346   0.00000  Uiso   1.00
N225   N     0.34052   0.14521   0.40471   0.00000  Uiso   1.00
N226   N     0.23282   0.49554   0.37535   0.00000  Uiso   1.00
N227   N     0.35554   0.67043   0.14964   0.00000  Uiso   1.00
N228   N     0.43848   0.10992   0.52160   0.00000  Uiso   1.00
N229   N     0.33078   0.46024   0.49225   0.00000  Uiso   1.00
N230   N     0.45351   0.63514   0.26654   0.00000  Uiso   1.00
C231   C     0.80102   0.27355   0.29961   0.00000  Uiso   1.00
C232   C     0.83584   0.36736   0.35713   0.00000  Uiso   1.00
C233   C     0.81056   0.46589   0.34039   0.00000  Uiso   1.00
C234   C     0.85011   0.54117   0.40103   0.00000  Uiso   1.00
C235   C     0.89466   0.69025   0.47902   0.00000  Uiso   1.00
C236   C     0.80616   0.18831   0.34905   0.00000  Uiso   1.00
C237   C     0.75592   0.13629   0.32551   0.00000  Uiso   1.00
C238   C     0.77048   0.06085   0.37934   0.00000  Uiso   1.00
C239   C     0.76895   0.93190   0.44475   0.00000  Uiso   1.00
C240   C     0.83999   0.23653   0.28685   0.00000  Uiso   1.00
C241   C     0.81818   0.22503   0.21100   0.00000  Uiso   1.00
C242   C     0.86122   0.19015   0.21246   0.00000  Uiso   1.00
C243   C     0.91221   0.13607   0.18128   0.00000  Uiso   1.00
C244   C     0.91622   0.23204   0.43707   0.00000  Uiso   1.00
C245   C     0.89842   0.34481   0.43180   0.00000  Uiso   1.00
C246   C     0.93802   0.41996   0.49248   0.00000  Uiso   1.00
C247   C     0.91279   0.51859   0.47583   0.00000  Uiso   1.00
C248   C     0.86873   0.16576   0.42372   0.00000  Uiso   1.00
C249   C     0.88338   0.09037   0.47760   0.00000  Uiso   1.00
C250   C     0.83317   0.03826   0.45414   0.00000  Uiso   1.00
C251   C     0.90256   0.21398   0.36151   0.00000  Uiso   1.00
C252   C     0.94564   0.17911   0.36309   0.00000  Uiso   1.00
C253   C     0.92390   0.16756   0.28726   0.00000  Uiso   1.00
H254   H     0.75230   0.29110   0.24148   0.00000  Uiso   1.00
H255   H     0.76213   0.48330   0.28261   0.00000  Uiso   1.00
H256   H     0.70750   0.15375   0.26772   0.00000  Uiso   1.00
H257   H     0.76975   0.24248   0.15323   0.00000  Uiso   1.00
H258   H     0.80062   0.68644   0.36114   0.00000  Uiso   1.00
H259   H     0.68543   0.99155   0.32974   0.00000  Uiso   1.00
H260   H     0.81670   0.17865   0.08832   0.00000  Uiso   1.00
H261   H     0.96494   0.21448   0.49521   0.00000  Uiso   1.00
H262   H     0.98644   0.40249   0.55026   0.00000  Uiso   1.00
H263   H     0.93180   0.07294   0.53537   0.00000  Uiso   1.00
H264   H     0.99406   0.16167   0.42088   0.00000  Uiso   1.00
H265   H     0.98267   0.62085   0.57838   0.00000  Uiso   1.00
H266   H     0.86748   0.92595   0.54697   0.00000  Uiso   1.00
H267   H     0.99876   0.11305   0.30556   0.00000  Uiso   1.00
O268   O     0.90194   0.77870   0.50141   0.00000  Uiso   1.00
O269   O     0.75082   0.86701   0.46020   0.00000  Uiso   1.00
O270   O     0.92305   0.11248   0.14346   0.00000  Uiso   1.00
N271   N     0.84052   0.64521   0.40471   0.00000  Uiso   1.00
N272   N     0.73282   0.99554   0.37535   0.00000  Uiso   1.00
N273   N     0.85554   0.17043   0.14964   0.00000  Uiso   1.00
N274   N     0.93848   0.60992   0.52160   0.00000  Uiso   1.00
N275   N     0.83078   0.96024   0.49225   0.00000  Uiso   1.00
N276   N     0.95351   0.13514   0.26654   0.00000  Uiso   1.00
C277   C     0.69898   0.77355   0.20039   0.00000  Uiso   1.00
C278   C     0.66416   0.86736   0.14287   0.00000  Uiso   1.00
C279   C     0.68944   0.96589   0.15961   0.00000  Uiso   1.00
C280   C     0.64989   0.04117   0.09897   0.00000  Uiso   1.00
C281   C     0.60534   0.19025   0.02098   0.00000  Uiso   1.00
C282   C     0.69384   0.68831   0.15095   0.00000  Uiso   1.00
C283   C     0.74408   0.63629   0.17449   0.00000  Uiso   1.00
C284   C     0.72952   0.56085   0.12066   0.00000  Uiso   1.00
C285   C     0.73105   0.43190   0.05525   0.00000  Uiso   1.00
C286   C     0.66001   0.73653   0.21315   0.00000  Uiso   1.00
C287   C     0.68182   0.72503   0.28900   0.00000  Uiso   1.00
C288   C     0.63878   0.69015   0.28754   0.00000  Uiso   1.00
C289   C     0.58779   0.63607   0.31872   0.00000  Uiso   1.00
C290   C     0.58378   0.73204   0.06293   0.00000  Uiso   1.00
C291   C     0.60158   0.84481   0.06820   0.00000  Uiso   1.00
C292   C     0.56198   0.91996   0.00752   0.00000  Uiso   1.00
C293   C     0.58721   0.01859   0.02417   0.00000  Uiso   1.00
C294   C     0.63127   0.66576   0.07628   0.00000  Uiso   1.00
C295   C     0.61662   0.59037   0.02240   0.00000  Uiso   1.00
C296   C     0.66683   0.53826   0.04586   0.00000  Uiso   1.00
C297   C     0.59744   0.71398   0.13849   0.00000  Uiso   1.00
C298   C     0.55436   0.67911   0.13691   0.00000  Uiso   1.00
C299   C     0.57610   0.66756   0.21274   0.00000  Uiso   1.00
H300   H     0.74770   0.79110   0.25852   0.00000  Uiso   1.00
H301   H     0.73787   0.98330   0.21739   0.00000  Uiso   1.00
H302   H     0.79250   0.65375   0.23228   0.00000  Uiso   1.00
H303   H     0.73025   0.74248   0.34677   0.00000  Uiso   1.00
H304   H     0.69938   0.18644   0.13886   0.00000  Uiso   1.00
H305   H     0.81457   0.49155   0.17026   0.00000  Uiso   1.00
H306   H     0.68330   0.67865   0.41168   0.00000  Uiso   1.00
H307   H     0.53506   0.71448   0.00479   0.00000  Uiso   1.00
H308   H     0.51356   0.90249   0.94974   0.00000  Uiso   1.00
H309   H     0.56820   0.57294   0.96463   0.00000  Uiso   1.00
H310   H     0.50594   0.66167   0.07912   0.00000  Uiso   1.00
H311   H     0.51733   0.12085   0.92162   0.00000  Uiso   1.00
H312   H     0.63252   0.42595   0.95303   0.00000  Uiso   1.00
H313   H     0.50124   0.61305   0.19444   0.00000  Uiso   1.00
O314   O     0.59806   0.27870   0.99859   0.00000  Uiso   1.00
O315   O     0.74918   0.36701   0.03980   0.00000  Uiso   1.00
O316   O     0.57695   0.61248   0.35654   0.00000  Uiso   1.00
N317   N     0.65948   0.14521   0.09529   0.00000  Uiso   1.00
N318   N     0.76718   0.49554   0.12465   0.00000  Uiso   1.00
N319   N     0.64446   0.67043   0.35036   0.00000  Uiso   1.00
N320   N     0.56152   0.10992   0.97840   0.00000  Uiso   1.00
N321   N     0.66922   0.46024   0.00775   0.00000  Uiso   1.00
N322   N     0.54649   0.63514   0.23346   0.00000  Uiso   1.00
C323   C     0.19898   0.27355   0.20039   0.00000  Uiso   1.00
C324   C     0.16416   0.36736   0.14287   0.00000  Uiso   1.00
C325   C     0.18944   0.46589   0.15961   0.00000  Uiso   1.00
C326   C     0.14989   0.54117   0.09897   0.00000  Uiso   1.00
C327   C     0.10534   0.69025   0.02098   0.00000  Uiso   1.00
C328   C     0.19384   0.18831   0.15095   0.00000  Uiso   1.00
C329   C     0.24408   0.13629   0.17449   0.00000  Uiso   1.00
C330   C     0.22952   0.06085   0.12066   0.00000  Uiso   1.00
C331   C     0.23105   0.93190   0.05525   0.00000  Uiso   1.00
C332   C     0.16001   0.23653   0.21315   0.00000  Uiso   1.00
C333   C     0.18182   0.22503   0.28900   0.00000  Uiso   1.00
C334   C     0.13878   0.19015   0.28754   0.00000  Uiso   1.00
C335   C     0.08779   0.13607   0.31872   0.00000  Uiso   1.00
C336   C     0.08378   0.23204   0.06293   0.00000  Uiso   1.00
C337   C     0.10158   0.34481   0.06820   0.00000  Uiso   1.00
C338   C     0.06198   0.41996   0.00752   0.00000  Uiso   1.00
C339   C     0.08721   0.51859   0.02417   0.00000  Uiso   1.00
C340   C     0.13127   0.16576   0.07628   0.00000  Uiso   1.00
C341   C     0.11662   0.09037   0.02240   0.00000  Uiso   1.00
C342   C     0.16683   0.03826   0.04586   0.00000  Uiso   1.00
C343   C     0.09744   0.21398   0.13849   0.00000  Uiso   1.00
C344   C     0.05436   0.17911   0.13691   0.00000  Uiso   1.00
C345   C     0.07610   0.16756   0.21274   0.00000  Uiso   1.00
H346   H     0.24770   0.29110   0.25852   0.00000  Uiso   1.00
H347   H     0.23787   0.48330   0.21739   0.00000  Uiso   1.00
H348   H     0.29250   0.15375   0.23228   0.00000  Uiso   1.00
H349   H     0.23025   0.24248   0.34677   0.00000  Uiso   1.00
H350   H     0.19938   0.68644   0.13886   0.00000  Uiso   1.00
H351   H     0.31457   0.99155   0.17026   0.00000  Uiso   1.00
H352   H     0.18330   0.17865   0.41168   0.00000  Uiso   1.00
H353   H     0.03506   0.21448   0.00479   0.00000  Uiso   1.00
H354   H     0.01356   0.40249   0.94974   0.00000  Uiso   1.00
H355   H     0.06820   0.07294   0.96463   0.00000  Uiso   1.00
H356   H     0.00594   0.16167   0.07912   0.00000  Uiso   1.00
H357   H     0.01733   0.62085   0.92162   0.00000  Uiso   1.00
H358   H     0.13252   0.92595   0.95303   0.00000  Uiso   1.00
H359   H     0.00124   0.11305   0.19444   0.00000  Uiso   1.00
O360   O     0.09806   0.77870   0.99859   0.00000  Uiso   1.00
O361   O     0.24918   0.86701   0.03980   0.00000  Uiso   1.00
O362   O     0.07695   0.11248   0.35654   0.00000  Uiso   1.00
N363   N     0.15948   0.64521   0.09529   0.00000  Uiso   1.00
N364   N     0.26718   0.99554   0.12465   0.00000  Uiso   1.00
N365   N     0.14446   0.17043   0.35036   0.00000  Uiso   1.00
N366   N     0.06152   0.60992   0.97840   0.00000  Uiso   1.00
N367   N     0.16922   0.96024   0.00775   0.00000  Uiso   1.00
N368   N     0.04649   0.13514   0.23346   0.00000  Uiso   1.00
