data_job_02019
_audit_creation_date              2018-12-19
_audit_creation_method            'Materials Studio'
_symmetry_space_group_name_H-M    'P1'
_symmetry_Int_Tables_number       1
_symmetry_cell_setting            triclinic
loop_
_symmetry_equiv_pos_as_xyz
  x,y,z
_cell_length_a                    20.6441
_cell_length_b                    25.8315
_cell_length_c                    15.4315
_cell_angle_alpha                 90.0000
_cell_angle_beta                  97.1699
_cell_angle_gamma                 90.0000
loop_
_atom_site_label
_atom_site_type_symbol
_atom_site_fract_x
_atom_site_fract_y
_atom_site_fract_z
_atom_site_U_iso_or_equiv
_atom_site_adp_type
_atom_site_occupancy
C1     C     0.31369   0.87835   0.94042   0.00000  Uiso   1.00
C2     C     0.37581   0.85028   0.97834   0.00000  Uiso   1.00
C3     C     0.38292   0.81996   0.05317   0.00000  Uiso   1.00
C4     C     0.44368   0.79760   0.07705   0.00000  Uiso   1.00
C5     C     0.53227   0.75286   0.14344   0.00000  Uiso   1.00
C6     C     0.33228   0.93524   0.93419   0.00000  Uiso   1.00
C7     C     0.30278   0.97636   0.97189   0.00000  Uiso   1.00
C8     C     0.32689   0.02551   0.95859   0.00000  Uiso   1.00
C9     C     0.34787   0.11268   0.95639   0.00000  Uiso   1.00
C10    C     0.29828   0.85925   0.84661   0.00000  Uiso   1.00
C11    C     0.24017   0.83649   0.81066   0.00000  Uiso   1.00
C12    C     0.23565   0.82169   0.72362   0.00000  Uiso   1.00
C13    C     0.20384   0.79088   0.58543   0.00000  Uiso   1.00
C14    C     0.40897   0.89253   0.84976   0.00000  Uiso   1.00
C15    C     0.42757   0.85799   0.92909   0.00000  Uiso   1.00
C16    C     0.48833   0.83566   0.95286   0.00000  Uiso   1.00
C17    C     0.49552   0.80532   0.02772   0.00000  Uiso   1.00
C18    C     0.38403   0.94294   0.88495   0.00000  Uiso   1.00
C19    C     0.40819   0.99205   0.87158   0.00000  Uiso   1.00
C20    C     0.37873   0.03323   0.90926   0.00000  Uiso   1.00
C21    C     0.35003   0.86696   0.79736   0.00000  Uiso   1.00
C22    C     0.34560   0.85219   0.71036   0.00000  Uiso   1.00
C23    C     0.28750   0.82941   0.67429   0.00000  Uiso   1.00
H24    H     0.27340   0.87235   0.97876   0.00000  Uiso   1.00
H25    H     0.34285   0.81401   0.09127   0.00000  Uiso   1.00
H26    H     0.26272   0.97038   0.00999   0.00000  Uiso   1.00
H27    H     0.20014   0.83054   0.84879   0.00000  Uiso   1.00
H28    H     0.44269   0.75275   0.19430   0.00000  Uiso   1.00
H29    H     0.27371   0.08246   0.02290   0.00000  Uiso   1.00
H30    H     0.14173   0.78757   0.68298   0.00000  Uiso   1.00
H31    H     0.44927   0.89854   0.81142   0.00000  Uiso   1.00
H32    H     0.52837   0.84163   0.91474   0.00000  Uiso   1.00
H33    H     0.44824   0.99800   0.83347   0.00000  Uiso   1.00
H34    H     0.38565   0.85816   0.67227   0.00000  Uiso   1.00
H35    H     0.59326   0.77517   0.05104   0.00000  Uiso   1.00
H36    H     0.42428   0.10488   0.87963   0.00000  Uiso   1.00
H37    H     0.29231   0.80999   0.53971   0.00000  Uiso   1.00
O38    O     0.56685   0.72607   0.19368   0.00000  Uiso   1.00
O39    O     0.34515   0.15863   0.96879   0.00000  Uiso   1.00
O40    O     0.17200   0.77175   0.52282   0.00000  Uiso   1.00
N41    N     0.46726   0.76583   0.14639   0.00000  Uiso   1.00
N42    N     0.30929   0.07409   0.98615   0.00000  Uiso   1.00
N43    N     0.18589   0.79840   0.66835   0.00000  Uiso   1.00
N44    N     0.54829   0.77789   0.06930   0.00000  Uiso   1.00
N45    N     0.39031   0.08615   0.90906   0.00000  Uiso   1.00
N46    N     0.26692   0.81047   0.59126   0.00000  Uiso   1.00
C47    C     0.81369   0.37835   0.94042   0.00000  Uiso   1.00
C48    C     0.87581   0.35028   0.97834   0.00000  Uiso   1.00
C49    C     0.88292   0.31996   0.05317   0.00000  Uiso   1.00
C50    C     0.94368   0.29760   0.07705   0.00000  Uiso   1.00
C51    C     0.03227   0.25286   0.14344   0.00000  Uiso   1.00
C52    C     0.83228   0.43524   0.93419   0.00000  Uiso   1.00
C53    C     0.80278   0.47636   0.97189   0.00000  Uiso   1.00
C54    C     0.82689   0.52551   0.95859   0.00000  Uiso   1.00
C55    C     0.84787   0.61268   0.95639   0.00000  Uiso   1.00
C56    C     0.79828   0.35925   0.84661   0.00000  Uiso   1.00
C57    C     0.74017   0.33649   0.81066   0.00000  Uiso   1.00
C58    C     0.73565   0.32169   0.72362   0.00000  Uiso   1.00
C59    C     0.70384   0.29088   0.58543   0.00000  Uiso   1.00
C60    C     0.90897   0.39253   0.84976   0.00000  Uiso   1.00
C61    C     0.92757   0.35799   0.92909   0.00000  Uiso   1.00
C62    C     0.98833   0.33566   0.95286   0.00000  Uiso   1.00
C63    C     0.99552   0.30532   0.02772   0.00000  Uiso   1.00
C64    C     0.88403   0.44294   0.88495   0.00000  Uiso   1.00
C65    C     0.90819   0.49205   0.87158   0.00000  Uiso   1.00
C66    C     0.87873   0.53323   0.90926   0.00000  Uiso   1.00
C67    C     0.85003   0.36696   0.79736   0.00000  Uiso   1.00
C68    C     0.84560   0.35219   0.71036   0.00000  Uiso   1.00
C69    C     0.78750   0.32941   0.67429   0.00000  Uiso   1.00
H70    H     0.77340   0.37235   0.97876   0.00000  Uiso   1.00
H71    H     0.84285   0.31401   0.09127   0.00000  Uiso   1.00
H72    H     0.76272   0.47038   0.00999   0.00000  Uiso   1.00
H73    H     0.70014   0.33054   0.84879   0.00000  Uiso   1.00
H74    H     0.94269   0.25275   0.19430   0.00000  Uiso   1.00
H75    H     0.77371   0.58246   0.02290   0.00000  Uiso   1.00
H76    H     0.64173   0.28757   0.68298   0.00000  Uiso   1.00
H77    H     0.94927   0.39854   0.81142   0.00000  Uiso   1.00
H78    H     0.02837   0.34163   0.91474   0.00000  Uiso   1.00
H79    H     0.94824   0.49800   0.83347   0.00000  Uiso   1.00
H80    H     0.88565   0.35816   0.67227   0.00000  Uiso   1.00
H81    H     0.09326   0.27517   0.05104   0.00000  Uiso   1.00
H82    H     0.92428   0.60488   0.87963   0.00000  Uiso   1.00
H83    H     0.79231   0.30999   0.53971   0.00000  Uiso   1.00
O84    O     0.06685   0.22607   0.19368   0.00000  Uiso   1.00
O85    O     0.84515   0.65863   0.96879   0.00000  Uiso   1.00
O86    O     0.67200   0.27175   0.52282   0.00000  Uiso   1.00
N87    N     0.96726   0.26583   0.14639   0.00000  Uiso   1.00
N88    N     0.80929   0.57409   0.98615   0.00000  Uiso   1.00
N89    N     0.68589   0.29840   0.66835   0.00000  Uiso   1.00
N90    N     0.04829   0.27789   0.06930   0.00000  Uiso   1.00
N91    N     0.89031   0.58615   0.90906   0.00000  Uiso   1.00
N92    N     0.76692   0.31047   0.59126   0.00000  Uiso   1.00
C93    C     0.68631   0.87835   0.55958   0.00000  Uiso   1.00
C94    C     0.62419   0.85028   0.52166   0.00000  Uiso   1.00
C95    C     0.61708   0.81996   0.44683   0.00000  Uiso   1.00
C96    C     0.55632   0.79760   0.42295   0.00000  Uiso   1.00
C97    C     0.46773   0.75286   0.35656   0.00000  Uiso   1.00
C98    C     0.66772   0.93524   0.56581   0.00000  Uiso   1.00
C99    C     0.69722   0.97636   0.52811   0.00000  Uiso   1.00
C100   C     0.67311   0.02551   0.54141   0.00000  Uiso   1.00
C101   C     0.65213   0.11268   0.54361   0.00000  Uiso   1.00
C102   C     0.70172   0.85925   0.65339   0.00000  Uiso   1.00
C103   C     0.75983   0.83649   0.68934   0.00000  Uiso   1.00
C104   C     0.76435   0.82169   0.77638   0.00000  Uiso   1.00
C105   C     0.79616   0.79088   0.91457   0.00000  Uiso   1.00
C106   C     0.59103   0.89253   0.65024   0.00000  Uiso   1.00
C107   C     0.57243   0.85799   0.57091   0.00000  Uiso   1.00
C108   C     0.51167   0.83566   0.54714   0.00000  Uiso   1.00
C109   C     0.50448   0.80532   0.47228   0.00000  Uiso   1.00
C110   C     0.61597   0.94294   0.61505   0.00000  Uiso   1.00
C111   C     0.59181   0.99205   0.62842   0.00000  Uiso   1.00
C112   C     0.62127   0.03323   0.59074   0.00000  Uiso   1.00
C113   C     0.64997   0.86696   0.70264   0.00000  Uiso   1.00
C114   C     0.65440   0.85219   0.78964   0.00000  Uiso   1.00
C115   C     0.71250   0.82941   0.82571   0.00000  Uiso   1.00
H116   H     0.72660   0.87235   0.52124   0.00000  Uiso   1.00
H117   H     0.65715   0.81401   0.40873   0.00000  Uiso   1.00
H118   H     0.73728   0.97038   0.49001   0.00000  Uiso   1.00
H119   H     0.79986   0.83054   0.65121   0.00000  Uiso   1.00
H120   H     0.55731   0.75275   0.30570   0.00000  Uiso   1.00
H121   H     0.72629   0.08246   0.47710   0.00000  Uiso   1.00
H122   H     0.85827   0.78757   0.81702   0.00000  Uiso   1.00
H123   H     0.55073   0.89854   0.68858   0.00000  Uiso   1.00
H124   H     0.47163   0.84163   0.58526   0.00000  Uiso   1.00
H125   H     0.55176   0.99800   0.66653   0.00000  Uiso   1.00
H126   H     0.61435   0.85816   0.82773   0.00000  Uiso   1.00
H127   H     0.40674   0.77517   0.44896   0.00000  Uiso   1.00
H128   H     0.57572   0.10488   0.62037   0.00000  Uiso   1.00
H129   H     0.70769   0.80999   0.96029   0.00000  Uiso   1.00
O130   O     0.43315   0.72607   0.30632   0.00000  Uiso   1.00
O131   O     0.65485   0.15863   0.53121   0.00000  Uiso   1.00
O132   O     0.82800   0.77175   0.97718   0.00000  Uiso   1.00
N133   N     0.53274   0.76583   0.35361   0.00000  Uiso   1.00
N134   N     0.69071   0.07409   0.51385   0.00000  Uiso   1.00
N135   N     0.81411   0.79840   0.83165   0.00000  Uiso   1.00
N136   N     0.45171   0.77789   0.43070   0.00000  Uiso   1.00
N137   N     0.60969   0.08615   0.59094   0.00000  Uiso   1.00
N138   N     0.73308   0.81047   0.90874   0.00000  Uiso   1.00
C139   C     0.18631   0.37835   0.55958   0.00000  Uiso   1.00
C140   C     0.12419   0.35028   0.52166   0.00000  Uiso   1.00
C141   C     0.11708   0.31996   0.44683   0.00000  Uiso   1.00
C142   C     0.05632   0.29760   0.42295   0.00000  Uiso   1.00
C143   C     0.96773   0.25286   0.35656   0.00000  Uiso   1.00
C144   C     0.16772   0.43524   0.56581   0.00000  Uiso   1.00
C145   C     0.19722   0.47636   0.52811   0.00000  Uiso   1.00
C146   C     0.17311   0.52551   0.54141   0.00000  Uiso   1.00
C147   C     0.15213   0.61268   0.54361   0.00000  Uiso   1.00
C148   C     0.20172   0.35925   0.65339   0.00000  Uiso   1.00
C149   C     0.25983   0.33649   0.68934   0.00000  Uiso   1.00
C150   C     0.26435   0.32169   0.77638   0.00000  Uiso   1.00
C151   C     0.29616   0.29088   0.91457   0.00000  Uiso   1.00
C152   C     0.09103   0.39253   0.65024   0.00000  Uiso   1.00
C153   C     0.07243   0.35799   0.57091   0.00000  Uiso   1.00
C154   C     0.01167   0.33566   0.54714   0.00000  Uiso   1.00
C155   C     0.00448   0.30532   0.47228   0.00000  Uiso   1.00
C156   C     0.11597   0.44294   0.61505   0.00000  Uiso   1.00
C157   C     0.09181   0.49205   0.62842   0.00000  Uiso   1.00
C158   C     0.12127   0.53323   0.59074   0.00000  Uiso   1.00
C159   C     0.14997   0.36696   0.70264   0.00000  Uiso   1.00
C160   C     0.15440   0.35219   0.78964   0.00000  Uiso   1.00
C161   C     0.21250   0.32941   0.82571   0.00000  Uiso   1.00
H162   H     0.22660   0.37235   0.52124   0.00000  Uiso   1.00
H163   H     0.15715   0.31401   0.40873   0.00000  Uiso   1.00
H164   H     0.23728   0.47038   0.49001   0.00000  Uiso   1.00
H165   H     0.29986   0.33054   0.65121   0.00000  Uiso   1.00
H166   H     0.05731   0.25275   0.30570   0.00000  Uiso   1.00
H167   H     0.22629   0.58246   0.47710   0.00000  Uiso   1.00
H168   H     0.35827   0.28757   0.81702   0.00000  Uiso   1.00
H169   H     0.05073   0.39854   0.68858   0.00000  Uiso   1.00
H170   H     0.97163   0.34163   0.58526   0.00000  Uiso   1.00
H171   H     0.05176   0.49800   0.66653   0.00000  Uiso   1.00
H172   H     0.11435   0.35816   0.82773   0.00000  Uiso   1.00
H173   H     0.90674   0.27517   0.44896   0.00000  Uiso   1.00
H174   H     0.07572   0.60488   0.62037   0.00000  Uiso   1.00
H175   H     0.20769   0.30999   0.96029   0.00000  Uiso   1.00
O176   O     0.93315   0.22607   0.30632   0.00000  Uiso   1.00
O177   O     0.15485   0.65863   0.53121   0.00000  Uiso   1.00
O178   O     0.32800   0.27175   0.97718   0.00000  Uiso   1.00
N179   N     0.03274   0.26583   0.35361   0.00000  Uiso   1.00
N180   N     0.19071   0.57409   0.51385   0.00000  Uiso   1.00
N181   N     0.31411   0.29840   0.83165   0.00000  Uiso   1.00
N182   N     0.95171   0.27789   0.43070   0.00000  Uiso   1.00
N183   N     0.10969   0.58615   0.59094   0.00000  Uiso   1.00
N184   N     0.23308   0.31047   0.90874   0.00000  Uiso   1.00
C185   C     0.68631   0.12165   0.05958   0.00000  Uiso   1.00
C186   C     0.62419   0.14972   0.02166   0.00000  Uiso   1.00
C187   C     0.61708   0.18004   0.94683   0.00000  Uiso   1.00
C188   C     0.55632   0.20240   0.92295   0.00000  Uiso   1.00
C189   C     0.46773   0.24714   0.85656   0.00000  Uiso   1.00
C190   C     0.66772   0.06476   0.06581   0.00000  Uiso   1.00
C191   C     0.69722   0.02364   0.02811   0.00000  Uiso   1.00
C192   C     0.67311   0.97449   0.04141   0.00000  Uiso   1.00
C193   C     0.65213   0.88732   0.04361   0.00000  Uiso   1.00
C194   C     0.70172   0.14075   0.15339   0.00000  Uiso   1.00
C195   C     0.75983   0.16351   0.18934   0.00000  Uiso   1.00
C196   C     0.76435   0.17831   0.27638   0.00000  Uiso   1.00
C197   C     0.79616   0.20912   0.41457   0.00000  Uiso   1.00
C198   C     0.59103   0.10747   0.15024   0.00000  Uiso   1.00
C199   C     0.57243   0.14201   0.07091   0.00000  Uiso   1.00
C200   C     0.51167   0.16434   0.04714   0.00000  Uiso   1.00
C201   C     0.50448   0.19468   0.97228   0.00000  Uiso   1.00
C202   C     0.61597   0.05706   0.11505   0.00000  Uiso   1.00
C203   C     0.59181   0.00795   0.12842   0.00000  Uiso   1.00
C204   C     0.62127   0.96677   0.09074   0.00000  Uiso   1.00
C205   C     0.64997   0.13304   0.20264   0.00000  Uiso   1.00
C206   C     0.65440   0.14781   0.28964   0.00000  Uiso   1.00
C207   C     0.71250   0.17059   0.32571   0.00000  Uiso   1.00
H208   H     0.72660   0.12765   0.02124   0.00000  Uiso   1.00
H209   H     0.65715   0.18599   0.90873   0.00000  Uiso   1.00
H210   H     0.73728   0.02962   0.99001   0.00000  Uiso   1.00
H211   H     0.79986   0.16946   0.15121   0.00000  Uiso   1.00
H212   H     0.55731   0.24725   0.80570   0.00000  Uiso   1.00
H213   H     0.72629   0.91754   0.97710   0.00000  Uiso   1.00
H214   H     0.85827   0.21243   0.31702   0.00000  Uiso   1.00
H215   H     0.55073   0.10146   0.18858   0.00000  Uiso   1.00
H216   H     0.47163   0.15837   0.08526   0.00000  Uiso   1.00
H217   H     0.55176   0.00200   0.16653   0.00000  Uiso   1.00
H218   H     0.61435   0.14184   0.32773   0.00000  Uiso   1.00
H219   H     0.40674   0.22483   0.94896   0.00000  Uiso   1.00
H220   H     0.57572   0.89512   0.12037   0.00000  Uiso   1.00
H221   H     0.70769   0.19001   0.46029   0.00000  Uiso   1.00
O222   O     0.43315   0.27393   0.80632   0.00000  Uiso   1.00
O223   O     0.65485   0.84137   0.03121   0.00000  Uiso   1.00
O224   O     0.82800   0.22825   0.47718   0.00000  Uiso   1.00
N225   N     0.53274   0.23417   0.85361   0.00000  Uiso   1.00
N226   N     0.69071   0.92591   0.01385   0.00000  Uiso   1.00
N227   N     0.81411   0.20160   0.33165   0.00000  Uiso   1.00
N228   N     0.45171   0.22211   0.93070   0.00000  Uiso   1.00
N229   N     0.60969   0.91385   0.09094   0.00000  Uiso   1.00
N230   N     0.73308   0.18953   0.40874   0.00000  Uiso   1.00
C231   C     0.18631   0.62165   0.05958   0.00000  Uiso   1.00
C232   C     0.12419   0.64972   0.02166   0.00000  Uiso   1.00
C233   C     0.11708   0.68004   0.94683   0.00000  Uiso   1.00
C234   C     0.05632   0.70240   0.92295   0.00000  Uiso   1.00
C235   C     0.96773   0.74714   0.85656   0.00000  Uiso   1.00
C236   C     0.16772   0.56476   0.06581   0.00000  Uiso   1.00
C237   C     0.19722   0.52364   0.02811   0.00000  Uiso   1.00
C238   C     0.17311   0.47449   0.04141   0.00000  Uiso   1.00
C239   C     0.15213   0.38732   0.04361   0.00000  Uiso   1.00
C240   C     0.20172   0.64075   0.15339   0.00000  Uiso   1.00
C241   C     0.25983   0.66351   0.18934   0.00000  Uiso   1.00
C242   C     0.26435   0.67831   0.27638   0.00000  Uiso   1.00
C243   C     0.29616   0.70912   0.41457   0.00000  Uiso   1.00
C244   C     0.09103   0.60747   0.15024   0.00000  Uiso   1.00
C245   C     0.07243   0.64201   0.07091   0.00000  Uiso   1.00
C246   C     0.01167   0.66434   0.04714   0.00000  Uiso   1.00
C247   C     0.00448   0.69468   0.97228   0.00000  Uiso   1.00
C248   C     0.11597   0.55706   0.11505   0.00000  Uiso   1.00
C249   C     0.09181   0.50795   0.12842   0.00000  Uiso   1.00
C250   C     0.12127   0.46677   0.09074   0.00000  Uiso   1.00
C251   C     0.14997   0.63304   0.20264   0.00000  Uiso   1.00
C252   C     0.15440   0.64781   0.28964   0.00000  Uiso   1.00
C253   C     0.21250   0.67059   0.32571   0.00000  Uiso   1.00
H254   H     0.22660   0.62765   0.02124   0.00000  Uiso   1.00
H255   H     0.15715   0.68599   0.90873   0.00000  Uiso   1.00
H256   H     0.23728   0.52962   0.99001   0.00000  Uiso   1.00
H257   H     0.29986   0.66946   0.15121   0.00000  Uiso   1.00
H258   H     0.05731   0.74725   0.80570   0.00000  Uiso   1.00
H259   H     0.22629   0.41754   0.97710   0.00000  Uiso   1.00
H260   H     0.35827   0.71243   0.31702   0.00000  Uiso   1.00
H261   H     0.05073   0.60146   0.18858   0.00000  Uiso   1.00
H262   H     0.97163   0.65837   0.08526   0.00000  Uiso   1.00
H263   H     0.05176   0.50200   0.16653   0.00000  Uiso   1.00
H264   H     0.11435   0.64184   0.32773   0.00000  Uiso   1.00
H265   H     0.90674   0.72483   0.94896   0.00000  Uiso   1.00
H266   H     0.07572   0.39512   0.12037   0.00000  Uiso   1.00
H267   H     0.20769   0.69001   0.46029   0.00000  Uiso   1.00
O268   O     0.93315   0.77393   0.80632   0.00000  Uiso   1.00
O269   O     0.15485   0.34137   0.03121   0.00000  Uiso   1.00
O270   O     0.32800   0.72825   0.47718   0.00000  Uiso   1.00
N271   N     0.03274   0.73417   0.85361   0.00000  Uiso   1.00
N272   N     0.19071   0.42591   0.01385   0.00000  Uiso   1.00
N273   N     0.31411   0.70160   0.33165   0.00000  Uiso   1.00
N274   N     0.95171   0.72211   0.93070   0.00000  Uiso   1.00
N275   N     0.10969   0.41385   0.09094   0.00000  Uiso   1.00
N276   N     0.23308   0.68953   0.40874   0.00000  Uiso   1.00
C277   C     0.31369   0.12165   0.44042   0.00000  Uiso   1.00
C278   C     0.37581   0.14972   0.47834   0.00000  Uiso   1.00
C279   C     0.38292   0.18004   0.55317   0.00000  Uiso   1.00
C280   C     0.44368   0.20240   0.57705   0.00000  Uiso   1.00
C281   C     0.53227   0.24714   0.64344   0.00000  Uiso   1.00
C282   C     0.33228   0.06476   0.43419   0.00000  Uiso   1.00
C283   C     0.30278   0.02364   0.47189   0.00000  Uiso   1.00
C284   C     0.32689   0.97449   0.45859   0.00000  Uiso   1.00
C285   C     0.34787   0.88732   0.45639   0.00000  Uiso   1.00
C286   C     0.29828   0.14075   0.34661   0.00000  Uiso   1.00
C287   C     0.24017   0.16351   0.31066   0.00000  Uiso   1.00
C288   C     0.23565   0.17831   0.22362   0.00000  Uiso   1.00
C289   C     0.20384   0.20912   0.08543   0.00000  Uiso   1.00
C290   C     0.40897   0.10747   0.34976   0.00000  Uiso   1.00
C291   C     0.42757   0.14201   0.42909   0.00000  Uiso   1.00
C292   C     0.48833   0.16434   0.45286   0.00000  Uiso   1.00
C293   C     0.49552   0.19468   0.52772   0.00000  Uiso   1.00
C294   C     0.38403   0.05706   0.38495   0.00000  Uiso   1.00
C295   C     0.40819   0.00795   0.37158   0.00000  Uiso   1.00
C296   C     0.37873   0.96677   0.40926   0.00000  Uiso   1.00
C297   C     0.35003   0.13304   0.29736   0.00000  Uiso   1.00
C298   C     0.34560   0.14781   0.21036   0.00000  Uiso   1.00
C299   C     0.28750   0.17059   0.17429   0.00000  Uiso   1.00
H300   H     0.27340   0.12765   0.47876   0.00000  Uiso   1.00
H301   H     0.34285   0.18599   0.59127   0.00000  Uiso   1.00
H302   H     0.26272   0.02962   0.50999   0.00000  Uiso   1.00
H303   H     0.20014   0.16946   0.34879   0.00000  Uiso   1.00
H304   H     0.44269   0.24725   0.69430   0.00000  Uiso   1.00
H305   H     0.27371   0.91754   0.52290   0.00000  Uiso   1.00
H306   H     0.14173   0.21243   0.18298   0.00000  Uiso   1.00
H307   H     0.44927   0.10146   0.31142   0.00000  Uiso   1.00
H308   H     0.52837   0.15837   0.41474   0.00000  Uiso   1.00
H309   H     0.44824   0.00200   0.33347   0.00000  Uiso   1.00
H310   H     0.38565   0.14184   0.17227   0.00000  Uiso   1.00
H311   H     0.59326   0.22483   0.55104   0.00000  Uiso   1.00
H312   H     0.42428   0.89512   0.37963   0.00000  Uiso   1.00
H313   H     0.29231   0.19001   0.03971   0.00000  Uiso   1.00
O314   O     0.56685   0.27393   0.69368   0.00000  Uiso   1.00
O315   O     0.34515   0.84137   0.46879   0.00000  Uiso   1.00
O316   O     0.17200   0.22825   0.02282   0.00000  Uiso   1.00
N317   N     0.46726   0.23417   0.64639   0.00000  Uiso   1.00
N318   N     0.30929   0.92591   0.48615   0.00000  Uiso   1.00
N319   N     0.18589   0.20160   0.16835   0.00000  Uiso   1.00
N320   N     0.54829   0.22211   0.56930   0.00000  Uiso   1.00
N321   N     0.39031   0.91385   0.40906   0.00000  Uiso   1.00
N322   N     0.26692   0.18953   0.09126   0.00000  Uiso   1.00
C323   C     0.81369   0.62165   0.44042   0.00000  Uiso   1.00
C324   C     0.87581   0.64972   0.47834   0.00000  Uiso   1.00
C325   C     0.88292   0.68004   0.55317   0.00000  Uiso   1.00
C326   C     0.94368   0.70240   0.57705   0.00000  Uiso   1.00
C327   C     0.03227   0.74714   0.64344   0.00000  Uiso   1.00
C328   C     0.83228   0.56476   0.43419   0.00000  Uiso   1.00
C329   C     0.80278   0.52364   0.47189   0.00000  Uiso   1.00
C330   C     0.82689   0.47449   0.45859   0.00000  Uiso   1.00
C331   C     0.84787   0.38732   0.45639   0.00000  Uiso   1.00
C332   C     0.79828   0.64075   0.34661   0.00000  Uiso   1.00
C333   C     0.74017   0.66351   0.31066   0.00000  Uiso   1.00
C334   C     0.73565   0.67831   0.22362   0.00000  Uiso   1.00
C335   C     0.70384   0.70912   0.08543   0.00000  Uiso   1.00
C336   C     0.90897   0.60747   0.34976   0.00000  Uiso   1.00
C337   C     0.92757   0.64201   0.42909   0.00000  Uiso   1.00
C338   C     0.98833   0.66434   0.45286   0.00000  Uiso   1.00
C339   C     0.99552   0.69468   0.52772   0.00000  Uiso   1.00
C340   C     0.88403   0.55706   0.38495   0.00000  Uiso   1.00
C341   C     0.90819   0.50795   0.37158   0.00000  Uiso   1.00
C342   C     0.87873   0.46677   0.40926   0.00000  Uiso   1.00
C343   C     0.85003   0.63304   0.29736   0.00000  Uiso   1.00
C344   C     0.84560   0.64781   0.21036   0.00000  Uiso   1.00
C345   C     0.78750   0.67059   0.17429   0.00000  Uiso   1.00
H346   H     0.77340   0.62765   0.47876   0.00000  Uiso   1.00
H347   H     0.84285   0.68599   0.59127   0.00000  Uiso   1.00
H348   H     0.76272   0.52962   0.50999   0.00000  Uiso   1.00
H349   H     0.70014   0.66946   0.34879   0.00000  Uiso   1.00
H350   H     0.94269   0.74725   0.69430   0.00000  Uiso   1.00
H351   H     0.77371   0.41754   0.52290   0.00000  Uiso   1.00
H352   H     0.64173   0.71243   0.18298   0.00000  Uiso   1.00
H353   H     0.94927   0.60146   0.31142   0.00000  Uiso   1.00
H354   H     0.02837   0.65837   0.41474   0.00000  Uiso   1.00
H355   H     0.94824   0.50200   0.33347   0.00000  Uiso   1.00
H356   H     0.88565   0.64184   0.17227   0.00000  Uiso   1.00
H357   H     0.09326   0.72483   0.55104   0.00000  Uiso   1.00
H358   H     0.92428   0.39512   0.37963   0.00000  Uiso   1.00
H359   H     0.79231   0.69001   0.03971   0.00000  Uiso   1.00
O360   O     0.06685   0.77393   0.69368   0.00000  Uiso   1.00
O361   O     0.84515   0.34137   0.46879   0.00000  Uiso   1.00
O362   O     0.67200   0.72825   0.02282   0.00000  Uiso   1.00
N363   N     0.96726   0.73417   0.64639   0.00000  Uiso   1.00
N364   N     0.80929   0.42591   0.48615   0.00000  Uiso   1.00
N365   N     0.68589   0.70160   0.16835   0.00000  Uiso   1.00
N366   N     0.04829   0.72211   0.56930   0.00000  Uiso   1.00
N367   N     0.89031   0.41385   0.40906   0.00000  Uiso   1.00
N368   N     0.76692   0.68953   0.09126   0.00000  Uiso   1.00
