data_job_04362
_audit_creation_date              2018-12-19
_audit_creation_method            'Materials Studio'
_symmetry_space_group_name_H-M    'P1'
_symmetry_Int_Tables_number       1
_symmetry_cell_setting            triclinic
loop_
_symmetry_equiv_pos_as_xyz
  x,y,z
_cell_length_a                    15.2723
_cell_length_b                    16.4489
_cell_length_c                    20.9319
_cell_angle_alpha                 90.0000
_cell_angle_beta                  124.8778
_cell_angle_gamma                 90.0000
loop_
_atom_site_label
_atom_site_type_symbol
_atom_site_fract_x
_atom_site_fract_y
_atom_site_fract_z
_atom_site_U_iso_or_equiv
_atom_site_adp_type
_atom_site_occupancy
C1     C     0.87369   0.42875   0.73146   0.00000  Uiso   1.00
C2     C     0.90737   0.50004   0.70353   0.00000  Uiso   1.00
C3     C     0.01144   0.51980   0.73038   0.00000  Uiso   1.00
C4     C     0.02560   0.58736   0.69744   0.00000  Uiso   1.00
C5     C     0.09111   0.69106   0.66288   0.00000  Uiso   1.00
C6     C     0.80891   0.46528   0.75902   0.00000  Uiso   1.00
C7     C     0.83019   0.45579   0.83254   0.00000  Uiso   1.00
C8     C     0.76145   0.49408   0.84631   0.00000  Uiso   1.00
C9     C     0.67406   0.54376   0.89789   0.00000  Uiso   1.00
C10    C     0.79519   0.37909   0.65900   0.00000  Uiso   1.00
C11    C     0.80492   0.29713   0.64843   0.00000  Uiso   1.00
C12    C     0.72461   0.26285   0.57800   0.00000  Uiso   1.00
C13    C     0.61592   0.17872   0.47428   0.00000  Uiso   1.00
C14    C     0.71376   0.51360   0.62519   0.00000  Uiso   1.00
C15    C     0.82050   0.54613   0.64580   0.00000  Uiso   1.00
C16    C     0.83450   0.61367   0.61281   0.00000  Uiso   1.00
C17    C     0.93858   0.63352   0.63961   0.00000  Uiso   1.00
C18    C     0.72205   0.51136   0.70131   0.00000  Uiso   1.00
C19    C     0.65326   0.54966   0.71497   0.00000  Uiso   1.00
C20    C     0.67443   0.54025   0.78849   0.00000  Uiso   1.00
C21    C     0.70833   0.42517   0.60128   0.00000  Uiso   1.00
C22    C     0.62799   0.39101   0.53085   0.00000  Uiso   1.00
C23    C     0.63759   0.30902   0.52017   0.00000  Uiso   1.00
H24    H     0.94131   0.39288   0.77640   0.00000  Uiso   1.00
H25    H     0.07864   0.48412   0.77506   0.00000  Uiso   1.00
H26    H     0.89741   0.42012   0.87720   0.00000  Uiso   1.00
H27    H     0.87215   0.26149   0.69311   0.00000  Uiso   1.00
H28    H     0.19259   0.60563   0.74814   0.00000  Uiso   1.00
H29    H     0.81044   0.47065   0.96349   0.00000  Uiso   1.00
H30    H     0.75716   0.13615   0.57532   0.00000  Uiso   1.00
H31    H     0.64613   0.54948   0.58025   0.00000  Uiso   1.00
H32    H     0.76727   0.64932   0.56814   0.00000  Uiso   1.00
H33    H     0.58604   0.58532   0.67028   0.00000  Uiso   1.00
H34    H     0.56078   0.42669   0.48620   0.00000  Uiso   1.00
H35    H     0.93987   0.73971   0.58020   0.00000  Uiso   1.00
H36    H     0.55772   0.60473   0.79556   0.00000  Uiso   1.00
H37    H     0.50444   0.27023   0.40738   0.00000  Uiso   1.00
O38    O     0.15125   0.73554   0.65977   0.00000  Uiso   1.00
O39    O     0.64987   0.55844   0.94230   0.00000  Uiso   1.00
O40    O     0.57998   0.11958   0.43302   0.00000  Uiso   1.00
N41    N     0.11649   0.62347   0.71027   0.00000  Uiso   1.00
N42    N     0.75921   0.49729   0.91161   0.00000  Uiso   1.00
N43    N     0.70939   0.18455   0.54871   0.00000  Uiso   1.00
N44    N     0.98050   0.69562   0.61990   0.00000  Uiso   1.00
N45    N     0.62323   0.56944   0.82125   0.00000  Uiso   1.00
N46    N     0.57340   0.25670   0.45834   0.00000  Uiso   1.00
C47    C     0.37861   0.05161   0.23539   0.00000  Uiso   1.00
C48    C     0.41564   0.12321   0.21021   0.00000  Uiso   1.00
C49    C     0.52071   0.14127   0.23858   0.00000  Uiso   1.00
C50    C     0.53802   0.20946   0.20810   0.00000  Uiso   1.00
C51    C     0.60841   0.31330   0.17767   0.00000  Uiso   1.00
C52    C     0.31392   0.08808   0.26305   0.00000  Uiso   1.00
C53    C     0.33345   0.07660   0.33583   0.00000  Uiso   1.00
C54    C     0.26512   0.11521   0.34983   0.00000  Uiso   1.00
C55    C     0.17754   0.16447   0.40141   0.00000  Uiso   1.00
C56    C     0.29932   0.00451   0.16126   0.00000  Uiso   1.00
C57    C     0.30656   0.92276   0.14847   0.00000  Uiso   1.00
C58    C     0.22592   0.89101   0.07678   0.00000  Uiso   1.00
C59    C     0.11568   0.81052   0.97033   0.00000  Uiso   1.00
C60    C     0.22253   0.14058   0.13082   0.00000  Uiso   1.00
C61    C     0.33086   0.17153   0.15342   0.00000  Uiso   1.00
C62    C     0.34802   0.23970   0.12289   0.00000  Uiso   1.00
C63    C     0.45309   0.25787   0.15120   0.00000  Uiso   1.00
C64    C     0.22914   0.13641   0.20625   0.00000  Uiso   1.00
C65    C     0.16076   0.17503   0.22014   0.00000  Uiso   1.00
C66    C     0.18019   0.16362   0.29293   0.00000  Uiso   1.00
C67    C     0.21454   0.05284   0.10446   0.00000  Uiso   1.00
C68    C     0.13388   0.02120   0.03278   0.00000  Uiso   1.00
C69    C     0.14099   0.93942   0.01988   0.00000  Uiso   1.00
H70    H     0.44461   0.01399   0.27961   0.00000  Uiso   1.00
H71    H     0.58629   0.10386   0.28254   0.00000  Uiso   1.00
H72    H     0.39906   0.03920   0.37977   0.00000  Uiso   1.00
H73    H     0.37218   0.88538   0.19244   0.00000  Uiso   1.00
H74    H     0.70599   0.22483   0.26075   0.00000  Uiso   1.00
H75    H     0.31117   0.08846   0.46577   0.00000  Uiso   1.00
H76    H     0.25448   0.76411   0.07074   0.00000  Uiso   1.00
H77    H     0.15652   0.17820   0.08661   0.00000  Uiso   1.00
H78    H     0.28240   0.27709   0.07894   0.00000  Uiso   1.00
H79    H     0.09516   0.21242   0.17618   0.00000  Uiso   1.00
H80    H     0.06828   0.05861   0.98884   0.00000  Uiso   1.00
H81    H     0.45933   0.36543   0.09551   0.00000  Uiso   1.00
H82    H     0.06451   0.22905   0.30052   0.00000  Uiso   1.00
H83    H     0.00783   0.90471   0.90550   0.00000  Uiso   1.00
O84    O     0.67066   0.35724   0.17659   0.00000  Uiso   1.00
O85    O     0.15267   0.17830   0.44555   0.00000  Uiso   1.00
O86    O     0.07830   0.75277   0.92729   0.00000  Uiso   1.00
N87    N     0.63066   0.24434   0.22290   0.00000  Uiso   1.00
N88    N     0.26154   0.11685   0.41459   0.00000  Uiso   1.00
N89    N     0.20853   0.81361   0.04528   0.00000  Uiso   1.00
N90    N     0.49794   0.32000   0.13398   0.00000  Uiso   1.00
N91    N     0.12882   0.19250   0.32567   0.00000  Uiso   1.00
N92    N     0.07580   0.88927   0.95636   0.00000  Uiso   1.00
C93    C     0.12631   0.92875   0.76854   0.00000  Uiso   1.00
C94    C     0.09263   0.00004   0.79647   0.00000  Uiso   1.00
C95    C     0.98856   0.01980   0.76962   0.00000  Uiso   1.00
C96    C     0.97440   0.08736   0.80256   0.00000  Uiso   1.00
C97    C     0.90889   0.19106   0.83712   0.00000  Uiso   1.00
C98    C     0.19109   0.96528   0.74098   0.00000  Uiso   1.00
C99    C     0.16981   0.95579   0.66746   0.00000  Uiso   1.00
C100   C     0.23855   0.99408   0.65369   0.00000  Uiso   1.00
C101   C     0.32594   0.04376   0.60211   0.00000  Uiso   1.00
C102   C     0.20481   0.87909   0.84100   0.00000  Uiso   1.00
C103   C     0.19508   0.79713   0.85157   0.00000  Uiso   1.00
C104   C     0.27539   0.76285   0.92200   0.00000  Uiso   1.00
C105   C     0.38408   0.67872   0.02572   0.00000  Uiso   1.00
C106   C     0.28624   0.01360   0.87481   0.00000  Uiso   1.00
C107   C     0.17950   0.04613   0.85420   0.00000  Uiso   1.00
C108   C     0.16550   0.11367   0.88719   0.00000  Uiso   1.00
C109   C     0.06142   0.13352   0.86039   0.00000  Uiso   1.00
C110   C     0.27795   0.01136   0.79869   0.00000  Uiso   1.00
C111   C     0.34674   0.04966   0.78503   0.00000  Uiso   1.00
C112   C     0.32557   0.04025   0.71151   0.00000  Uiso   1.00
C113   C     0.29167   0.92517   0.89872   0.00000  Uiso   1.00
C114   C     0.37201   0.89101   0.96915   0.00000  Uiso   1.00
C115   C     0.36241   0.80902   0.97983   0.00000  Uiso   1.00
H116   H     0.05869   0.89288   0.72360   0.00000  Uiso   1.00
H117   H     0.92136   0.98412   0.72494   0.00000  Uiso   1.00
H118   H     0.10259   0.92012   0.62280   0.00000  Uiso   1.00
H119   H     0.12785   0.76149   0.80689   0.00000  Uiso   1.00
H120   H     0.80741   0.10563   0.75186   0.00000  Uiso   1.00
H121   H     0.18956   0.97065   0.53651   0.00000  Uiso   1.00
H122   H     0.24284   0.63615   0.92468   0.00000  Uiso   1.00
H123   H     0.35387   0.04948   0.91975   0.00000  Uiso   1.00
H124   H     0.23273   0.14932   0.93186   0.00000  Uiso   1.00
H125   H     0.41396   0.08532   0.82972   0.00000  Uiso   1.00
H126   H     0.43922   0.92669   0.01380   0.00000  Uiso   1.00
H127   H     0.06013   0.23971   0.91980   0.00000  Uiso   1.00
H128   H     0.44228   0.10473   0.70444   0.00000  Uiso   1.00
H129   H     0.49556   0.77023   0.09262   0.00000  Uiso   1.00
O130   O     0.84875   0.23554   0.84023   0.00000  Uiso   1.00
O131   O     0.35013   0.05844   0.55770   0.00000  Uiso   1.00
O132   O     0.42002   0.61958   0.06698   0.00000  Uiso   1.00
N133   N     0.88351   0.12347   0.78973   0.00000  Uiso   1.00
N134   N     0.24079   0.99729   0.58839   0.00000  Uiso   1.00
N135   N     0.29061   0.68455   0.95129   0.00000  Uiso   1.00
N136   N     0.01950   0.19562   0.88010   0.00000  Uiso   1.00
N137   N     0.37677   0.06944   0.67875   0.00000  Uiso   1.00
N138   N     0.42660   0.75670   0.04166   0.00000  Uiso   1.00
C139   C     0.62139   0.55161   0.26461   0.00000  Uiso   1.00
C140   C     0.58436   0.62321   0.28979   0.00000  Uiso   1.00
C141   C     0.47929   0.64127   0.26142   0.00000  Uiso   1.00
C142   C     0.46198   0.70946   0.29190   0.00000  Uiso   1.00
C143   C     0.39159   0.81330   0.32233   0.00000  Uiso   1.00
C144   C     0.68608   0.58808   0.23695   0.00000  Uiso   1.00
C145   C     0.66655   0.57660   0.16417   0.00000  Uiso   1.00
C146   C     0.73488   0.61521   0.15017   0.00000  Uiso   1.00
C147   C     0.82246   0.66447   0.09859   0.00000  Uiso   1.00
C148   C     0.70068   0.50451   0.33874   0.00000  Uiso   1.00
C149   C     0.69344   0.42276   0.35153   0.00000  Uiso   1.00
C150   C     0.77408   0.39101   0.42322   0.00000  Uiso   1.00
C151   C     0.88432   0.31052   0.52967   0.00000  Uiso   1.00
C152   C     0.77747   0.64058   0.36918   0.00000  Uiso   1.00
C153   C     0.66914   0.67153   0.34658   0.00000  Uiso   1.00
C154   C     0.65198   0.73970   0.37711   0.00000  Uiso   1.00
C155   C     0.54691   0.75787   0.34880   0.00000  Uiso   1.00
C156   C     0.77086   0.63641   0.29375   0.00000  Uiso   1.00
C157   C     0.83924   0.67503   0.27986   0.00000  Uiso   1.00
C158   C     0.81981   0.66362   0.20707   0.00000  Uiso   1.00
C159   C     0.78546   0.55284   0.39554   0.00000  Uiso   1.00
C160   C     0.86612   0.52120   0.46722   0.00000  Uiso   1.00
C161   C     0.85901   0.43942   0.48012   0.00000  Uiso   1.00
H162   H     0.55539   0.51399   0.22039   0.00000  Uiso   1.00
H163   H     0.41371   0.60386   0.21746   0.00000  Uiso   1.00
H164   H     0.60094   0.53920   0.12023   0.00000  Uiso   1.00
H165   H     0.62782   0.38538   0.30756   0.00000  Uiso   1.00
H166   H     0.29401   0.72483   0.23925   0.00000  Uiso   1.00
H167   H     0.68883   0.58846   0.03423   0.00000  Uiso   1.00
H168   H     0.74552   0.26411   0.42926   0.00000  Uiso   1.00
H169   H     0.84348   0.67820   0.41339   0.00000  Uiso   1.00
H170   H     0.71760   0.77709   0.42106   0.00000  Uiso   1.00
H171   H     0.90484   0.71242   0.32382   0.00000  Uiso   1.00
H172   H     0.93172   0.55861   0.51116   0.00000  Uiso   1.00
H173   H     0.54067   0.86543   0.40449   0.00000  Uiso   1.00
H174   H     0.93549   0.72905   0.19948   0.00000  Uiso   1.00
H175   H     0.99217   0.40471   0.59450   0.00000  Uiso   1.00
O176   O     0.32934   0.85724   0.32341   0.00000  Uiso   1.00
O177   O     0.84733   0.67830   0.05445   0.00000  Uiso   1.00
O178   O     0.92170   0.25277   0.57271   0.00000  Uiso   1.00
N179   N     0.36934   0.74434   0.27710   0.00000  Uiso   1.00
N180   N     0.73846   0.61685   0.08541   0.00000  Uiso   1.00
N181   N     0.79147   0.31361   0.45472   0.00000  Uiso   1.00
N182   N     0.50206   0.82000   0.36602   0.00000  Uiso   1.00
N183   N     0.87118   0.69250   0.17433   0.00000  Uiso   1.00
N184   N     0.92420   0.38927   0.54364   0.00000  Uiso   1.00
C185   C     0.12631   0.57125   0.26854   0.00000  Uiso   1.00
C186   C     0.09263   0.49996   0.29647   0.00000  Uiso   1.00
C187   C     0.98856   0.48020   0.26962   0.00000  Uiso   1.00
C188   C     0.97440   0.41264   0.30256   0.00000  Uiso   1.00
C189   C     0.90889   0.30894   0.33712   0.00000  Uiso   1.00
C190   C     0.19109   0.53472   0.24098   0.00000  Uiso   1.00
C191   C     0.16981   0.54421   0.16746   0.00000  Uiso   1.00
C192   C     0.23855   0.50592   0.15369   0.00000  Uiso   1.00
C193   C     0.32594   0.45624   0.10211   0.00000  Uiso   1.00
C194   C     0.20481   0.62091   0.34100   0.00000  Uiso   1.00
C195   C     0.19508   0.70287   0.35157   0.00000  Uiso   1.00
C196   C     0.27539   0.73715   0.42200   0.00000  Uiso   1.00
C197   C     0.38408   0.82128   0.52572   0.00000  Uiso   1.00
C198   C     0.28624   0.48640   0.37481   0.00000  Uiso   1.00
C199   C     0.17950   0.45387   0.35420   0.00000  Uiso   1.00
C200   C     0.16550   0.38633   0.38719   0.00000  Uiso   1.00
C201   C     0.06142   0.36648   0.36039   0.00000  Uiso   1.00
C202   C     0.27795   0.48864   0.29869   0.00000  Uiso   1.00
C203   C     0.34674   0.45034   0.28503   0.00000  Uiso   1.00
C204   C     0.32557   0.45975   0.21151   0.00000  Uiso   1.00
C205   C     0.29167   0.57483   0.39872   0.00000  Uiso   1.00
C206   C     0.37201   0.60899   0.46915   0.00000  Uiso   1.00
C207   C     0.36241   0.69098   0.47983   0.00000  Uiso   1.00
H208   H     0.05869   0.60712   0.22360   0.00000  Uiso   1.00
H209   H     0.92136   0.51588   0.22494   0.00000  Uiso   1.00
H210   H     0.10259   0.57988   0.12280   0.00000  Uiso   1.00
H211   H     0.12785   0.73851   0.30689   0.00000  Uiso   1.00
H212   H     0.80741   0.39437   0.25186   0.00000  Uiso   1.00
H213   H     0.18956   0.52935   0.03651   0.00000  Uiso   1.00
H214   H     0.24284   0.86385   0.42468   0.00000  Uiso   1.00
H215   H     0.35387   0.45052   0.41975   0.00000  Uiso   1.00
H216   H     0.23273   0.35068   0.43186   0.00000  Uiso   1.00
H217   H     0.41396   0.41468   0.32972   0.00000  Uiso   1.00
H218   H     0.43922   0.57331   0.51380   0.00000  Uiso   1.00
H219   H     0.06013   0.26029   0.41980   0.00000  Uiso   1.00
H220   H     0.44228   0.39527   0.20444   0.00000  Uiso   1.00
H221   H     0.49556   0.72977   0.59262   0.00000  Uiso   1.00
O222   O     0.84875   0.26446   0.34023   0.00000  Uiso   1.00
O223   O     0.35013   0.44156   0.05770   0.00000  Uiso   1.00
O224   O     0.42002   0.88042   0.56698   0.00000  Uiso   1.00
N225   N     0.88351   0.37653   0.28973   0.00000  Uiso   1.00
N226   N     0.24079   0.50271   0.08839   0.00000  Uiso   1.00
N227   N     0.29061   0.81545   0.45129   0.00000  Uiso   1.00
N228   N     0.01950   0.30438   0.38010   0.00000  Uiso   1.00
N229   N     0.37677   0.43056   0.17875   0.00000  Uiso   1.00
N230   N     0.42660   0.74330   0.54166   0.00000  Uiso   1.00
C231   C     0.62139   0.94839   0.76461   0.00000  Uiso   1.00
C232   C     0.58436   0.87679   0.78979   0.00000  Uiso   1.00
C233   C     0.47929   0.85873   0.76142   0.00000  Uiso   1.00
C234   C     0.46198   0.79054   0.79190   0.00000  Uiso   1.00
C235   C     0.39159   0.68670   0.82233   0.00000  Uiso   1.00
C236   C     0.68608   0.91192   0.73695   0.00000  Uiso   1.00
C237   C     0.66655   0.92340   0.66417   0.00000  Uiso   1.00
C238   C     0.73488   0.88479   0.65017   0.00000  Uiso   1.00
C239   C     0.82246   0.83553   0.59859   0.00000  Uiso   1.00
C240   C     0.70068   0.99549   0.83874   0.00000  Uiso   1.00
C241   C     0.69344   0.07724   0.85153   0.00000  Uiso   1.00
C242   C     0.77408   0.10899   0.92322   0.00000  Uiso   1.00
C243   C     0.88432   0.18948   0.02967   0.00000  Uiso   1.00
C244   C     0.77747   0.85942   0.86918   0.00000  Uiso   1.00
C245   C     0.66914   0.82847   0.84658   0.00000  Uiso   1.00
C246   C     0.65198   0.76030   0.87711   0.00000  Uiso   1.00
C247   C     0.54691   0.74213   0.84880   0.00000  Uiso   1.00
C248   C     0.77086   0.86359   0.79375   0.00000  Uiso   1.00
C249   C     0.83924   0.82497   0.77986   0.00000  Uiso   1.00
C250   C     0.81981   0.83638   0.70707   0.00000  Uiso   1.00
C251   C     0.78546   0.94716   0.89554   0.00000  Uiso   1.00
C252   C     0.86612   0.97880   0.96722   0.00000  Uiso   1.00
C253   C     0.85901   0.06058   0.98012   0.00000  Uiso   1.00
H254   H     0.55539   0.98601   0.72039   0.00000  Uiso   1.00
H255   H     0.41371   0.89614   0.71746   0.00000  Uiso   1.00
H256   H     0.60094   0.96080   0.62023   0.00000  Uiso   1.00
H257   H     0.62782   0.11462   0.80756   0.00000  Uiso   1.00
H258   H     0.29401   0.77517   0.73925   0.00000  Uiso   1.00
H259   H     0.68883   0.91154   0.53423   0.00000  Uiso   1.00
H260   H     0.74552   0.23589   0.92926   0.00000  Uiso   1.00
H261   H     0.84348   0.82180   0.91339   0.00000  Uiso   1.00
H262   H     0.71760   0.72291   0.92106   0.00000  Uiso   1.00
H263   H     0.90484   0.78758   0.82382   0.00000  Uiso   1.00
H264   H     0.93172   0.94139   0.01116   0.00000  Uiso   1.00
H265   H     0.54067   0.63457   0.90449   0.00000  Uiso   1.00
H266   H     0.93549   0.77095   0.69948   0.00000  Uiso   1.00
H267   H     0.99217   0.09529   0.09450   0.00000  Uiso   1.00
O268   O     0.32934   0.64276   0.82341   0.00000  Uiso   1.00
O269   O     0.84733   0.82170   0.55445   0.00000  Uiso   1.00
O270   O     0.92170   0.24723   0.07271   0.00000  Uiso   1.00
N271   N     0.36934   0.75566   0.77710   0.00000  Uiso   1.00
N272   N     0.73846   0.88315   0.58541   0.00000  Uiso   1.00
N273   N     0.79147   0.18639   0.95472   0.00000  Uiso   1.00
N274   N     0.50206   0.68000   0.86602   0.00000  Uiso   1.00
N275   N     0.87118   0.80750   0.67433   0.00000  Uiso   1.00
N276   N     0.92420   0.11073   0.04364   0.00000  Uiso   1.00
C277   C     0.87369   0.07125   0.23146   0.00000  Uiso   1.00
C278   C     0.90737   0.99996   0.20353   0.00000  Uiso   1.00
C279   C     0.01144   0.98020   0.23038   0.00000  Uiso   1.00
C280   C     0.02560   0.91264   0.19744   0.00000  Uiso   1.00
C281   C     0.09111   0.80894   0.16288   0.00000  Uiso   1.00
C282   C     0.80891   0.03472   0.25902   0.00000  Uiso   1.00
C283   C     0.83019   0.04421   0.33254   0.00000  Uiso   1.00
C284   C     0.76145   0.00592   0.34631   0.00000  Uiso   1.00
C285   C     0.67406   0.95624   0.39789   0.00000  Uiso   1.00
C286   C     0.79519   0.12091   0.15900   0.00000  Uiso   1.00
C287   C     0.80492   0.20287   0.14843   0.00000  Uiso   1.00
C288   C     0.72461   0.23715   0.07800   0.00000  Uiso   1.00
C289   C     0.61592   0.32128   0.97428   0.00000  Uiso   1.00
C290   C     0.71376   0.98640   0.12519   0.00000  Uiso   1.00
C291   C     0.82050   0.95387   0.14580   0.00000  Uiso   1.00
C292   C     0.83450   0.88633   0.11281   0.00000  Uiso   1.00
C293   C     0.93858   0.86648   0.13961   0.00000  Uiso   1.00
C294   C     0.72205   0.98864   0.20131   0.00000  Uiso   1.00
C295   C     0.65326   0.95034   0.21497   0.00000  Uiso   1.00
C296   C     0.67443   0.95975   0.28849   0.00000  Uiso   1.00
C297   C     0.70833   0.07483   0.10128   0.00000  Uiso   1.00
C298   C     0.62799   0.10899   0.03085   0.00000  Uiso   1.00
C299   C     0.63759   0.19098   0.02017   0.00000  Uiso   1.00
H300   H     0.94131   0.10712   0.27640   0.00000  Uiso   1.00
H301   H     0.07864   0.01588   0.27506   0.00000  Uiso   1.00
H302   H     0.89741   0.07988   0.37720   0.00000  Uiso   1.00
H303   H     0.87215   0.23851   0.19311   0.00000  Uiso   1.00
H304   H     0.19259   0.89437   0.24814   0.00000  Uiso   1.00
H305   H     0.81044   0.02935   0.46349   0.00000  Uiso   1.00
H306   H     0.75716   0.36385   0.07532   0.00000  Uiso   1.00
H307   H     0.64613   0.95052   0.08025   0.00000  Uiso   1.00
H308   H     0.76727   0.85068   0.06814   0.00000  Uiso   1.00
H309   H     0.58604   0.91468   0.17028   0.00000  Uiso   1.00
H310   H     0.56078   0.07331   0.98620   0.00000  Uiso   1.00
H311   H     0.93987   0.76029   0.08020   0.00000  Uiso   1.00
H312   H     0.55772   0.89527   0.29556   0.00000  Uiso   1.00
H313   H     0.50444   0.22977   0.90738   0.00000  Uiso   1.00
O314   O     0.15125   0.76446   0.15977   0.00000  Uiso   1.00
O315   O     0.64987   0.94156   0.44230   0.00000  Uiso   1.00
O316   O     0.57998   0.38042   0.93302   0.00000  Uiso   1.00
N317   N     0.11649   0.87653   0.21027   0.00000  Uiso   1.00
N318   N     0.75921   0.00271   0.41161   0.00000  Uiso   1.00
N319   N     0.70939   0.31545   0.04871   0.00000  Uiso   1.00
N320   N     0.98050   0.80438   0.11990   0.00000  Uiso   1.00
N321   N     0.62323   0.93056   0.32125   0.00000  Uiso   1.00
N322   N     0.57340   0.24330   0.95834   0.00000  Uiso   1.00
C323   C     0.37861   0.44839   0.73539   0.00000  Uiso   1.00
C324   C     0.41564   0.37679   0.71021   0.00000  Uiso   1.00
C325   C     0.52071   0.35873   0.73858   0.00000  Uiso   1.00
C326   C     0.53802   0.29054   0.70810   0.00000  Uiso   1.00
C327   C     0.60841   0.18670   0.67767   0.00000  Uiso   1.00
C328   C     0.31392   0.41192   0.76305   0.00000  Uiso   1.00
C329   C     0.33345   0.42340   0.83583   0.00000  Uiso   1.00
C330   C     0.26512   0.38479   0.84983   0.00000  Uiso   1.00
C331   C     0.17754   0.33553   0.90141   0.00000  Uiso   1.00
C332   C     0.29932   0.49549   0.66126   0.00000  Uiso   1.00
C333   C     0.30656   0.57724   0.64847   0.00000  Uiso   1.00
C334   C     0.22592   0.60899   0.57678   0.00000  Uiso   1.00
C335   C     0.11568   0.68948   0.47033   0.00000  Uiso   1.00
C336   C     0.22253   0.35942   0.63082   0.00000  Uiso   1.00
C337   C     0.33086   0.32847   0.65342   0.00000  Uiso   1.00
C338   C     0.34802   0.26030   0.62289   0.00000  Uiso   1.00
C339   C     0.45309   0.24213   0.65120   0.00000  Uiso   1.00
C340   C     0.22914   0.36359   0.70625   0.00000  Uiso   1.00
C341   C     0.16076   0.32497   0.72014   0.00000  Uiso   1.00
C342   C     0.18019   0.33638   0.79293   0.00000  Uiso   1.00
C343   C     0.21454   0.44716   0.60446   0.00000  Uiso   1.00
C344   C     0.13388   0.47880   0.53278   0.00000  Uiso   1.00
C345   C     0.14099   0.56058   0.51988   0.00000  Uiso   1.00
H346   H     0.44461   0.48601   0.77961   0.00000  Uiso   1.00
H347   H     0.58629   0.39614   0.78254   0.00000  Uiso   1.00
H348   H     0.39906   0.46080   0.87977   0.00000  Uiso   1.00
H349   H     0.37218   0.61462   0.69244   0.00000  Uiso   1.00
H350   H     0.70599   0.27517   0.76075   0.00000  Uiso   1.00
H351   H     0.31117   0.41154   0.96577   0.00000  Uiso   1.00
H352   H     0.25448   0.73589   0.57074   0.00000  Uiso   1.00
H353   H     0.15652   0.32180   0.58661   0.00000  Uiso   1.00
H354   H     0.28240   0.22291   0.57894   0.00000  Uiso   1.00
H355   H     0.09516   0.28758   0.67618   0.00000  Uiso   1.00
H356   H     0.06828   0.44139   0.48884   0.00000  Uiso   1.00
H357   H     0.45933   0.13457   0.59551   0.00000  Uiso   1.00
H358   H     0.06451   0.27095   0.80052   0.00000  Uiso   1.00
H359   H     0.00783   0.59529   0.40550   0.00000  Uiso   1.00
O360   O     0.67066   0.14276   0.67659   0.00000  Uiso   1.00
O361   O     0.15267   0.32170   0.94555   0.00000  Uiso   1.00
O362   O     0.07830   0.74723   0.42729   0.00000  Uiso   1.00
N363   N     0.63066   0.25566   0.72290   0.00000  Uiso   1.00
N364   N     0.26154   0.38315   0.91459   0.00000  Uiso   1.00
N365   N     0.20853   0.68639   0.54528   0.00000  Uiso   1.00
N366   N     0.49794   0.18000   0.63398   0.00000  Uiso   1.00
N367   N     0.12882   0.30750   0.82567   0.00000  Uiso   1.00
N368   N     0.07580   0.61073   0.45636   0.00000  Uiso   1.00
