data_job_02662
_audit_creation_date              2018-12-19
_audit_creation_method            'Materials Studio'
_symmetry_space_group_name_H-M    'P1'
_symmetry_Int_Tables_number       1
_symmetry_cell_setting            triclinic
loop_
_symmetry_equiv_pos_as_xyz
  x,y,z
_cell_length_a                    11.6029
_cell_length_b                    12.6344
_cell_length_c                    14.8834
_cell_angle_alpha                 91.3125
_cell_angle_beta                  68.3431
_cell_angle_gamma                 110.1499
loop_
_atom_site_label
_atom_site_type_symbol
_atom_site_fract_x
_atom_site_fract_y
_atom_site_fract_z
_atom_site_U_iso_or_equiv
_atom_site_adp_type
_atom_site_occupancy
C1     C     0.60938   0.27122   0.37576   0.00000  Uiso   1.00
C2     C     0.68426   0.39846   0.34523   0.00000  Uiso   1.00
C3     C     0.73038   0.47665   0.40260   0.00000  Uiso   1.00
C4     C     0.79655   0.58917   0.36134   0.00000  Uiso   1.00
C5     C     0.90982   0.78172   0.32843   0.00000  Uiso   1.00
C6     C     0.47898   0.24389   0.36159   0.00000  Uiso   1.00
C7     C     0.35249   0.19211   0.43272   0.00000  Uiso   1.00
C8     C     0.24585   0.17450   0.40522   0.00000  Uiso   1.00
C9     C     0.04042   0.12701   0.39771   0.00000  Uiso   1.00
C10    C     0.68924   0.21296   0.30033   0.00000  Uiso   1.00
C11    C     0.73953   0.13515   0.31995   0.00000  Uiso   1.00
C12    C     0.80990   0.09148   0.24087   0.00000  Uiso   1.00
C13    C     0.93094   0.99596   0.13823   0.00000  Uiso   1.00
C14    C     0.64491   0.33199   0.20045   0.00000  Uiso   1.00
C15    C     0.70355   0.43146   0.25001   0.00000  Uiso   1.00
C16    C     0.76968   0.54389   0.20864   0.00000  Uiso   1.00
C17    C     0.81589   0.62224   0.26594   0.00000  Uiso   1.00
C18    C     0.49827   0.27690   0.26638   0.00000  Uiso   1.00
C19    C     0.39179   0.25935   0.23876   0.00000  Uiso   1.00
C20    C     0.26518   0.20757   0.30983   0.00000  Uiso   1.00
C21    C     0.70855   0.24597   0.20511   0.00000  Uiso   1.00
C22    C     0.77884   0.20240   0.12599   0.00000  Uiso   1.00
C23    C     0.82923   0.12454   0.14548   0.00000  Uiso   1.00
H24    H     0.59435   0.24552   0.44990   0.00000  Uiso   1.00
H25    H     0.71541   0.45108   0.47629   0.00000  Uiso   1.00
H26    H     0.33759   0.16657   0.50640   0.00000  Uiso   1.00
H27    H     0.72458   0.10963   0.39364   0.00000  Uiso   1.00
H28    H     0.85809   0.69354   0.46358   0.00000  Uiso   1.00
H29    H     0.06143   0.09361   0.52706   0.00000  Uiso   1.00
H30    H     0.87747   0.97352   0.28928   0.00000  Uiso   1.00
H31    H     0.65993   0.35769   0.12632   0.00000  Uiso   1.00
H32    H     0.78460   0.56941   0.13495   0.00000  Uiso   1.00
H33    H     0.40677   0.28490   0.16507   0.00000  Uiso   1.00
H34    H     0.79375   0.22796   0.05231   0.00000  Uiso   1.00
H35    H     0.91424   0.78958   0.18653   0.00000  Uiso   1.00
H36    H     0.11758   0.18964   0.25002   0.00000  Uiso   1.00
H37    H     0.93362   0.06957   0.01224   0.00000  Uiso   1.00
O38    O     0.96695   0.87882   0.33659   0.00000  Uiso   1.00
O39    O     0.92177   0.09171   0.41987   0.00000  Uiso   1.00
O40    O     0.99239   0.93417   0.10792   0.00000  Uiso   1.00
N41    N     0.85422   0.68708   0.39718   0.00000  Uiso   1.00
N42    N     0.10939   0.12620   0.45654   0.00000  Uiso   1.00
N43    N     0.87229   0.01391   0.23424   0.00000  Uiso   1.00
N44    N     0.88444   0.73876   0.24811   0.00000  Uiso   1.00
N45    N     0.13961   0.17788   0.30747   0.00000  Uiso   1.00
N46    N     0.90250   0.06559   0.08517   0.00000  Uiso   1.00
C47    C     0.39062   0.72878   0.62424   0.00000  Uiso   1.00
C48    C     0.31574   0.60154   0.65477   0.00000  Uiso   1.00
C49    C     0.26962   0.52335   0.59740   0.00000  Uiso   1.00
C50    C     0.20345   0.41083   0.63866   0.00000  Uiso   1.00
C51    C     0.09018   0.21828   0.67157   0.00000  Uiso   1.00
C52    C     0.52102   0.75611   0.63841   0.00000  Uiso   1.00
C53    C     0.64751   0.80789   0.56728   0.00000  Uiso   1.00
C54    C     0.75415   0.82550   0.59478   0.00000  Uiso   1.00
C55    C     0.95958   0.87299   0.60229   0.00000  Uiso   1.00
C56    C     0.31076   0.78704   0.69967   0.00000  Uiso   1.00
C57    C     0.26047   0.86485   0.68005   0.00000  Uiso   1.00
C58    C     0.19010   0.90852   0.75913   0.00000  Uiso   1.00
C59    C     0.06906   0.00404   0.86177   0.00000  Uiso   1.00
C60    C     0.35509   0.66801   0.79955   0.00000  Uiso   1.00
C61    C     0.29645   0.56854   0.74999   0.00000  Uiso   1.00
C62    C     0.23032   0.45611   0.79136   0.00000  Uiso   1.00
C63    C     0.18411   0.37776   0.73406   0.00000  Uiso   1.00
C64    C     0.50173   0.72310   0.73362   0.00000  Uiso   1.00
C65    C     0.60821   0.74065   0.76124   0.00000  Uiso   1.00
C66    C     0.73482   0.79243   0.69017   0.00000  Uiso   1.00
C67    C     0.29145   0.75403   0.79489   0.00000  Uiso   1.00
C68    C     0.22116   0.79760   0.87401   0.00000  Uiso   1.00
C69    C     0.17077   0.87546   0.85452   0.00000  Uiso   1.00
H70    H     0.40565   0.75448   0.55010   0.00000  Uiso   1.00
H71    H     0.28459   0.54892   0.52371   0.00000  Uiso   1.00
H72    H     0.66241   0.83343   0.49360   0.00000  Uiso   1.00
H73    H     0.27542   0.89037   0.60636   0.00000  Uiso   1.00
H74    H     0.14191   0.30646   0.53642   0.00000  Uiso   1.00
H75    H     0.93857   0.90639   0.47294   0.00000  Uiso   1.00
H76    H     0.12253   0.02648   0.71072   0.00000  Uiso   1.00
H77    H     0.34007   0.64231   0.87368   0.00000  Uiso   1.00
H78    H     0.21540   0.43059   0.86505   0.00000  Uiso   1.00
H79    H     0.59323   0.71510   0.83493   0.00000  Uiso   1.00
H80    H     0.20625   0.77204   0.94769   0.00000  Uiso   1.00
H81    H     0.08576   0.21042   0.81347   0.00000  Uiso   1.00
H82    H     0.88242   0.81036   0.74998   0.00000  Uiso   1.00
H83    H     0.06638   0.93043   0.98776   0.00000  Uiso   1.00
O84    O     0.03305   0.12118   0.66341   0.00000  Uiso   1.00
O85    O     0.07823   0.90829   0.58013   0.00000  Uiso   1.00
O86    O     0.00761   0.06583   0.89208   0.00000  Uiso   1.00
N87    N     0.14578   0.31292   0.60282   0.00000  Uiso   1.00
N88    N     0.89061   0.87380   0.54346   0.00000  Uiso   1.00
N89    N     0.12771   0.98609   0.76576   0.00000  Uiso   1.00
N90    N     0.11556   0.26124   0.75189   0.00000  Uiso   1.00
N91    N     0.86039   0.82212   0.69253   0.00000  Uiso   1.00
N92    N     0.09750   0.93441   0.91483   0.00000  Uiso   1.00
