data_job_05472
_audit_creation_date              2018-12-19
_audit_creation_method            'Materials Studio'
_symmetry_space_group_name_H-M    'P1'
_symmetry_Int_Tables_number       1
_symmetry_cell_setting            triclinic
loop_
_symmetry_equiv_pos_as_xyz
  x,y,z
_cell_length_a                    11.8671
_cell_length_b                    20.3090
_cell_length_c                    19.1057
_cell_angle_alpha                 90.0000
_cell_angle_beta                  90.0000
_cell_angle_gamma                 90.0000
loop_
_atom_site_label
_atom_site_type_symbol
_atom_site_fract_x
_atom_site_fract_y
_atom_site_fract_z
_atom_site_U_iso_or_equiv
_atom_site_adp_type
_atom_site_occupancy
C1     C     0.67594   0.07447   0.67406   0.00000  Uiso   1.00
C2     C     0.62740   0.09693   0.60412   0.00000  Uiso   1.00
C3     C     0.53577   0.06901   0.57011   0.00000  Uiso   1.00
C4     C     0.50445   0.09668   0.50657   0.00000  Uiso   1.00
C5     C     0.42025   0.12336   0.40228   0.00000  Uiso   1.00
C6     C     0.79994   0.05941   0.66055   0.00000  Uiso   1.00
C7     C     0.85338   0.99996   0.67401   0.00000  Uiso   1.00
C8     C     0.96730   0.99606   0.65799   0.00000  Uiso   1.00
C9     C     0.15099   0.96452   0.64136   0.00000  Uiso   1.00
C10    C     0.67403   0.13476   0.72161   0.00000  Uiso   1.00
C11    C     0.62162   0.13866   0.78642   0.00000  Uiso   1.00
C12    C     0.62956   0.19819   0.82181   0.00000  Uiso   1.00
C13    C     0.61775   0.28363   0.89999   0.00000  Uiso   1.00
C14    C     0.78325   0.17325   0.62169   0.00000  Uiso   1.00
C15    C     0.68569   0.15058   0.57567   0.00000  Uiso   1.00
C16    C     0.65449   0.17830   0.51217   0.00000  Uiso   1.00
C17    C     0.56283   0.15043   0.47808   0.00000  Uiso   1.00
C18    C     0.85823   0.11307   0.63211   0.00000  Uiso   1.00
C19    C     0.97210   0.10925   0.61607   0.00000  Uiso   1.00
C20    C     0.02570   0.04981   0.62949   0.00000  Uiso   1.00
C21    C     0.73231   0.18842   0.69317   0.00000  Uiso   1.00
C22    C     0.74034   0.24795   0.72847   0.00000  Uiso   1.00
C23    C     0.68795   0.25194   0.79331   0.00000  Uiso   1.00
H24    H     0.63057   0.03269   0.69620   0.00000  Uiso   1.00
H25    H     0.49069   0.02748   0.59214   0.00000  Uiso   1.00
H26    H     0.80825   0.95845   0.69603   0.00000  Uiso   1.00
H27    H     0.57653   0.09712   0.80841   0.00000  Uiso   1.00
H28    H     0.36135   0.04535   0.46421   0.00000  Uiso   1.00
H29    H     0.03094   0.89980   0.68328   0.00000  Uiso   1.00
H30    H     0.54231   0.19222   0.92027   0.00000  Uiso   1.00
H31    H     0.82863   0.21503   0.59954   0.00000  Uiso   1.00
H32    H     0.69962   0.21982   0.49017   0.00000  Uiso   1.00
H33    H     0.01718   0.15079   0.59406   0.00000  Uiso   1.00
H34    H     0.78545   0.28946   0.70644   0.00000  Uiso   1.00
H35    H     0.53092   0.20146   0.38144   0.00000  Uiso   1.00
H36    H     0.20052   0.05591   0.60052   0.00000  Uiso   1.00
H37    H     0.71188   0.34833   0.83751   0.00000  Uiso   1.00
O38    O     0.35771   0.12326   0.35261   0.00000  Uiso   1.00
O39    O     0.23620   0.93230   0.64004   0.00000  Uiso   1.00
O40    O     0.59512   0.31595   0.95096   0.00000  Uiso   1.00
N41    N     0.41894   0.08144   0.45975   0.00000  Uiso   1.00
N42    N     0.04498   0.94535   0.66456   0.00000  Uiso   1.00
N43    N     0.58817   0.21874   0.88613   0.00000  Uiso   1.00
N44    N     0.51019   0.16544   0.41521   0.00000  Uiso   1.00
N45    N     0.13622   0.02936   0.62002   0.00000  Uiso   1.00
N46    N     0.67941   0.30274   0.84160   0.00000  Uiso   1.00
C47    C     0.82406   0.42553   0.17406   0.00000  Uiso   1.00
C48    C     0.87260   0.40307   0.10412   0.00000  Uiso   1.00
C49    C     0.96423   0.43099   0.07011   0.00000  Uiso   1.00
C50    C     0.99555   0.40332   0.00657   0.00000  Uiso   1.00
C51    C     0.07975   0.37664   0.90228   0.00000  Uiso   1.00
C52    C     0.70006   0.44059   0.16055   0.00000  Uiso   1.00
C53    C     0.64662   0.50004   0.17401   0.00000  Uiso   1.00
C54    C     0.53270   0.50394   0.15799   0.00000  Uiso   1.00
C55    C     0.34901   0.53548   0.14136   0.00000  Uiso   1.00
C56    C     0.82597   0.36524   0.22161   0.00000  Uiso   1.00
C57    C     0.87838   0.36134   0.28642   0.00000  Uiso   1.00
C58    C     0.87044   0.30181   0.32181   0.00000  Uiso   1.00
C59    C     0.88225   0.21637   0.39999   0.00000  Uiso   1.00
C60    C     0.71675   0.32675   0.12169   0.00000  Uiso   1.00
C61    C     0.81431   0.34942   0.07567   0.00000  Uiso   1.00
C62    C     0.84551   0.32170   0.01217   0.00000  Uiso   1.00
C63    C     0.93717   0.34957   0.97808   0.00000  Uiso   1.00
C64    C     0.64177   0.38693   0.13211   0.00000  Uiso   1.00
C65    C     0.52790   0.39075   0.11607   0.00000  Uiso   1.00
C66    C     0.47430   0.45019   0.12949   0.00000  Uiso   1.00
C67    C     0.76769   0.31158   0.19317   0.00000  Uiso   1.00
C68    C     0.75966   0.25205   0.22847   0.00000  Uiso   1.00
C69    C     0.81205   0.24806   0.29331   0.00000  Uiso   1.00
H70    H     0.86943   0.46731   0.19620   0.00000  Uiso   1.00
H71    H     0.00931   0.47252   0.09214   0.00000  Uiso   1.00
H72    H     0.69175   0.54155   0.19603   0.00000  Uiso   1.00
H73    H     0.92347   0.40288   0.30841   0.00000  Uiso   1.00
H74    H     0.13865   0.45465   0.96421   0.00000  Uiso   1.00
H75    H     0.46906   0.60020   0.18328   0.00000  Uiso   1.00
H76    H     0.95769   0.30778   0.42027   0.00000  Uiso   1.00
H77    H     0.67137   0.28497   0.09954   0.00000  Uiso   1.00
H78    H     0.80038   0.28018   0.99017   0.00000  Uiso   1.00
H79    H     0.48282   0.34921   0.09406   0.00000  Uiso   1.00
H80    H     0.71455   0.21054   0.20644   0.00000  Uiso   1.00
H81    H     0.96908   0.29854   0.88144   0.00000  Uiso   1.00
H82    H     0.29948   0.44409   0.10052   0.00000  Uiso   1.00
H83    H     0.78812   0.15167   0.33751   0.00000  Uiso   1.00
O84    O     0.14229   0.37674   0.85261   0.00000  Uiso   1.00
O85    O     0.26380   0.56770   0.14004   0.00000  Uiso   1.00
O86    O     0.90488   0.18405   0.45096   0.00000  Uiso   1.00
N87    N     0.08106   0.41856   0.95975   0.00000  Uiso   1.00
N88    N     0.45502   0.55465   0.16456   0.00000  Uiso   1.00
N89    N     0.91183   0.28126   0.38613   0.00000  Uiso   1.00
N90    N     0.98981   0.33456   0.91521   0.00000  Uiso   1.00
N91    N     0.36378   0.47064   0.12002   0.00000  Uiso   1.00
N92    N     0.82059   0.19726   0.34160   0.00000  Uiso   1.00
C93    C     0.32406   0.07447   0.82594   0.00000  Uiso   1.00
C94    C     0.37260   0.09693   0.89588   0.00000  Uiso   1.00
C95    C     0.46423   0.06901   0.92989   0.00000  Uiso   1.00
C96    C     0.49555   0.09668   0.99343   0.00000  Uiso   1.00
C97    C     0.57975   0.12336   0.09772   0.00000  Uiso   1.00
C98    C     0.20006   0.05941   0.83945   0.00000  Uiso   1.00
C99    C     0.14662   0.99996   0.82599   0.00000  Uiso   1.00
C100   C     0.03270   0.99606   0.84201   0.00000  Uiso   1.00
C101   C     0.84901   0.96452   0.85864   0.00000  Uiso   1.00
C102   C     0.32597   0.13476   0.77839   0.00000  Uiso   1.00
C103   C     0.37838   0.13866   0.71358   0.00000  Uiso   1.00
C104   C     0.37044   0.19819   0.67819   0.00000  Uiso   1.00
C105   C     0.38225   0.28363   0.60001   0.00000  Uiso   1.00
C106   C     0.21675   0.17325   0.87831   0.00000  Uiso   1.00
C107   C     0.31431   0.15058   0.92433   0.00000  Uiso   1.00
C108   C     0.34551   0.17830   0.98783   0.00000  Uiso   1.00
C109   C     0.43717   0.15043   0.02192   0.00000  Uiso   1.00
C110   C     0.14177   0.11307   0.86789   0.00000  Uiso   1.00
C111   C     0.02790   0.10925   0.88393   0.00000  Uiso   1.00
C112   C     0.97430   0.04981   0.87051   0.00000  Uiso   1.00
C113   C     0.26769   0.18842   0.80683   0.00000  Uiso   1.00
C114   C     0.25966   0.24795   0.77153   0.00000  Uiso   1.00
C115   C     0.31205   0.25194   0.70669   0.00000  Uiso   1.00
H116   H     0.36943   0.03269   0.80380   0.00000  Uiso   1.00
H117   H     0.50931   0.02748   0.90786   0.00000  Uiso   1.00
H118   H     0.19175   0.95845   0.80397   0.00000  Uiso   1.00
H119   H     0.42347   0.09712   0.69159   0.00000  Uiso   1.00
H120   H     0.63865   0.04535   0.03579   0.00000  Uiso   1.00
H121   H     0.96906   0.89980   0.81672   0.00000  Uiso   1.00
H122   H     0.45769   0.19222   0.57973   0.00000  Uiso   1.00
H123   H     0.17137   0.21503   0.90046   0.00000  Uiso   1.00
H124   H     0.30038   0.21982   0.00983   0.00000  Uiso   1.00
H125   H     0.98282   0.15079   0.90594   0.00000  Uiso   1.00
H126   H     0.21455   0.28946   0.79356   0.00000  Uiso   1.00
H127   H     0.46908   0.20146   0.11856   0.00000  Uiso   1.00
H128   H     0.79948   0.05591   0.89948   0.00000  Uiso   1.00
H129   H     0.28812   0.34833   0.66249   0.00000  Uiso   1.00
O130   O     0.64229   0.12326   0.14739   0.00000  Uiso   1.00
O131   O     0.76380   0.93230   0.85996   0.00000  Uiso   1.00
O132   O     0.40488   0.31595   0.54904   0.00000  Uiso   1.00
N133   N     0.58106   0.08144   0.04025   0.00000  Uiso   1.00
N134   N     0.95502   0.94535   0.83544   0.00000  Uiso   1.00
N135   N     0.41183   0.21874   0.61387   0.00000  Uiso   1.00
N136   N     0.48981   0.16544   0.08479   0.00000  Uiso   1.00
N137   N     0.86378   0.02936   0.87998   0.00000  Uiso   1.00
N138   N     0.32059   0.30274   0.65840   0.00000  Uiso   1.00
C139   C     0.17594   0.42553   0.32594   0.00000  Uiso   1.00
C140   C     0.12740   0.40307   0.39588   0.00000  Uiso   1.00
C141   C     0.03577   0.43099   0.42989   0.00000  Uiso   1.00
C142   C     0.00445   0.40332   0.49343   0.00000  Uiso   1.00
C143   C     0.92025   0.37664   0.59772   0.00000  Uiso   1.00
C144   C     0.29994   0.44059   0.33945   0.00000  Uiso   1.00
C145   C     0.35338   0.50004   0.32599   0.00000  Uiso   1.00
C146   C     0.46730   0.50394   0.34201   0.00000  Uiso   1.00
C147   C     0.65099   0.53548   0.35864   0.00000  Uiso   1.00
C148   C     0.17403   0.36524   0.27839   0.00000  Uiso   1.00
C149   C     0.12162   0.36134   0.21358   0.00000  Uiso   1.00
C150   C     0.12956   0.30181   0.17819   0.00000  Uiso   1.00
C151   C     0.11775   0.21637   0.10001   0.00000  Uiso   1.00
C152   C     0.28325   0.32675   0.37831   0.00000  Uiso   1.00
C153   C     0.18569   0.34942   0.42433   0.00000  Uiso   1.00
C154   C     0.15449   0.32170   0.48783   0.00000  Uiso   1.00
C155   C     0.06283   0.34957   0.52192   0.00000  Uiso   1.00
C156   C     0.35823   0.38693   0.36789   0.00000  Uiso   1.00
C157   C     0.47210   0.39075   0.38393   0.00000  Uiso   1.00
C158   C     0.52570   0.45019   0.37051   0.00000  Uiso   1.00
C159   C     0.23231   0.31158   0.30683   0.00000  Uiso   1.00
C160   C     0.24034   0.25205   0.27153   0.00000  Uiso   1.00
C161   C     0.18795   0.24806   0.20669   0.00000  Uiso   1.00
H162   H     0.13057   0.46731   0.30380   0.00000  Uiso   1.00
H163   H     0.99069   0.47252   0.40786   0.00000  Uiso   1.00
H164   H     0.30825   0.54155   0.30397   0.00000  Uiso   1.00
H165   H     0.07653   0.40288   0.19159   0.00000  Uiso   1.00
H166   H     0.86135   0.45465   0.53579   0.00000  Uiso   1.00
H167   H     0.53094   0.60020   0.31672   0.00000  Uiso   1.00
H168   H     0.04231   0.30778   0.07973   0.00000  Uiso   1.00
H169   H     0.32863   0.28497   0.40046   0.00000  Uiso   1.00
H170   H     0.19962   0.28018   0.50983   0.00000  Uiso   1.00
H171   H     0.51718   0.34921   0.40594   0.00000  Uiso   1.00
H172   H     0.28545   0.21054   0.29356   0.00000  Uiso   1.00
H173   H     0.03092   0.29854   0.61856   0.00000  Uiso   1.00
H174   H     0.70052   0.44409   0.39948   0.00000  Uiso   1.00
H175   H     0.21188   0.15167   0.16249   0.00000  Uiso   1.00
O176   O     0.85771   0.37674   0.64739   0.00000  Uiso   1.00
O177   O     0.73620   0.56770   0.35996   0.00000  Uiso   1.00
O178   O     0.09512   0.18405   0.04904   0.00000  Uiso   1.00
N179   N     0.91894   0.41856   0.54025   0.00000  Uiso   1.00
N180   N     0.54498   0.55465   0.33544   0.00000  Uiso   1.00
N181   N     0.08817   0.28126   0.11387   0.00000  Uiso   1.00
N182   N     0.01019   0.33456   0.58479   0.00000  Uiso   1.00
N183   N     0.63622   0.47064   0.37998   0.00000  Uiso   1.00
N184   N     0.17941   0.19726   0.15840   0.00000  Uiso   1.00
C185   C     0.32406   0.92553   0.32594   0.00000  Uiso   1.00
C186   C     0.37260   0.90307   0.39588   0.00000  Uiso   1.00
C187   C     0.46423   0.93099   0.42989   0.00000  Uiso   1.00
C188   C     0.49555   0.90332   0.49343   0.00000  Uiso   1.00
C189   C     0.57975   0.87664   0.59772   0.00000  Uiso   1.00
C190   C     0.20006   0.94059   0.33945   0.00000  Uiso   1.00
C191   C     0.14662   0.00004   0.32599   0.00000  Uiso   1.00
C192   C     0.03270   0.00394   0.34201   0.00000  Uiso   1.00
C193   C     0.84901   0.03548   0.35864   0.00000  Uiso   1.00
C194   C     0.32597   0.86524   0.27839   0.00000  Uiso   1.00
C195   C     0.37838   0.86134   0.21358   0.00000  Uiso   1.00
C196   C     0.37044   0.80181   0.17819   0.00000  Uiso   1.00
C197   C     0.38225   0.71637   0.10001   0.00000  Uiso   1.00
C198   C     0.21675   0.82675   0.37831   0.00000  Uiso   1.00
C199   C     0.31431   0.84942   0.42433   0.00000  Uiso   1.00
C200   C     0.34551   0.82170   0.48783   0.00000  Uiso   1.00
C201   C     0.43717   0.84957   0.52192   0.00000  Uiso   1.00
C202   C     0.14177   0.88693   0.36789   0.00000  Uiso   1.00
C203   C     0.02790   0.89075   0.38393   0.00000  Uiso   1.00
C204   C     0.97430   0.95019   0.37051   0.00000  Uiso   1.00
C205   C     0.26769   0.81158   0.30683   0.00000  Uiso   1.00
C206   C     0.25966   0.75205   0.27153   0.00000  Uiso   1.00
C207   C     0.31205   0.74806   0.20669   0.00000  Uiso   1.00
H208   H     0.36943   0.96731   0.30380   0.00000  Uiso   1.00
H209   H     0.50931   0.97252   0.40786   0.00000  Uiso   1.00
H210   H     0.19175   0.04155   0.30397   0.00000  Uiso   1.00
H211   H     0.42347   0.90288   0.19159   0.00000  Uiso   1.00
H212   H     0.63865   0.95465   0.53579   0.00000  Uiso   1.00
H213   H     0.96906   0.10020   0.31672   0.00000  Uiso   1.00
H214   H     0.45769   0.80778   0.07973   0.00000  Uiso   1.00
H215   H     0.17137   0.78497   0.40046   0.00000  Uiso   1.00
H216   H     0.30038   0.78018   0.50983   0.00000  Uiso   1.00
H217   H     0.98282   0.84921   0.40594   0.00000  Uiso   1.00
H218   H     0.21455   0.71054   0.29356   0.00000  Uiso   1.00
H219   H     0.46908   0.79854   0.61856   0.00000  Uiso   1.00
H220   H     0.79948   0.94409   0.39948   0.00000  Uiso   1.00
H221   H     0.28812   0.65167   0.16249   0.00000  Uiso   1.00
O222   O     0.64229   0.87674   0.64739   0.00000  Uiso   1.00
O223   O     0.76380   0.06770   0.35996   0.00000  Uiso   1.00
O224   O     0.40488   0.68405   0.04904   0.00000  Uiso   1.00
N225   N     0.58106   0.91856   0.54025   0.00000  Uiso   1.00
N226   N     0.95502   0.05465   0.33544   0.00000  Uiso   1.00
N227   N     0.41183   0.78126   0.11387   0.00000  Uiso   1.00
N228   N     0.48981   0.83456   0.58479   0.00000  Uiso   1.00
N229   N     0.86378   0.97064   0.37998   0.00000  Uiso   1.00
N230   N     0.32059   0.69726   0.15840   0.00000  Uiso   1.00
C231   C     0.17594   0.57447   0.82594   0.00000  Uiso   1.00
C232   C     0.12740   0.59693   0.89588   0.00000  Uiso   1.00
C233   C     0.03577   0.56901   0.92989   0.00000  Uiso   1.00
C234   C     0.00445   0.59668   0.99343   0.00000  Uiso   1.00
C235   C     0.92025   0.62336   0.09772   0.00000  Uiso   1.00
C236   C     0.29994   0.55941   0.83945   0.00000  Uiso   1.00
C237   C     0.35338   0.49996   0.82599   0.00000  Uiso   1.00
C238   C     0.46730   0.49606   0.84201   0.00000  Uiso   1.00
C239   C     0.65099   0.46452   0.85864   0.00000  Uiso   1.00
C240   C     0.17403   0.63476   0.77839   0.00000  Uiso   1.00
C241   C     0.12162   0.63866   0.71358   0.00000  Uiso   1.00
C242   C     0.12956   0.69819   0.67819   0.00000  Uiso   1.00
C243   C     0.11775   0.78363   0.60001   0.00000  Uiso   1.00
C244   C     0.28325   0.67325   0.87831   0.00000  Uiso   1.00
C245   C     0.18569   0.65058   0.92433   0.00000  Uiso   1.00
C246   C     0.15449   0.67830   0.98783   0.00000  Uiso   1.00
C247   C     0.06283   0.65043   0.02192   0.00000  Uiso   1.00
C248   C     0.35823   0.61307   0.86789   0.00000  Uiso   1.00
C249   C     0.47210   0.60925   0.88393   0.00000  Uiso   1.00
C250   C     0.52570   0.54981   0.87051   0.00000  Uiso   1.00
C251   C     0.23231   0.68842   0.80683   0.00000  Uiso   1.00
C252   C     0.24034   0.74795   0.77153   0.00000  Uiso   1.00
C253   C     0.18795   0.75194   0.70669   0.00000  Uiso   1.00
H254   H     0.13057   0.53269   0.80380   0.00000  Uiso   1.00
H255   H     0.99069   0.52748   0.90786   0.00000  Uiso   1.00
H256   H     0.30825   0.45845   0.80397   0.00000  Uiso   1.00
H257   H     0.07653   0.59712   0.69159   0.00000  Uiso   1.00
H258   H     0.86135   0.54535   0.03579   0.00000  Uiso   1.00
H259   H     0.53094   0.39980   0.81672   0.00000  Uiso   1.00
H260   H     0.04231   0.69222   0.57973   0.00000  Uiso   1.00
H261   H     0.32863   0.71503   0.90046   0.00000  Uiso   1.00
H262   H     0.19962   0.71982   0.00983   0.00000  Uiso   1.00
H263   H     0.51718   0.65079   0.90594   0.00000  Uiso   1.00
H264   H     0.28545   0.78946   0.79356   0.00000  Uiso   1.00
H265   H     0.03092   0.70146   0.11856   0.00000  Uiso   1.00
H266   H     0.70052   0.55591   0.89948   0.00000  Uiso   1.00
H267   H     0.21188   0.84833   0.66249   0.00000  Uiso   1.00
O268   O     0.85771   0.62326   0.14739   0.00000  Uiso   1.00
O269   O     0.73620   0.43230   0.85996   0.00000  Uiso   1.00
O270   O     0.09512   0.81595   0.54904   0.00000  Uiso   1.00
N271   N     0.91894   0.58144   0.04025   0.00000  Uiso   1.00
N272   N     0.54498   0.44535   0.83544   0.00000  Uiso   1.00
N273   N     0.08817   0.71874   0.61387   0.00000  Uiso   1.00
N274   N     0.01019   0.66544   0.08479   0.00000  Uiso   1.00
N275   N     0.63622   0.52936   0.87998   0.00000  Uiso   1.00
N276   N     0.17941   0.80274   0.65840   0.00000  Uiso   1.00
C277   C     0.67594   0.92553   0.17406   0.00000  Uiso   1.00
C278   C     0.62740   0.90307   0.10412   0.00000  Uiso   1.00
C279   C     0.53577   0.93099   0.07011   0.00000  Uiso   1.00
C280   C     0.50445   0.90332   0.00657   0.00000  Uiso   1.00
C281   C     0.42025   0.87664   0.90228   0.00000  Uiso   1.00
C282   C     0.79994   0.94059   0.16055   0.00000  Uiso   1.00
C283   C     0.85338   0.00004   0.17401   0.00000  Uiso   1.00
C284   C     0.96730   0.00394   0.15799   0.00000  Uiso   1.00
C285   C     0.15099   0.03548   0.14136   0.00000  Uiso   1.00
C286   C     0.67403   0.86524   0.22161   0.00000  Uiso   1.00
C287   C     0.62162   0.86134   0.28642   0.00000  Uiso   1.00
C288   C     0.62956   0.80181   0.32181   0.00000  Uiso   1.00
C289   C     0.61775   0.71637   0.39999   0.00000  Uiso   1.00
C290   C     0.78325   0.82675   0.12169   0.00000  Uiso   1.00
C291   C     0.68569   0.84942   0.07567   0.00000  Uiso   1.00
C292   C     0.65449   0.82170   0.01217   0.00000  Uiso   1.00
C293   C     0.56283   0.84957   0.97808   0.00000  Uiso   1.00
C294   C     0.85823   0.88693   0.13211   0.00000  Uiso   1.00
C295   C     0.97210   0.89075   0.11607   0.00000  Uiso   1.00
C296   C     0.02570   0.95019   0.12949   0.00000  Uiso   1.00
C297   C     0.73231   0.81158   0.19317   0.00000  Uiso   1.00
C298   C     0.74034   0.75205   0.22847   0.00000  Uiso   1.00
C299   C     0.68795   0.74806   0.29331   0.00000  Uiso   1.00
H300   H     0.63057   0.96731   0.19620   0.00000  Uiso   1.00
H301   H     0.49069   0.97252   0.09214   0.00000  Uiso   1.00
H302   H     0.80825   0.04155   0.19603   0.00000  Uiso   1.00
H303   H     0.57653   0.90288   0.30841   0.00000  Uiso   1.00
H304   H     0.36135   0.95465   0.96421   0.00000  Uiso   1.00
H305   H     0.03094   0.10020   0.18328   0.00000  Uiso   1.00
H306   H     0.54231   0.80778   0.42027   0.00000  Uiso   1.00
H307   H     0.82863   0.78497   0.09954   0.00000  Uiso   1.00
H308   H     0.69962   0.78018   0.99017   0.00000  Uiso   1.00
H309   H     0.01718   0.84921   0.09406   0.00000  Uiso   1.00
H310   H     0.78545   0.71054   0.20644   0.00000  Uiso   1.00
H311   H     0.53092   0.79854   0.88144   0.00000  Uiso   1.00
H312   H     0.20052   0.94409   0.10052   0.00000  Uiso   1.00
H313   H     0.71188   0.65167   0.33751   0.00000  Uiso   1.00
O314   O     0.35771   0.87674   0.85261   0.00000  Uiso   1.00
O315   O     0.23620   0.06770   0.14004   0.00000  Uiso   1.00
O316   O     0.59512   0.68405   0.45096   0.00000  Uiso   1.00
N317   N     0.41894   0.91856   0.95975   0.00000  Uiso   1.00
N318   N     0.04498   0.05465   0.16456   0.00000  Uiso   1.00
N319   N     0.58817   0.78126   0.38613   0.00000  Uiso   1.00
N320   N     0.51019   0.83456   0.91521   0.00000  Uiso   1.00
N321   N     0.13622   0.97064   0.12002   0.00000  Uiso   1.00
N322   N     0.67941   0.69726   0.34160   0.00000  Uiso   1.00
C323   C     0.82406   0.57447   0.67406   0.00000  Uiso   1.00
C324   C     0.87260   0.59693   0.60412   0.00000  Uiso   1.00
C325   C     0.96423   0.56901   0.57011   0.00000  Uiso   1.00
C326   C     0.99555   0.59668   0.50657   0.00000  Uiso   1.00
C327   C     0.07975   0.62336   0.40228   0.00000  Uiso   1.00
C328   C     0.70006   0.55941   0.66055   0.00000  Uiso   1.00
C329   C     0.64662   0.49996   0.67401   0.00000  Uiso   1.00
C330   C     0.53270   0.49606   0.65799   0.00000  Uiso   1.00
C331   C     0.34901   0.46452   0.64136   0.00000  Uiso   1.00
C332   C     0.82597   0.63476   0.72161   0.00000  Uiso   1.00
C333   C     0.87838   0.63866   0.78642   0.00000  Uiso   1.00
C334   C     0.87044   0.69819   0.82181   0.00000  Uiso   1.00
C335   C     0.88225   0.78363   0.89999   0.00000  Uiso   1.00
C336   C     0.71675   0.67325   0.62169   0.00000  Uiso   1.00
C337   C     0.81431   0.65058   0.57567   0.00000  Uiso   1.00
C338   C     0.84551   0.67830   0.51217   0.00000  Uiso   1.00
C339   C     0.93717   0.65043   0.47808   0.00000  Uiso   1.00
C340   C     0.64177   0.61307   0.63211   0.00000  Uiso   1.00
C341   C     0.52790   0.60925   0.61607   0.00000  Uiso   1.00
C342   C     0.47430   0.54981   0.62949   0.00000  Uiso   1.00
C343   C     0.76769   0.68842   0.69317   0.00000  Uiso   1.00
C344   C     0.75966   0.74795   0.72847   0.00000  Uiso   1.00
C345   C     0.81205   0.75194   0.79331   0.00000  Uiso   1.00
H346   H     0.86943   0.53269   0.69620   0.00000  Uiso   1.00
H347   H     0.00931   0.52748   0.59214   0.00000  Uiso   1.00
H348   H     0.69175   0.45845   0.69603   0.00000  Uiso   1.00
H349   H     0.92347   0.59712   0.80841   0.00000  Uiso   1.00
H350   H     0.13865   0.54535   0.46421   0.00000  Uiso   1.00
H351   H     0.46906   0.39980   0.68328   0.00000  Uiso   1.00
H352   H     0.95769   0.69222   0.92027   0.00000  Uiso   1.00
H353   H     0.67137   0.71503   0.59954   0.00000  Uiso   1.00
H354   H     0.80038   0.71982   0.49017   0.00000  Uiso   1.00
H355   H     0.48282   0.65079   0.59406   0.00000  Uiso   1.00
H356   H     0.71455   0.78946   0.70644   0.00000  Uiso   1.00
H357   H     0.96908   0.70146   0.38144   0.00000  Uiso   1.00
H358   H     0.29948   0.55591   0.60052   0.00000  Uiso   1.00
H359   H     0.78812   0.84833   0.83751   0.00000  Uiso   1.00
O360   O     0.14229   0.62326   0.35261   0.00000  Uiso   1.00
O361   O     0.26380   0.43230   0.64004   0.00000  Uiso   1.00
O362   O     0.90488   0.81595   0.95096   0.00000  Uiso   1.00
N363   N     0.08106   0.58144   0.45975   0.00000  Uiso   1.00
N364   N     0.45502   0.44535   0.66456   0.00000  Uiso   1.00
N365   N     0.91183   0.71874   0.88613   0.00000  Uiso   1.00
N366   N     0.98981   0.66544   0.41521   0.00000  Uiso   1.00
N367   N     0.36378   0.52936   0.62002   0.00000  Uiso   1.00
N368   N     0.82059   0.80274   0.84160   0.00000  Uiso   1.00
