data_job_00909
_audit_creation_date              2018-12-19
_audit_creation_method            'Materials Studio'
_symmetry_space_group_name_H-M    'P1'
_symmetry_Int_Tables_number       1
_symmetry_cell_setting            triclinic
loop_
_symmetry_equiv_pos_as_xyz
  x,y,z
_cell_length_a                    10.5106
_cell_length_b                    20.2013
_cell_length_c                    15.0932
_cell_angle_alpha                 90.0000
_cell_angle_beta                  129.3764
_cell_angle_gamma                 90.0000
loop_
_atom_site_label
_atom_site_type_symbol
_atom_site_fract_x
_atom_site_fract_y
_atom_site_fract_z
_atom_site_U_iso_or_equiv
_atom_site_adp_type
_atom_site_occupancy
C1     C     0.69936   0.27417   0.87635   0.00000  Uiso   1.00
C2     C     0.55058   0.31931   0.79866   0.00000  Uiso   1.00
C3     C     0.42415   0.32799   0.80354   0.00000  Uiso   1.00
C4     C     0.29912   0.37147   0.72496   0.00000  Uiso   1.00
C5     C     0.06782   0.43643   0.61653   0.00000  Uiso   1.00
C6     C     0.69897   0.22737   0.79690   0.00000  Uiso   1.00
C7     C     0.69734   0.15874   0.80032   0.00000  Uiso   1.00
C8     C     0.69726   0.12483   0.72027   0.00000  Uiso   1.00
C9     C     0.69647   0.04706   0.60918   0.00000  Uiso   1.00
C10    C     0.85043   0.31818   0.93190   0.00000  Uiso   1.00
C11    C     0.97618   0.32589   0.04883   0.00000  Uiso   1.00
C12    C     0.10364   0.36842   0.08243   0.00000  Uiso   1.00
C13    C     0.33801   0.43163   0.18094   0.00000  Uiso   1.00
C14    C     0.70213   0.33598   0.72812   0.00000  Uiso   1.00
C15    C     0.55208   0.35288   0.71815   0.00000  Uiso   1.00
C16    C     0.42721   0.39636   0.63954   0.00000  Uiso   1.00
C17    C     0.30063   0.40510   0.64430   0.00000  Uiso   1.00
C18    C     0.70047   0.26094   0.71639   0.00000  Uiso   1.00
C19    C     0.70040   0.22712   0.63632   0.00000  Uiso   1.00
C20    C     0.69876   0.15846   0.63961   0.00000  Uiso   1.00
C21    C     0.85194   0.35175   0.85139   0.00000  Uiso   1.00
C22    C     0.97923   0.39427   0.88482   0.00000  Uiso   1.00
C23    C     0.10514   0.40205   0.00177   0.00000  Uiso   1.00
H24    H     0.69820   0.24803   0.93903   0.00000  Uiso   1.00
H25    H     0.42303   0.30199   0.86585   0.00000  Uiso   1.00
H26    H     0.69620   0.13278   0.86264   0.00000  Uiso   1.00
H27    H     0.97498   0.29990   0.11110   0.00000  Uiso   1.00
H28    H     0.11859   0.37660   0.74919   0.00000  Uiso   1.00
H29    H     0.69463   0.01981   0.74245   0.00000  Uiso   1.00
H30    H     0.28250   0.37221   0.26638   0.00000  Uiso   1.00
H31    H     0.70330   0.36211   0.66543   0.00000  Uiso   1.00
H32    H     0.42841   0.42233   0.57724   0.00000  Uiso   1.00
H33    H     0.70157   0.25312   0.57403   0.00000  Uiso   1.00
H34    H     0.98035   0.42024   0.82249   0.00000  Uiso   1.00
H35    H     0.12295   0.47427   0.51494   0.00000  Uiso   1.00
H36    H     0.69900   0.11748   0.50820   0.00000  Uiso   1.00
H37    H     0.28686   0.46988   0.03212   0.00000  Uiso   1.00
O38    O     0.93982   0.46298   0.57896   0.00000  Uiso   1.00
O39    O     0.69559   0.99488   0.57013   0.00000  Uiso   1.00
O40    O     0.46686   0.45723   0.25751   0.00000  Uiso   1.00
N41    N     0.15736   0.39133   0.70618   0.00000  Uiso   1.00
N42    N     0.69589   0.05775   0.69986   0.00000  Uiso   1.00
N43    N     0.24553   0.38721   0.18969   0.00000  Uiso   1.00
N44    N     0.15970   0.44389   0.58013   0.00000  Uiso   1.00
N45    N     0.69824   0.11031   0.57381   0.00000  Uiso   1.00
N46    N     0.24788   0.43976   0.06364   0.00000  Uiso   1.00
C47    C     0.30064   0.77417   0.62365   0.00000  Uiso   1.00
C48    C     0.44942   0.81931   0.70134   0.00000  Uiso   1.00
C49    C     0.57585   0.82799   0.69646   0.00000  Uiso   1.00
C50    C     0.70088   0.87147   0.77504   0.00000  Uiso   1.00
C51    C     0.93218   0.93643   0.88347   0.00000  Uiso   1.00
C52    C     0.30103   0.72737   0.70310   0.00000  Uiso   1.00
C53    C     0.30266   0.65874   0.69968   0.00000  Uiso   1.00
C54    C     0.30274   0.62483   0.77973   0.00000  Uiso   1.00
C55    C     0.30353   0.54706   0.89082   0.00000  Uiso   1.00
C56    C     0.14957   0.81818   0.56810   0.00000  Uiso   1.00
C57    C     0.02382   0.82589   0.45117   0.00000  Uiso   1.00
C58    C     0.89636   0.86842   0.41757   0.00000  Uiso   1.00
C59    C     0.66199   0.93163   0.31906   0.00000  Uiso   1.00
C60    C     0.29787   0.83598   0.77188   0.00000  Uiso   1.00
C61    C     0.44792   0.85288   0.78185   0.00000  Uiso   1.00
C62    C     0.57279   0.89636   0.86046   0.00000  Uiso   1.00
C63    C     0.69937   0.90510   0.85570   0.00000  Uiso   1.00
C64    C     0.29953   0.76094   0.78361   0.00000  Uiso   1.00
C65    C     0.29960   0.72712   0.86368   0.00000  Uiso   1.00
C66    C     0.30124   0.65846   0.86039   0.00000  Uiso   1.00
C67    C     0.14806   0.85175   0.64861   0.00000  Uiso   1.00
C68    C     0.02077   0.89427   0.61518   0.00000  Uiso   1.00
C69    C     0.89486   0.90205   0.49823   0.00000  Uiso   1.00
H70    H     0.30180   0.74803   0.56097   0.00000  Uiso   1.00
H71    H     0.57697   0.80199   0.63415   0.00000  Uiso   1.00
H72    H     0.30380   0.63278   0.63736   0.00000  Uiso   1.00
H73    H     0.02502   0.79990   0.38890   0.00000  Uiso   1.00
H74    H     0.88141   0.87660   0.75081   0.00000  Uiso   1.00
H75    H     0.30537   0.51981   0.75755   0.00000  Uiso   1.00
H76    H     0.71750   0.87221   0.23362   0.00000  Uiso   1.00
H77    H     0.29670   0.86211   0.83457   0.00000  Uiso   1.00
H78    H     0.57159   0.92233   0.92276   0.00000  Uiso   1.00
H79    H     0.29843   0.75312   0.92597   0.00000  Uiso   1.00
H80    H     0.01965   0.92024   0.67751   0.00000  Uiso   1.00
H81    H     0.87705   0.97427   0.98506   0.00000  Uiso   1.00
H82    H     0.30100   0.61748   0.99180   0.00000  Uiso   1.00
H83    H     0.71314   0.96988   0.46788   0.00000  Uiso   1.00
O84    O     0.06018   0.96298   0.92104   0.00000  Uiso   1.00
O85    O     0.30441   0.49488   0.92987   0.00000  Uiso   1.00
O86    O     0.53314   0.95723   0.24249   0.00000  Uiso   1.00
N87    N     0.84264   0.89133   0.79382   0.00000  Uiso   1.00
N88    N     0.30411   0.55775   0.80014   0.00000  Uiso   1.00
N89    N     0.75447   0.88721   0.31031   0.00000  Uiso   1.00
N90    N     0.84030   0.94389   0.91987   0.00000  Uiso   1.00
N91    N     0.30176   0.61031   0.92619   0.00000  Uiso   1.00
N92    N     0.75212   0.93976   0.43636   0.00000  Uiso   1.00
C93    C     0.30064   0.72583   0.12365   0.00000  Uiso   1.00
C94    C     0.44942   0.68069   0.20134   0.00000  Uiso   1.00
C95    C     0.57585   0.67201   0.19646   0.00000  Uiso   1.00
C96    C     0.70088   0.62853   0.27504   0.00000  Uiso   1.00
C97    C     0.93218   0.56357   0.38347   0.00000  Uiso   1.00
C98    C     0.30103   0.77263   0.20310   0.00000  Uiso   1.00
C99    C     0.30266   0.84126   0.19968   0.00000  Uiso   1.00
C100   C     0.30274   0.87517   0.27973   0.00000  Uiso   1.00
C101   C     0.30353   0.95294   0.39082   0.00000  Uiso   1.00
C102   C     0.14957   0.68182   0.06810   0.00000  Uiso   1.00
C103   C     0.02382   0.67411   0.95117   0.00000  Uiso   1.00
C104   C     0.89636   0.63158   0.91757   0.00000  Uiso   1.00
C105   C     0.66199   0.56837   0.81906   0.00000  Uiso   1.00
C106   C     0.29787   0.66402   0.27188   0.00000  Uiso   1.00
C107   C     0.44792   0.64712   0.28185   0.00000  Uiso   1.00
C108   C     0.57279   0.60364   0.36046   0.00000  Uiso   1.00
C109   C     0.69937   0.59490   0.35570   0.00000  Uiso   1.00
C110   C     0.29953   0.73906   0.28361   0.00000  Uiso   1.00
C111   C     0.29960   0.77288   0.36368   0.00000  Uiso   1.00
C112   C     0.30124   0.84154   0.36039   0.00000  Uiso   1.00
C113   C     0.14806   0.64825   0.14861   0.00000  Uiso   1.00
C114   C     0.02077   0.60573   0.11518   0.00000  Uiso   1.00
C115   C     0.89486   0.59795   0.99823   0.00000  Uiso   1.00
H116   H     0.30180   0.75197   0.06097   0.00000  Uiso   1.00
H117   H     0.57697   0.69801   0.13415   0.00000  Uiso   1.00
H118   H     0.30380   0.86722   0.13736   0.00000  Uiso   1.00
H119   H     0.02502   0.70010   0.88890   0.00000  Uiso   1.00
H120   H     0.88141   0.62340   0.25081   0.00000  Uiso   1.00
H121   H     0.30537   0.98019   0.25755   0.00000  Uiso   1.00
H122   H     0.71750   0.62779   0.73362   0.00000  Uiso   1.00
H123   H     0.29670   0.63789   0.33457   0.00000  Uiso   1.00
H124   H     0.57159   0.57767   0.42276   0.00000  Uiso   1.00
H125   H     0.29843   0.74688   0.42597   0.00000  Uiso   1.00
H126   H     0.01965   0.57976   0.17751   0.00000  Uiso   1.00
H127   H     0.87705   0.52573   0.48506   0.00000  Uiso   1.00
H128   H     0.30100   0.88252   0.49180   0.00000  Uiso   1.00
H129   H     0.71314   0.53012   0.96788   0.00000  Uiso   1.00
O130   O     0.06018   0.53702   0.42104   0.00000  Uiso   1.00
O131   O     0.30441   0.00512   0.42987   0.00000  Uiso   1.00
O132   O     0.53314   0.54277   0.74249   0.00000  Uiso   1.00
N133   N     0.84264   0.60867   0.29382   0.00000  Uiso   1.00
N134   N     0.30411   0.94225   0.30014   0.00000  Uiso   1.00
N135   N     0.75447   0.61279   0.81031   0.00000  Uiso   1.00
N136   N     0.84030   0.55611   0.41987   0.00000  Uiso   1.00
N137   N     0.30176   0.88969   0.42619   0.00000  Uiso   1.00
N138   N     0.75212   0.56024   0.93636   0.00000  Uiso   1.00
C139   C     0.69936   0.22583   0.37635   0.00000  Uiso   1.00
C140   C     0.55058   0.18069   0.29866   0.00000  Uiso   1.00
C141   C     0.42415   0.17201   0.30354   0.00000  Uiso   1.00
C142   C     0.29912   0.12853   0.22496   0.00000  Uiso   1.00
C143   C     0.06782   0.06357   0.11653   0.00000  Uiso   1.00
C144   C     0.69897   0.27263   0.29690   0.00000  Uiso   1.00
C145   C     0.69734   0.34126   0.30032   0.00000  Uiso   1.00
C146   C     0.69726   0.37517   0.22027   0.00000  Uiso   1.00
C147   C     0.69647   0.45294   0.10918   0.00000  Uiso   1.00
C148   C     0.85043   0.18182   0.43190   0.00000  Uiso   1.00
C149   C     0.97618   0.17411   0.54883   0.00000  Uiso   1.00
C150   C     0.10364   0.13158   0.58243   0.00000  Uiso   1.00
C151   C     0.33801   0.06837   0.68094   0.00000  Uiso   1.00
C152   C     0.70213   0.16402   0.22812   0.00000  Uiso   1.00
C153   C     0.55208   0.14712   0.21815   0.00000  Uiso   1.00
C154   C     0.42721   0.10364   0.13954   0.00000  Uiso   1.00
C155   C     0.30063   0.09490   0.14430   0.00000  Uiso   1.00
C156   C     0.70047   0.23906   0.21639   0.00000  Uiso   1.00
C157   C     0.70040   0.27288   0.13632   0.00000  Uiso   1.00
C158   C     0.69876   0.34154   0.13961   0.00000  Uiso   1.00
C159   C     0.85194   0.14825   0.35139   0.00000  Uiso   1.00
C160   C     0.97923   0.10573   0.38482   0.00000  Uiso   1.00
C161   C     0.10514   0.09795   0.50177   0.00000  Uiso   1.00
H162   H     0.69820   0.25197   0.43903   0.00000  Uiso   1.00
H163   H     0.42303   0.19801   0.36585   0.00000  Uiso   1.00
H164   H     0.69620   0.36722   0.36264   0.00000  Uiso   1.00
H165   H     0.97498   0.20010   0.61110   0.00000  Uiso   1.00
H166   H     0.11859   0.12340   0.24919   0.00000  Uiso   1.00
H167   H     0.69463   0.48019   0.24245   0.00000  Uiso   1.00
H168   H     0.28250   0.12779   0.76638   0.00000  Uiso   1.00
H169   H     0.70330   0.13789   0.16543   0.00000  Uiso   1.00
H170   H     0.42841   0.07767   0.07724   0.00000  Uiso   1.00
H171   H     0.70157   0.24688   0.07403   0.00000  Uiso   1.00
H172   H     0.98035   0.07976   0.32249   0.00000  Uiso   1.00
H173   H     0.12295   0.02573   0.01494   0.00000  Uiso   1.00
H174   H     0.69900   0.38252   0.00820   0.00000  Uiso   1.00
H175   H     0.28686   0.03012   0.53212   0.00000  Uiso   1.00
O176   O     0.93982   0.03702   0.07896   0.00000  Uiso   1.00
O177   O     0.69559   0.50512   0.07013   0.00000  Uiso   1.00
O178   O     0.46686   0.04277   0.75751   0.00000  Uiso   1.00
N179   N     0.15736   0.10867   0.20618   0.00000  Uiso   1.00
N180   N     0.69589   0.44225   0.19986   0.00000  Uiso   1.00
N181   N     0.24553   0.11279   0.68969   0.00000  Uiso   1.00
N182   N     0.15970   0.05611   0.08013   0.00000  Uiso   1.00
N183   N     0.69824   0.38969   0.07381   0.00000  Uiso   1.00
N184   N     0.24788   0.06024   0.56364   0.00000  Uiso   1.00
