data_job_03133
_audit_creation_date              2018-12-19
_audit_creation_method            'Materials Studio'
_symmetry_space_group_name_H-M    'P1'
_symmetry_Int_Tables_number       1
_symmetry_cell_setting            triclinic
loop_
_symmetry_equiv_pos_as_xyz
  x,y,z
_cell_length_a                    12.5488
_cell_length_b                    30.2735
_cell_length_c                    7.1503
_cell_angle_alpha                 90.0000
_cell_angle_beta                  90.0000
_cell_angle_gamma                 90.0000
loop_
_atom_site_label
_atom_site_type_symbol
_atom_site_fract_x
_atom_site_fract_y
_atom_site_fract_z
_atom_site_U_iso_or_equiv
_atom_site_adp_type
_atom_site_occupancy
C1     C     0.08386   0.63808   0.96989   0.00000  Uiso   1.00
C2     C     0.18445   0.61441   0.03529   0.00000  Uiso   1.00
C3     C     0.24362   0.58455   0.93089   0.00000  Uiso   1.00
C4     C     0.33305   0.56648   0.01584   0.00000  Uiso   1.00
C5     C     0.48478   0.52798   0.08963   0.00000  Uiso   1.00
C6     C     0.99782   0.62690   0.11287   0.00000  Uiso   1.00
C7     C     0.90007   0.60755   0.07368   0.00000  Uiso   1.00
C8     C     0.83240   0.60000   0.22394   0.00000  Uiso   1.00
C9     C     0.69435   0.58092   0.41815   0.00000  Uiso   1.00
C10    C     0.10603   0.68732   0.99214   0.00000  Uiso   1.00
C11    C     0.09925   0.71878   0.85145   0.00000  Uiso   1.00
C12    C     0.12266   0.76211   0.90008   0.00000  Uiso   1.00
C13    C     0.15263   0.83684   0.90683   0.00000  Uiso   1.00
C14    C     0.13746   0.65909   0.30643   0.00000  Uiso   1.00
C15    C     0.21355   0.62582   0.21809   0.00000  Uiso   1.00
C16    C     0.30292   0.60780   0.30323   0.00000  Uiso   1.00
C17    C     0.36223   0.57792   0.19896   0.00000  Uiso   1.00
C18    C     0.02693   0.63831   0.29566   0.00000  Uiso   1.00
C19    C     0.95938   0.63080   0.44602   0.00000  Uiso   1.00
C20    C     0.86156   0.61144   0.40707   0.00000  Uiso   1.00
C21    C     0.13515   0.69874   0.17493   0.00000  Uiso   1.00
C22    C     0.15856   0.74203   0.22379   0.00000  Uiso   1.00
C23    C     0.15182   0.77354   0.08320   0.00000  Uiso   1.00
H24    H     0.06118   0.62919   0.82758   0.00000  Uiso   1.00
H25    H     0.22106   0.57572   0.78943   0.00000  Uiso   1.00
H26    H     0.87756   0.59872   0.93220   0.00000  Uiso   1.00
H27    H     0.07672   0.70993   0.71001   0.00000  Uiso   1.00
H28    H     0.41113   0.52146   0.82777   0.00000  Uiso   1.00
H29    H     0.68683   0.56997   0.12881   0.00000  Uiso   1.00
H30    H     0.10678   0.80448   0.66026   0.00000  Uiso   1.00
H31    H     0.16012   0.66798   0.44875   0.00000  Uiso   1.00
H32    H     0.32543   0.61664   0.44469   0.00000  Uiso   1.00
H33    H     0.98193   0.63964   0.58746   0.00000  Uiso   1.00
H34    H     0.18108   0.75085   0.36526   0.00000  Uiso   1.00
H35    H     0.49584   0.55467   0.35961   0.00000  Uiso   1.00
H36    H     0.77154   0.60319   0.66064   0.00000  Uiso   1.00
H37    H     0.19149   0.83769   0.19210   0.00000  Uiso   1.00
O38    O     0.56042   0.50358   0.07983   0.00000  Uiso   1.00
O39    O     0.61017   0.56724   0.47476   0.00000  Uiso   1.00
O40    O     0.16114   0.87490   0.86005   0.00000  Uiso   1.00
N41    N     0.40839   0.53633   0.95349   0.00000  Uiso   1.00
N42    N     0.73122   0.58168   0.23494   0.00000  Uiso   1.00
N43    N     0.12381   0.80093   0.79690   0.00000  Uiso   1.00
N44    N     0.45397   0.55420   0.23966   0.00000  Uiso   1.00
N45    N     0.77681   0.59955   0.52111   0.00000  Uiso   1.00
N46    N     0.16939   0.81880   0.08307   0.00000  Uiso   1.00
C47    C     0.91614   0.36192   0.46989   0.00000  Uiso   1.00
C48    C     0.81555   0.38559   0.53529   0.00000  Uiso   1.00
C49    C     0.75638   0.41545   0.43089   0.00000  Uiso   1.00
C50    C     0.66695   0.43352   0.51584   0.00000  Uiso   1.00
C51    C     0.51522   0.47202   0.58963   0.00000  Uiso   1.00
C52    C     0.00218   0.37310   0.61287   0.00000  Uiso   1.00
C53    C     0.09993   0.39245   0.57368   0.00000  Uiso   1.00
C54    C     0.16760   0.40000   0.72394   0.00000  Uiso   1.00
C55    C     0.30565   0.41908   0.91815   0.00000  Uiso   1.00
C56    C     0.89397   0.31268   0.49214   0.00000  Uiso   1.00
C57    C     0.90075   0.28122   0.35145   0.00000  Uiso   1.00
C58    C     0.87734   0.23789   0.40008   0.00000  Uiso   1.00
C59    C     0.84737   0.16316   0.40683   0.00000  Uiso   1.00
C60    C     0.86254   0.34091   0.80643   0.00000  Uiso   1.00
C61    C     0.78645   0.37418   0.71809   0.00000  Uiso   1.00
C62    C     0.69708   0.39220   0.80323   0.00000  Uiso   1.00
C63    C     0.63777   0.42208   0.69896   0.00000  Uiso   1.00
C64    C     0.97307   0.36169   0.79566   0.00000  Uiso   1.00
C65    C     0.04062   0.36920   0.94602   0.00000  Uiso   1.00
C66    C     0.13844   0.38856   0.90707   0.00000  Uiso   1.00
C67    C     0.86485   0.30126   0.67493   0.00000  Uiso   1.00
C68    C     0.84144   0.25797   0.72379   0.00000  Uiso   1.00
C69    C     0.84818   0.22646   0.58320   0.00000  Uiso   1.00
H70    H     0.93882   0.37081   0.32758   0.00000  Uiso   1.00
H71    H     0.77894   0.42428   0.28943   0.00000  Uiso   1.00
H72    H     0.12244   0.40128   0.43220   0.00000  Uiso   1.00
H73    H     0.92328   0.29007   0.21001   0.00000  Uiso   1.00
H74    H     0.58887   0.47854   0.32777   0.00000  Uiso   1.00
H75    H     0.31317   0.43003   0.62881   0.00000  Uiso   1.00
H76    H     0.89322   0.19552   0.16026   0.00000  Uiso   1.00
H77    H     0.83988   0.33202   0.94875   0.00000  Uiso   1.00
H78    H     0.67457   0.38336   0.94469   0.00000  Uiso   1.00
H79    H     0.01807   0.36036   0.08746   0.00000  Uiso   1.00
H80    H     0.81892   0.24915   0.86526   0.00000  Uiso   1.00
H81    H     0.50416   0.44533   0.85961   0.00000  Uiso   1.00
H82    H     0.22846   0.39681   0.16064   0.00000  Uiso   1.00
H83    H     0.80851   0.16231   0.69210   0.00000  Uiso   1.00
O84    O     0.43958   0.49642   0.57983   0.00000  Uiso   1.00
O85    O     0.38983   0.43276   0.97476   0.00000  Uiso   1.00
O86    O     0.83886   0.12510   0.36005   0.00000  Uiso   1.00
N87    N     0.59161   0.46367   0.45349   0.00000  Uiso   1.00
N88    N     0.26878   0.41832   0.73494   0.00000  Uiso   1.00
N89    N     0.87619   0.19907   0.29690   0.00000  Uiso   1.00
N90    N     0.54603   0.44580   0.73966   0.00000  Uiso   1.00
N91    N     0.22319   0.40045   0.02111   0.00000  Uiso   1.00
N92    N     0.83061   0.18120   0.58307   0.00000  Uiso   1.00
C93    C     0.58386   0.86192   0.96989   0.00000  Uiso   1.00
C94    C     0.68445   0.88559   0.03529   0.00000  Uiso   1.00
C95    C     0.74362   0.91545   0.93089   0.00000  Uiso   1.00
C96    C     0.83305   0.93352   0.01584   0.00000  Uiso   1.00
C97    C     0.98478   0.97202   0.08963   0.00000  Uiso   1.00
C98    C     0.49782   0.87310   0.11287   0.00000  Uiso   1.00
C99    C     0.40007   0.89245   0.07368   0.00000  Uiso   1.00
C100   C     0.33240   0.90000   0.22394   0.00000  Uiso   1.00
C101   C     0.19435   0.91908   0.41815   0.00000  Uiso   1.00
C102   C     0.60603   0.81268   0.99214   0.00000  Uiso   1.00
C103   C     0.59925   0.78122   0.85145   0.00000  Uiso   1.00
C104   C     0.62266   0.73789   0.90008   0.00000  Uiso   1.00
C105   C     0.65263   0.66316   0.90683   0.00000  Uiso   1.00
C106   C     0.63746   0.84091   0.30643   0.00000  Uiso   1.00
C107   C     0.71355   0.87418   0.21809   0.00000  Uiso   1.00
C108   C     0.80292   0.89220   0.30323   0.00000  Uiso   1.00
C109   C     0.86223   0.92208   0.19896   0.00000  Uiso   1.00
C110   C     0.52693   0.86169   0.29566   0.00000  Uiso   1.00
C111   C     0.45938   0.86920   0.44602   0.00000  Uiso   1.00
C112   C     0.36156   0.88856   0.40707   0.00000  Uiso   1.00
C113   C     0.63515   0.80126   0.17493   0.00000  Uiso   1.00
C114   C     0.65856   0.75797   0.22379   0.00000  Uiso   1.00
C115   C     0.65182   0.72646   0.08320   0.00000  Uiso   1.00
H116   H     0.56118   0.87081   0.82758   0.00000  Uiso   1.00
H117   H     0.72106   0.92428   0.78943   0.00000  Uiso   1.00
H118   H     0.37756   0.90128   0.93220   0.00000  Uiso   1.00
H119   H     0.57672   0.79007   0.71001   0.00000  Uiso   1.00
H120   H     0.91113   0.97854   0.82777   0.00000  Uiso   1.00
H121   H     0.18683   0.93003   0.12881   0.00000  Uiso   1.00
H122   H     0.60678   0.69552   0.66026   0.00000  Uiso   1.00
H123   H     0.66012   0.83202   0.44875   0.00000  Uiso   1.00
H124   H     0.82543   0.88336   0.44469   0.00000  Uiso   1.00
H125   H     0.48193   0.86036   0.58746   0.00000  Uiso   1.00
H126   H     0.68108   0.74915   0.36526   0.00000  Uiso   1.00
H127   H     0.99584   0.94533   0.35961   0.00000  Uiso   1.00
H128   H     0.27154   0.89681   0.66064   0.00000  Uiso   1.00
H129   H     0.69149   0.66231   0.19210   0.00000  Uiso   1.00
O130   O     0.06042   0.99642   0.07983   0.00000  Uiso   1.00
O131   O     0.11017   0.93276   0.47476   0.00000  Uiso   1.00
O132   O     0.66114   0.62510   0.86005   0.00000  Uiso   1.00
N133   N     0.90839   0.96367   0.95349   0.00000  Uiso   1.00
N134   N     0.23122   0.91832   0.23494   0.00000  Uiso   1.00
N135   N     0.62381   0.69907   0.79690   0.00000  Uiso   1.00
N136   N     0.95397   0.94580   0.23966   0.00000  Uiso   1.00
N137   N     0.27681   0.90045   0.52111   0.00000  Uiso   1.00
N138   N     0.66939   0.68120   0.08307   0.00000  Uiso   1.00
C139   C     0.41614   0.13808   0.46989   0.00000  Uiso   1.00
C140   C     0.31555   0.11441   0.53529   0.00000  Uiso   1.00
C141   C     0.25638   0.08455   0.43089   0.00000  Uiso   1.00
C142   C     0.16695   0.06648   0.51584   0.00000  Uiso   1.00
C143   C     0.01522   0.02798   0.58963   0.00000  Uiso   1.00
C144   C     0.50218   0.12690   0.61287   0.00000  Uiso   1.00
C145   C     0.59993   0.10755   0.57368   0.00000  Uiso   1.00
C146   C     0.66760   0.10000   0.72394   0.00000  Uiso   1.00
C147   C     0.80565   0.08092   0.91815   0.00000  Uiso   1.00
C148   C     0.39397   0.18732   0.49214   0.00000  Uiso   1.00
C149   C     0.40075   0.21878   0.35145   0.00000  Uiso   1.00
C150   C     0.37734   0.26211   0.40008   0.00000  Uiso   1.00
C151   C     0.34737   0.33684   0.40683   0.00000  Uiso   1.00
C152   C     0.36254   0.15909   0.80643   0.00000  Uiso   1.00
C153   C     0.28645   0.12582   0.71809   0.00000  Uiso   1.00
C154   C     0.19708   0.10780   0.80323   0.00000  Uiso   1.00
C155   C     0.13777   0.07792   0.69896   0.00000  Uiso   1.00
C156   C     0.47307   0.13831   0.79566   0.00000  Uiso   1.00
C157   C     0.54062   0.13080   0.94602   0.00000  Uiso   1.00
C158   C     0.63844   0.11144   0.90707   0.00000  Uiso   1.00
C159   C     0.36485   0.19874   0.67493   0.00000  Uiso   1.00
C160   C     0.34144   0.24203   0.72379   0.00000  Uiso   1.00
C161   C     0.34818   0.27354   0.58320   0.00000  Uiso   1.00
H162   H     0.43882   0.12919   0.32758   0.00000  Uiso   1.00
H163   H     0.27894   0.07572   0.28943   0.00000  Uiso   1.00
H164   H     0.62244   0.09872   0.43220   0.00000  Uiso   1.00
H165   H     0.42328   0.20993   0.21001   0.00000  Uiso   1.00
H166   H     0.08887   0.02146   0.32777   0.00000  Uiso   1.00
H167   H     0.81317   0.06997   0.62881   0.00000  Uiso   1.00
H168   H     0.39322   0.30448   0.16026   0.00000  Uiso   1.00
H169   H     0.33988   0.16798   0.94875   0.00000  Uiso   1.00
H170   H     0.17457   0.11664   0.94469   0.00000  Uiso   1.00
H171   H     0.51807   0.13964   0.08746   0.00000  Uiso   1.00
H172   H     0.31892   0.25085   0.86526   0.00000  Uiso   1.00
H173   H     0.00416   0.05467   0.85961   0.00000  Uiso   1.00
H174   H     0.72846   0.10319   0.16064   0.00000  Uiso   1.00
H175   H     0.30851   0.33769   0.69210   0.00000  Uiso   1.00
O176   O     0.93958   0.00358   0.57983   0.00000  Uiso   1.00
O177   O     0.88983   0.06724   0.97476   0.00000  Uiso   1.00
O178   O     0.33886   0.37490   0.36005   0.00000  Uiso   1.00
N179   N     0.09161   0.03633   0.45349   0.00000  Uiso   1.00
N180   N     0.76878   0.08168   0.73494   0.00000  Uiso   1.00
N181   N     0.37619   0.30093   0.29690   0.00000  Uiso   1.00
N182   N     0.04603   0.05420   0.73966   0.00000  Uiso   1.00
N183   N     0.72319   0.09955   0.02111   0.00000  Uiso   1.00
N184   N     0.33061   0.31880   0.58307   0.00000  Uiso   1.00
