data_job_02053
_audit_creation_date              2018-12-19
_audit_creation_method            'Materials Studio'
_symmetry_space_group_name_H-M    'P1'
_symmetry_Int_Tables_number       1
_symmetry_cell_setting            triclinic
loop_
_symmetry_equiv_pos_as_xyz
  x,y,z
_cell_length_a                    12.3822
_cell_length_b                    14.0923
_cell_length_c                    20.9849
_cell_angle_alpha                 90.0000
_cell_angle_beta                  131.6956
_cell_angle_gamma                 90.0000
loop_
_atom_site_label
_atom_site_type_symbol
_atom_site_fract_x
_atom_site_fract_y
_atom_site_fract_z
_atom_site_U_iso_or_equiv
_atom_site_adp_type
_atom_site_occupancy
C1     C     0.33524   0.23609   0.08107   0.00000  Uiso   1.00
C2     C     0.17924   0.20312   0.01167   0.00000  Uiso   1.00
C3     C     0.10098   0.14979   0.02456   0.00000  Uiso   1.00
C4     C     0.95974   0.12682   0.95279   0.00000  Uiso   1.00
C5     C     0.72676   0.07113   0.85746   0.00000  Uiso   1.00
C6     C     0.41745   0.19843   0.05564   0.00000  Uiso   1.00
C7     C     0.53949   0.14115   0.10550   0.00000  Uiso   1.00
C8     C     0.59878   0.11425   0.07073   0.00000  Uiso   1.00
C9     C     0.73570   0.05132   0.04369   0.00000  Uiso   1.00
C10    C     0.33250   0.34375   0.07282   0.00000  Uiso   1.00
C11    C     0.38315   0.40867   0.13714   0.00000  Uiso   1.00
C12    C     0.37096   0.50412   0.11685   0.00000  Uiso   1.00
C13    C     0.37598   0.66683   0.11649   0.00000  Uiso   1.00
C14    C     0.22357   0.29015   0.93067   0.00000  Uiso   1.00
C15    C     0.11859   0.23249   0.92998   0.00000  Uiso   1.00
C16    C     0.97743   0.20960   0.85817   0.00000  Uiso   1.00
C17    C     0.89897   0.15624   0.87095   0.00000  Uiso   1.00
C18    C     0.35680   0.22779   0.97395   0.00000  Uiso   1.00
C19    C     0.41594   0.20097   0.93910   0.00000  Uiso   1.00
C20    C     0.53803   0.14366   0.98890   0.00000  Uiso   1.00
C21    C     0.27185   0.37312   0.99113   0.00000  Uiso   1.00
C22    C     0.25959   0.46848   0.97074   0.00000  Uiso   1.00
C23    C     0.31020   0.53354   0.03502   0.00000  Uiso   1.00
H24    H     0.38247   0.21322   0.14467   0.00000  Uiso   1.00
H25    H     0.14796   0.12707   0.08779   0.00000  Uiso   1.00
H26    H     0.58641   0.11845   0.16872   0.00000  Uiso   1.00
H27    H     0.43008   0.38592   0.20035   0.00000  Uiso   1.00
H28    H     0.86123   0.04447   0.98871   0.00000  Uiso   1.00
H29    H     0.78575   0.02632   0.15936   0.00000  Uiso   1.00
H30    H     0.45612   0.59034   0.22607   0.00000  Uiso   1.00
H31    H     0.17635   0.31301   0.86707   0.00000  Uiso   1.00
H32    H     0.93052   0.23233   0.79496   0.00000  Uiso   1.00
H33    H     0.36898   0.22371   0.87589   0.00000  Uiso   1.00
H34    H     0.21265   0.49118   0.90752   0.00000  Uiso   1.00
H35    H     0.68476   0.12990   0.75103   0.00000  Uiso   1.00
H36    H     0.60929   0.11175   0.92169   0.00000  Uiso   1.00
H37    H     0.27964   0.67577   0.98839   0.00000  Uiso   1.00
O38    O     0.61502   0.03229   0.82744   0.00000  Uiso   1.00
O39    O     0.82797   0.00849   0.05133   0.00000  Uiso   1.00
O40    O     0.39549   0.74847   0.13885   0.00000  Uiso   1.00
N41    N     0.85343   0.07567   0.94267   0.00000  Uiso   1.00
N42    N     0.71779   0.05868   0.10221   0.00000  Uiso   1.00
N43    N     0.40964   0.58599   0.16458   0.00000  Uiso   1.00
N44    N     0.75846   0.12164   0.81478   0.00000  Uiso   1.00
N45    N     0.62283   0.10465   0.97432   0.00000  Uiso   1.00
N46    N     0.31468   0.63197   0.03669   0.00000  Uiso   1.00
C47    C     0.66476   0.73609   0.41893   0.00000  Uiso   1.00
C48    C     0.82076   0.70312   0.48833   0.00000  Uiso   1.00
C49    C     0.89902   0.64979   0.47544   0.00000  Uiso   1.00
C50    C     0.04026   0.62682   0.54721   0.00000  Uiso   1.00
C51    C     0.27324   0.57113   0.64254   0.00000  Uiso   1.00
C52    C     0.58255   0.69843   0.44436   0.00000  Uiso   1.00
C53    C     0.46051   0.64115   0.39450   0.00000  Uiso   1.00
C54    C     0.40122   0.61425   0.42927   0.00000  Uiso   1.00
C55    C     0.26430   0.55132   0.45631   0.00000  Uiso   1.00
C56    C     0.66750   0.84375   0.42718   0.00000  Uiso   1.00
C57    C     0.61685   0.90867   0.36286   0.00000  Uiso   1.00
C58    C     0.62904   0.00412   0.38315   0.00000  Uiso   1.00
C59    C     0.62402   0.16683   0.38351   0.00000  Uiso   1.00
C60    C     0.77643   0.79015   0.56933   0.00000  Uiso   1.00
C61    C     0.88141   0.73249   0.57002   0.00000  Uiso   1.00
C62    C     0.02257   0.70960   0.64183   0.00000  Uiso   1.00
C63    C     0.10103   0.65624   0.62905   0.00000  Uiso   1.00
C64    C     0.64320   0.72779   0.52605   0.00000  Uiso   1.00
C65    C     0.58406   0.70097   0.56090   0.00000  Uiso   1.00
C66    C     0.46197   0.64366   0.51110   0.00000  Uiso   1.00
C67    C     0.72815   0.87312   0.50887   0.00000  Uiso   1.00
C68    C     0.74041   0.96848   0.52926   0.00000  Uiso   1.00
C69    C     0.68980   0.03354   0.46498   0.00000  Uiso   1.00
H70    H     0.61753   0.71322   0.35533   0.00000  Uiso   1.00
H71    H     0.85204   0.62707   0.41221   0.00000  Uiso   1.00
H72    H     0.41359   0.61845   0.33128   0.00000  Uiso   1.00
H73    H     0.56992   0.88592   0.29965   0.00000  Uiso   1.00
H74    H     0.13877   0.54447   0.51129   0.00000  Uiso   1.00
H75    H     0.21425   0.52632   0.34064   0.00000  Uiso   1.00
H76    H     0.54388   0.09034   0.27393   0.00000  Uiso   1.00
H77    H     0.82365   0.81301   0.63293   0.00000  Uiso   1.00
H78    H     0.06948   0.73233   0.70504   0.00000  Uiso   1.00
H79    H     0.63102   0.72371   0.62411   0.00000  Uiso   1.00
H80    H     0.78735   0.99118   0.59248   0.00000  Uiso   1.00
H81    H     0.31524   0.62990   0.74897   0.00000  Uiso   1.00
H82    H     0.39071   0.61175   0.57831   0.00000  Uiso   1.00
H83    H     0.72036   0.17577   0.51161   0.00000  Uiso   1.00
O84    O     0.38498   0.53229   0.67256   0.00000  Uiso   1.00
O85    O     0.17203   0.50849   0.44867   0.00000  Uiso   1.00
O86    O     0.60451   0.24847   0.36115   0.00000  Uiso   1.00
N87    N     0.14657   0.57567   0.55733   0.00000  Uiso   1.00
N88    N     0.28221   0.55868   0.39779   0.00000  Uiso   1.00
N89    N     0.59036   0.08599   0.33542   0.00000  Uiso   1.00
N90    N     0.24154   0.62164   0.68522   0.00000  Uiso   1.00
N91    N     0.37717   0.60465   0.52568   0.00000  Uiso   1.00
N92    N     0.68532   0.13197   0.46331   0.00000  Uiso   1.00
C93    C     0.66476   0.76391   0.91893   0.00000  Uiso   1.00
C94    C     0.82076   0.79688   0.98833   0.00000  Uiso   1.00
C95    C     0.89902   0.85021   0.97544   0.00000  Uiso   1.00
C96    C     0.04026   0.87318   0.04721   0.00000  Uiso   1.00
C97    C     0.27324   0.92887   0.14254   0.00000  Uiso   1.00
C98    C     0.58255   0.80157   0.94436   0.00000  Uiso   1.00
C99    C     0.46051   0.85885   0.89450   0.00000  Uiso   1.00
C100   C     0.40122   0.88575   0.92927   0.00000  Uiso   1.00
C101   C     0.26430   0.94868   0.95631   0.00000  Uiso   1.00
C102   C     0.66750   0.65625   0.92718   0.00000  Uiso   1.00
C103   C     0.61685   0.59133   0.86286   0.00000  Uiso   1.00
C104   C     0.62904   0.49588   0.88315   0.00000  Uiso   1.00
C105   C     0.62402   0.33317   0.88351   0.00000  Uiso   1.00
C106   C     0.77643   0.70985   0.06933   0.00000  Uiso   1.00
C107   C     0.88141   0.76751   0.07002   0.00000  Uiso   1.00
C108   C     0.02257   0.79040   0.14183   0.00000  Uiso   1.00
C109   C     0.10103   0.84376   0.12905   0.00000  Uiso   1.00
C110   C     0.64320   0.77221   0.02605   0.00000  Uiso   1.00
C111   C     0.58406   0.79903   0.06090   0.00000  Uiso   1.00
C112   C     0.46197   0.85634   0.01110   0.00000  Uiso   1.00
C113   C     0.72815   0.62688   0.00887   0.00000  Uiso   1.00
C114   C     0.74041   0.53152   0.02926   0.00000  Uiso   1.00
C115   C     0.68980   0.46646   0.96498   0.00000  Uiso   1.00
H116   H     0.61753   0.78678   0.85533   0.00000  Uiso   1.00
H117   H     0.85204   0.87293   0.91221   0.00000  Uiso   1.00
H118   H     0.41359   0.88155   0.83128   0.00000  Uiso   1.00
H119   H     0.56992   0.61408   0.79965   0.00000  Uiso   1.00
H120   H     0.13877   0.95553   0.01129   0.00000  Uiso   1.00
H121   H     0.21425   0.97368   0.84064   0.00000  Uiso   1.00
H122   H     0.54388   0.40966   0.77393   0.00000  Uiso   1.00
H123   H     0.82365   0.68699   0.13293   0.00000  Uiso   1.00
H124   H     0.06948   0.76767   0.20504   0.00000  Uiso   1.00
H125   H     0.63102   0.77629   0.12411   0.00000  Uiso   1.00
H126   H     0.78735   0.50882   0.09248   0.00000  Uiso   1.00
H127   H     0.31524   0.87010   0.24897   0.00000  Uiso   1.00
H128   H     0.39071   0.88825   0.07831   0.00000  Uiso   1.00
H129   H     0.72036   0.32423   0.01161   0.00000  Uiso   1.00
O130   O     0.38498   0.96771   0.17256   0.00000  Uiso   1.00
O131   O     0.17203   0.99151   0.94867   0.00000  Uiso   1.00
O132   O     0.60451   0.25153   0.86115   0.00000  Uiso   1.00
N133   N     0.14657   0.92433   0.05733   0.00000  Uiso   1.00
N134   N     0.28221   0.94132   0.89779   0.00000  Uiso   1.00
N135   N     0.59036   0.41401   0.83542   0.00000  Uiso   1.00
N136   N     0.24154   0.87836   0.18522   0.00000  Uiso   1.00
N137   N     0.37717   0.89535   0.02568   0.00000  Uiso   1.00
N138   N     0.68532   0.36803   0.96331   0.00000  Uiso   1.00
C139   C     0.33524   0.26391   0.58107   0.00000  Uiso   1.00
C140   C     0.17924   0.29688   0.51167   0.00000  Uiso   1.00
C141   C     0.10098   0.35021   0.52456   0.00000  Uiso   1.00
C142   C     0.95974   0.37318   0.45279   0.00000  Uiso   1.00
C143   C     0.72676   0.42887   0.35746   0.00000  Uiso   1.00
C144   C     0.41745   0.30157   0.55564   0.00000  Uiso   1.00
C145   C     0.53949   0.35885   0.60550   0.00000  Uiso   1.00
C146   C     0.59878   0.38575   0.57073   0.00000  Uiso   1.00
C147   C     0.73570   0.44868   0.54369   0.00000  Uiso   1.00
C148   C     0.33250   0.15625   0.57282   0.00000  Uiso   1.00
C149   C     0.38315   0.09133   0.63714   0.00000  Uiso   1.00
C150   C     0.37096   0.99588   0.61685   0.00000  Uiso   1.00
C151   C     0.37598   0.83317   0.61649   0.00000  Uiso   1.00
C152   C     0.22357   0.20985   0.43067   0.00000  Uiso   1.00
C153   C     0.11859   0.26751   0.42998   0.00000  Uiso   1.00
C154   C     0.97743   0.29040   0.35817   0.00000  Uiso   1.00
C155   C     0.89897   0.34376   0.37095   0.00000  Uiso   1.00
C156   C     0.35680   0.27221   0.47395   0.00000  Uiso   1.00
C157   C     0.41594   0.29903   0.43910   0.00000  Uiso   1.00
C158   C     0.53803   0.35634   0.48890   0.00000  Uiso   1.00
C159   C     0.27185   0.12688   0.49113   0.00000  Uiso   1.00
C160   C     0.25959   0.03152   0.47074   0.00000  Uiso   1.00
C161   C     0.31020   0.96646   0.53502   0.00000  Uiso   1.00
H162   H     0.38247   0.28678   0.64467   0.00000  Uiso   1.00
H163   H     0.14796   0.37293   0.58779   0.00000  Uiso   1.00
H164   H     0.58641   0.38155   0.66872   0.00000  Uiso   1.00
H165   H     0.43008   0.11408   0.70035   0.00000  Uiso   1.00
H166   H     0.86123   0.45553   0.48871   0.00000  Uiso   1.00
H167   H     0.78575   0.47368   0.65936   0.00000  Uiso   1.00
H168   H     0.45612   0.90966   0.72607   0.00000  Uiso   1.00
H169   H     0.17635   0.18699   0.36707   0.00000  Uiso   1.00
H170   H     0.93052   0.26767   0.29496   0.00000  Uiso   1.00
H171   H     0.36898   0.27629   0.37589   0.00000  Uiso   1.00
H172   H     0.21265   0.00882   0.40752   0.00000  Uiso   1.00
H173   H     0.68476   0.37010   0.25103   0.00000  Uiso   1.00
H174   H     0.60929   0.38825   0.42169   0.00000  Uiso   1.00
H175   H     0.27964   0.82423   0.48839   0.00000  Uiso   1.00
O176   O     0.61502   0.46771   0.32744   0.00000  Uiso   1.00
O177   O     0.82797   0.49151   0.55133   0.00000  Uiso   1.00
O178   O     0.39549   0.75153   0.63885   0.00000  Uiso   1.00
N179   N     0.85343   0.42433   0.44267   0.00000  Uiso   1.00
N180   N     0.71779   0.44132   0.60221   0.00000  Uiso   1.00
N181   N     0.40964   0.91401   0.66458   0.00000  Uiso   1.00
N182   N     0.75846   0.37836   0.31478   0.00000  Uiso   1.00
N183   N     0.62283   0.39535   0.47432   0.00000  Uiso   1.00
N184   N     0.31468   0.86803   0.53669   0.00000  Uiso   1.00
