data_job_00484
_audit_creation_date              2018-12-19
_audit_creation_method            'Materials Studio'
_symmetry_space_group_name_H-M    'P1'
_symmetry_Int_Tables_number       1
_symmetry_cell_setting            triclinic
loop_
_symmetry_equiv_pos_as_xyz
  x,y,z
_cell_length_a                    15.8522
_cell_length_b                    15.8522
_cell_length_c                    17.3607
_cell_angle_alpha                 90.0000
_cell_angle_beta                  90.0000
_cell_angle_gamma                 90.0000
loop_
_atom_site_label
_atom_site_type_symbol
_atom_site_fract_x
_atom_site_fract_y
_atom_site_fract_z
_atom_site_U_iso_or_equiv
_atom_site_adp_type
_atom_site_occupancy
C1     C     0.93577   0.80596   0.56358   0.00000  Uiso   1.00
C2     C     0.98941   0.75825   0.50511   0.00000  Uiso   1.00
C3     C     0.96984   0.74663   0.42792   0.00000  Uiso   1.00
C4     C     0.02710   0.70111   0.38394   0.00000  Uiso   1.00
C5     C     0.09908   0.63196   0.28827   0.00000  Uiso   1.00
C6     C     0.91875   0.74414   0.62906   0.00000  Uiso   1.00
C7     C     0.83977   0.72068   0.65610   0.00000  Uiso   1.00
C8     C     0.83756   0.66329   0.71648   0.00000  Uiso   1.00
C9     C     0.79983   0.57229   0.81328   0.00000  Uiso   1.00
C10    C     0.99271   0.87424   0.59713   0.00000  Uiso   1.00
C11    C     0.97591   0.96016   0.59733   0.00000  Uiso   1.00
C12    C     0.03596   0.01230   0.63085   0.00000  Uiso   1.00
C13    C     0.11308   0.12330   0.67807   0.00000  Uiso   1.00
C14    C     0.07228   0.74578   0.62275   0.00000  Uiso   1.00
C15    C     0.06355   0.72556   0.53725   0.00000  Uiso   1.00
C16    C     0.12086   0.68004   0.49338   0.00000  Uiso   1.00
C17    C     0.10138   0.66836   0.41614   0.00000  Uiso   1.00
C18    C     0.99289   0.71145   0.66120   0.00000  Uiso   1.00
C19    C     0.99079   0.65409   0.72156   0.00000  Uiso   1.00
C20    C     0.91183   0.63053   0.74867   0.00000  Uiso   1.00
C21    C     0.06685   0.84155   0.62927   0.00000  Uiso   1.00
C22    C     0.12694   0.89357   0.66279   0.00000  Uiso   1.00
C23    C     0.11024   0.97955   0.66305   0.00000  Uiso   1.00
H24    H     0.87805   0.83141   0.53856   0.00000  Uiso   1.00
H25    H     0.91245   0.77194   0.40307   0.00000  Uiso   1.00
H26    H     0.78240   0.74599   0.63122   0.00000  Uiso   1.00
H27    H     0.91853   0.98544   0.57246   0.00000  Uiso   1.00
H28    H     0.98327   0.69155   0.26703   0.00000  Uiso   1.00
H29    H     0.70906   0.63687   0.74811   0.00000  Uiso   1.00
H30    H     0.99610   0.14179   0.62421   0.00000  Uiso   1.00
H31    H     0.13000   0.72032   0.64777   0.00000  Uiso   1.00
H32    H     0.17823   0.65475   0.51827   0.00000  Uiso   1.00
H33    H     0.04818   0.62881   0.74642   0.00000  Uiso   1.00
H34    H     0.18430   0.86825   0.68766   0.00000  Uiso   1.00
H35    H     0.19898   0.59643   0.36052   0.00000  Uiso   1.00
H36    H     0.92477   0.54176   0.84161   0.00000  Uiso   1.00
H37    H     0.21182   0.04667   0.71771   0.00000  Uiso   1.00
O38    O     0.11829   0.60284   0.22662   0.00000  Uiso   1.00
O39    O     0.75854   0.53111   0.85779   0.00000  Uiso   1.00
O40    O     0.13514   0.19355   0.69523   0.00000  Uiso   1.00
N41    N     0.02743   0.67818   0.30680   0.00000  Uiso   1.00
N42    N     0.77106   0.62705   0.75658   0.00000  Uiso   1.00
N43    N     0.03941   0.09910   0.64076   0.00000  Uiso   1.00
N44    N     0.14350   0.62700   0.35711   0.00000  Uiso   1.00
N45    N     0.88713   0.57587   0.80689   0.00000  Uiso   1.00
N46    N     0.15548   0.04792   0.69107   0.00000  Uiso   1.00
C47    C     0.06423   0.19404   0.06358   0.00000  Uiso   1.00
C48    C     0.01059   0.24175   0.00511   0.00000  Uiso   1.00
C49    C     0.03016   0.25337   0.92792   0.00000  Uiso   1.00
C50    C     0.97290   0.29889   0.88394   0.00000  Uiso   1.00
C51    C     0.90092   0.36804   0.78827   0.00000  Uiso   1.00
C52    C     0.08125   0.25586   0.12906   0.00000  Uiso   1.00
C53    C     0.16023   0.27932   0.15610   0.00000  Uiso   1.00
C54    C     0.16244   0.33671   0.21648   0.00000  Uiso   1.00
C55    C     0.20017   0.42771   0.31328   0.00000  Uiso   1.00
C56    C     0.00729   0.12576   0.09713   0.00000  Uiso   1.00
C57    C     0.02409   0.03984   0.09733   0.00000  Uiso   1.00
C58    C     0.96404   0.98770   0.13085   0.00000  Uiso   1.00
C59    C     0.88692   0.87670   0.17807   0.00000  Uiso   1.00
C60    C     0.92772   0.25422   0.12275   0.00000  Uiso   1.00
C61    C     0.93645   0.27444   0.03725   0.00000  Uiso   1.00
C62    C     0.87914   0.31996   0.99338   0.00000  Uiso   1.00
C63    C     0.89862   0.33164   0.91614   0.00000  Uiso   1.00
C64    C     0.00711   0.28855   0.16120   0.00000  Uiso   1.00
C65    C     0.00921   0.34591   0.22156   0.00000  Uiso   1.00
C66    C     0.08817   0.36947   0.24867   0.00000  Uiso   1.00
C67    C     0.93315   0.15845   0.12927   0.00000  Uiso   1.00
C68    C     0.87306   0.10643   0.16279   0.00000  Uiso   1.00
C69    C     0.88976   0.02045   0.16305   0.00000  Uiso   1.00
H70    H     0.12195   0.16859   0.03856   0.00000  Uiso   1.00
H71    H     0.08755   0.22806   0.90307   0.00000  Uiso   1.00
H72    H     0.21760   0.25401   0.13122   0.00000  Uiso   1.00
H73    H     0.08147   0.01456   0.07246   0.00000  Uiso   1.00
H74    H     0.01673   0.30845   0.76703   0.00000  Uiso   1.00
H75    H     0.29094   0.36313   0.24811   0.00000  Uiso   1.00
H76    H     0.00390   0.85821   0.12421   0.00000  Uiso   1.00
H77    H     0.87000   0.27968   0.14777   0.00000  Uiso   1.00
H78    H     0.82177   0.34525   0.01827   0.00000  Uiso   1.00
H79    H     0.95182   0.37119   0.24642   0.00000  Uiso   1.00
H80    H     0.81570   0.13175   0.18766   0.00000  Uiso   1.00
H81    H     0.80102   0.40357   0.86052   0.00000  Uiso   1.00
H82    H     0.07523   0.45824   0.34161   0.00000  Uiso   1.00
H83    H     0.78818   0.95333   0.21771   0.00000  Uiso   1.00
O84    O     0.88171   0.39716   0.72662   0.00000  Uiso   1.00
O85    O     0.24146   0.46889   0.35779   0.00000  Uiso   1.00
O86    O     0.86486   0.80645   0.19523   0.00000  Uiso   1.00
N87    N     0.97257   0.32182   0.80680   0.00000  Uiso   1.00
N88    N     0.22894   0.37295   0.25658   0.00000  Uiso   1.00
N89    N     0.96059   0.90090   0.14076   0.00000  Uiso   1.00
N90    N     0.85650   0.37300   0.85711   0.00000  Uiso   1.00
N91    N     0.11287   0.42413   0.30689   0.00000  Uiso   1.00
N92    N     0.84452   0.95208   0.19107   0.00000  Uiso   1.00
C93    C     0.69404   0.43577   0.31358   0.00000  Uiso   1.00
C94    C     0.74175   0.48941   0.25511   0.00000  Uiso   1.00
C95    C     0.75337   0.46984   0.17792   0.00000  Uiso   1.00
C96    C     0.79889   0.52710   0.13394   0.00000  Uiso   1.00
C97    C     0.86804   0.59908   0.03827   0.00000  Uiso   1.00
C98    C     0.75586   0.41875   0.37906   0.00000  Uiso   1.00
C99    C     0.77932   0.33977   0.40610   0.00000  Uiso   1.00
C100   C     0.83671   0.33756   0.46648   0.00000  Uiso   1.00
C101   C     0.92771   0.29983   0.56328   0.00000  Uiso   1.00
C102   C     0.62576   0.49271   0.34713   0.00000  Uiso   1.00
C103   C     0.53984   0.47591   0.34733   0.00000  Uiso   1.00
C104   C     0.48770   0.53596   0.38085   0.00000  Uiso   1.00
C105   C     0.37670   0.61308   0.42807   0.00000  Uiso   1.00
C106   C     0.75422   0.57228   0.37275   0.00000  Uiso   1.00
C107   C     0.77444   0.56355   0.28725   0.00000  Uiso   1.00
C108   C     0.81996   0.62086   0.24338   0.00000  Uiso   1.00
C109   C     0.83164   0.60138   0.16614   0.00000  Uiso   1.00
C110   C     0.78855   0.49289   0.41120   0.00000  Uiso   1.00
C111   C     0.84591   0.49079   0.47156   0.00000  Uiso   1.00
C112   C     0.86947   0.41183   0.49867   0.00000  Uiso   1.00
C113   C     0.65845   0.56685   0.37927   0.00000  Uiso   1.00
C114   C     0.60643   0.62694   0.41279   0.00000  Uiso   1.00
C115   C     0.52045   0.61024   0.41305   0.00000  Uiso   1.00
H116   H     0.66859   0.37805   0.28856   0.00000  Uiso   1.00
H117   H     0.72806   0.41245   0.15307   0.00000  Uiso   1.00
H118   H     0.75401   0.28240   0.38122   0.00000  Uiso   1.00
H119   H     0.51456   0.41853   0.32246   0.00000  Uiso   1.00
H120   H     0.80845   0.48327   0.01703   0.00000  Uiso   1.00
H121   H     0.86313   0.20906   0.49811   0.00000  Uiso   1.00
H122   H     0.35821   0.49610   0.37421   0.00000  Uiso   1.00
H123   H     0.77968   0.63000   0.39777   0.00000  Uiso   1.00
H124   H     0.84525   0.67823   0.26827   0.00000  Uiso   1.00
H125   H     0.87119   0.54818   0.49642   0.00000  Uiso   1.00
H126   H     0.63175   0.68430   0.43766   0.00000  Uiso   1.00
H127   H     0.90357   0.69898   0.11052   0.00000  Uiso   1.00
H128   H     0.95824   0.42477   0.59161   0.00000  Uiso   1.00
H129   H     0.45333   0.71182   0.46771   0.00000  Uiso   1.00
O130   O     0.89716   0.61829   0.97662   0.00000  Uiso   1.00
O131   O     0.96889   0.25854   0.60779   0.00000  Uiso   1.00
O132   O     0.30645   0.63514   0.44523   0.00000  Uiso   1.00
N133   N     0.82182   0.52743   0.05680   0.00000  Uiso   1.00
N134   N     0.87295   0.27106   0.50658   0.00000  Uiso   1.00
N135   N     0.40090   0.53941   0.39076   0.00000  Uiso   1.00
N136   N     0.87300   0.64350   0.10711   0.00000  Uiso   1.00
N137   N     0.92413   0.38713   0.55689   0.00000  Uiso   1.00
N138   N     0.45208   0.65548   0.44107   0.00000  Uiso   1.00
C139   C     0.30596   0.56423   0.81358   0.00000  Uiso   1.00
C140   C     0.25825   0.51059   0.75511   0.00000  Uiso   1.00
C141   C     0.24663   0.53016   0.67792   0.00000  Uiso   1.00
C142   C     0.20111   0.47290   0.63394   0.00000  Uiso   1.00
C143   C     0.13196   0.40092   0.53827   0.00000  Uiso   1.00
C144   C     0.24414   0.58125   0.87906   0.00000  Uiso   1.00
C145   C     0.22068   0.66023   0.90610   0.00000  Uiso   1.00
C146   C     0.16329   0.66244   0.96648   0.00000  Uiso   1.00
C147   C     0.07229   0.70017   0.06328   0.00000  Uiso   1.00
C148   C     0.37424   0.50729   0.84713   0.00000  Uiso   1.00
C149   C     0.46016   0.52409   0.84733   0.00000  Uiso   1.00
C150   C     0.51230   0.46404   0.88085   0.00000  Uiso   1.00
C151   C     0.62330   0.38692   0.92807   0.00000  Uiso   1.00
C152   C     0.24578   0.42772   0.87275   0.00000  Uiso   1.00
C153   C     0.22556   0.43645   0.78725   0.00000  Uiso   1.00
C154   C     0.18004   0.37914   0.74338   0.00000  Uiso   1.00
C155   C     0.16836   0.39862   0.66614   0.00000  Uiso   1.00
C156   C     0.21145   0.50711   0.91120   0.00000  Uiso   1.00
C157   C     0.15409   0.50921   0.97156   0.00000  Uiso   1.00
C158   C     0.13053   0.58817   0.99867   0.00000  Uiso   1.00
C159   C     0.34155   0.43315   0.87927   0.00000  Uiso   1.00
C160   C     0.39357   0.37306   0.91279   0.00000  Uiso   1.00
C161   C     0.47955   0.38976   0.91305   0.00000  Uiso   1.00
H162   H     0.33141   0.62195   0.78856   0.00000  Uiso   1.00
H163   H     0.27194   0.58755   0.65307   0.00000  Uiso   1.00
H164   H     0.24599   0.71760   0.88122   0.00000  Uiso   1.00
H165   H     0.48544   0.58147   0.82246   0.00000  Uiso   1.00
H166   H     0.19155   0.51673   0.51703   0.00000  Uiso   1.00
H167   H     0.13687   0.79094   0.99811   0.00000  Uiso   1.00
H168   H     0.64179   0.50390   0.87421   0.00000  Uiso   1.00
H169   H     0.22032   0.37000   0.89777   0.00000  Uiso   1.00
H170   H     0.15475   0.32177   0.76827   0.00000  Uiso   1.00
H171   H     0.12881   0.45182   0.99642   0.00000  Uiso   1.00
H172   H     0.36825   0.31570   0.93766   0.00000  Uiso   1.00
H173   H     0.09643   0.30102   0.61052   0.00000  Uiso   1.00
H174   H     0.04176   0.57523   0.09161   0.00000  Uiso   1.00
H175   H     0.54667   0.28818   0.96771   0.00000  Uiso   1.00
O176   O     0.10284   0.38171   0.47662   0.00000  Uiso   1.00
O177   O     0.03111   0.74146   0.10779   0.00000  Uiso   1.00
O178   O     0.69355   0.36486   0.94523   0.00000  Uiso   1.00
N179   N     0.17818   0.47257   0.55680   0.00000  Uiso   1.00
N180   N     0.12705   0.72894   0.00658   0.00000  Uiso   1.00
N181   N     0.59910   0.46059   0.89076   0.00000  Uiso   1.00
N182   N     0.12700   0.35650   0.60711   0.00000  Uiso   1.00
N183   N     0.07587   0.61287   0.05689   0.00000  Uiso   1.00
N184   N     0.54792   0.34452   0.94107   0.00000  Uiso   1.00
C185   C     0.56423   0.30596   0.18642   0.00000  Uiso   1.00
C186   C     0.51059   0.25825   0.24489   0.00000  Uiso   1.00
C187   C     0.53016   0.24663   0.32208   0.00000  Uiso   1.00
C188   C     0.47290   0.20111   0.36606   0.00000  Uiso   1.00
C189   C     0.40092   0.13196   0.46173   0.00000  Uiso   1.00
C190   C     0.58125   0.24414   0.12094   0.00000  Uiso   1.00
C191   C     0.66023   0.22068   0.09390   0.00000  Uiso   1.00
C192   C     0.66244   0.16329   0.03352   0.00000  Uiso   1.00
C193   C     0.70017   0.07229   0.93672   0.00000  Uiso   1.00
C194   C     0.50729   0.37424   0.15287   0.00000  Uiso   1.00
C195   C     0.52409   0.46016   0.15267   0.00000  Uiso   1.00
C196   C     0.46404   0.51230   0.11915   0.00000  Uiso   1.00
C197   C     0.38692   0.62330   0.07193   0.00000  Uiso   1.00
C198   C     0.42772   0.24578   0.12725   0.00000  Uiso   1.00
C199   C     0.43645   0.22556   0.21275   0.00000  Uiso   1.00
C200   C     0.37914   0.18004   0.25662   0.00000  Uiso   1.00
C201   C     0.39862   0.16836   0.33386   0.00000  Uiso   1.00
C202   C     0.50711   0.21145   0.08880   0.00000  Uiso   1.00
C203   C     0.50921   0.15409   0.02844   0.00000  Uiso   1.00
C204   C     0.58817   0.13053   0.00133   0.00000  Uiso   1.00
C205   C     0.43315   0.34155   0.12073   0.00000  Uiso   1.00
C206   C     0.37306   0.39357   0.08721   0.00000  Uiso   1.00
C207   C     0.38976   0.47955   0.08695   0.00000  Uiso   1.00
H208   H     0.62195   0.33141   0.21144   0.00000  Uiso   1.00
H209   H     0.58755   0.27194   0.34693   0.00000  Uiso   1.00
H210   H     0.71760   0.24599   0.11878   0.00000  Uiso   1.00
H211   H     0.58147   0.48544   0.17754   0.00000  Uiso   1.00
H212   H     0.51673   0.19155   0.48297   0.00000  Uiso   1.00
H213   H     0.79094   0.13687   0.00189   0.00000  Uiso   1.00
H214   H     0.50390   0.64179   0.12579   0.00000  Uiso   1.00
H215   H     0.37000   0.22032   0.10223   0.00000  Uiso   1.00
H216   H     0.32177   0.15475   0.23173   0.00000  Uiso   1.00
H217   H     0.45182   0.12881   0.00358   0.00000  Uiso   1.00
H218   H     0.31570   0.36825   0.06234   0.00000  Uiso   1.00
H219   H     0.30102   0.09643   0.38948   0.00000  Uiso   1.00
H220   H     0.57523   0.04176   0.90839   0.00000  Uiso   1.00
H221   H     0.28818   0.54667   0.03229   0.00000  Uiso   1.00
O222   O     0.38171   0.10284   0.52338   0.00000  Uiso   1.00
O223   O     0.74146   0.03111   0.89221   0.00000  Uiso   1.00
O224   O     0.36486   0.69355   0.05477   0.00000  Uiso   1.00
N225   N     0.47257   0.17818   0.44320   0.00000  Uiso   1.00
N226   N     0.72894   0.12705   0.99342   0.00000  Uiso   1.00
N227   N     0.46059   0.59910   0.10924   0.00000  Uiso   1.00
N228   N     0.35650   0.12700   0.39289   0.00000  Uiso   1.00
N229   N     0.61287   0.07587   0.94311   0.00000  Uiso   1.00
N230   N     0.34452   0.54792   0.05893   0.00000  Uiso   1.00
C231   C     0.43577   0.69404   0.68642   0.00000  Uiso   1.00
C232   C     0.48941   0.74175   0.74489   0.00000  Uiso   1.00
C233   C     0.46984   0.75337   0.82208   0.00000  Uiso   1.00
C234   C     0.52710   0.79889   0.86606   0.00000  Uiso   1.00
C235   C     0.59908   0.86804   0.96173   0.00000  Uiso   1.00
C236   C     0.41875   0.75586   0.62094   0.00000  Uiso   1.00
C237   C     0.33977   0.77932   0.59390   0.00000  Uiso   1.00
C238   C     0.33756   0.83671   0.53352   0.00000  Uiso   1.00
C239   C     0.29983   0.92771   0.43672   0.00000  Uiso   1.00
C240   C     0.49271   0.62576   0.65287   0.00000  Uiso   1.00
C241   C     0.47591   0.53984   0.65267   0.00000  Uiso   1.00
C242   C     0.53596   0.48770   0.61915   0.00000  Uiso   1.00
C243   C     0.61308   0.37670   0.57193   0.00000  Uiso   1.00
C244   C     0.57228   0.75422   0.62725   0.00000  Uiso   1.00
C245   C     0.56355   0.77444   0.71275   0.00000  Uiso   1.00
C246   C     0.62086   0.81996   0.75662   0.00000  Uiso   1.00
C247   C     0.60138   0.83164   0.83386   0.00000  Uiso   1.00
C248   C     0.49289   0.78855   0.58880   0.00000  Uiso   1.00
C249   C     0.49079   0.84591   0.52844   0.00000  Uiso   1.00
C250   C     0.41183   0.86947   0.50133   0.00000  Uiso   1.00
C251   C     0.56685   0.65845   0.62073   0.00000  Uiso   1.00
C252   C     0.62694   0.60643   0.58721   0.00000  Uiso   1.00
C253   C     0.61024   0.52045   0.58695   0.00000  Uiso   1.00
H254   H     0.37805   0.66859   0.71144   0.00000  Uiso   1.00
H255   H     0.41245   0.72806   0.84693   0.00000  Uiso   1.00
H256   H     0.28240   0.75401   0.61878   0.00000  Uiso   1.00
H257   H     0.41853   0.51456   0.67754   0.00000  Uiso   1.00
H258   H     0.48327   0.80845   0.98297   0.00000  Uiso   1.00
H259   H     0.20906   0.86313   0.50189   0.00000  Uiso   1.00
H260   H     0.49610   0.35821   0.62579   0.00000  Uiso   1.00
H261   H     0.63000   0.77968   0.60223   0.00000  Uiso   1.00
H262   H     0.67823   0.84525   0.73173   0.00000  Uiso   1.00
H263   H     0.54818   0.87119   0.50358   0.00000  Uiso   1.00
H264   H     0.68430   0.63175   0.56234   0.00000  Uiso   1.00
H265   H     0.69898   0.90357   0.88948   0.00000  Uiso   1.00
H266   H     0.42477   0.95824   0.40839   0.00000  Uiso   1.00
H267   H     0.71182   0.45333   0.53229   0.00000  Uiso   1.00
O268   O     0.61829   0.89716   0.02338   0.00000  Uiso   1.00
O269   O     0.25854   0.96889   0.39221   0.00000  Uiso   1.00
O270   O     0.63514   0.30645   0.55477   0.00000  Uiso   1.00
N271   N     0.52743   0.82182   0.94320   0.00000  Uiso   1.00
N272   N     0.27106   0.87295   0.49342   0.00000  Uiso   1.00
N273   N     0.53941   0.40090   0.60924   0.00000  Uiso   1.00
N274   N     0.64350   0.87300   0.89289   0.00000  Uiso   1.00
N275   N     0.38713   0.92413   0.44311   0.00000  Uiso   1.00
N276   N     0.65548   0.45208   0.55893   0.00000  Uiso   1.00
C277   C     0.80596   0.93577   0.43642   0.00000  Uiso   1.00
C278   C     0.75825   0.98941   0.49489   0.00000  Uiso   1.00
C279   C     0.74663   0.96984   0.57208   0.00000  Uiso   1.00
C280   C     0.70111   0.02710   0.61606   0.00000  Uiso   1.00
C281   C     0.63196   0.09908   0.71173   0.00000  Uiso   1.00
C282   C     0.74414   0.91875   0.37094   0.00000  Uiso   1.00
C283   C     0.72068   0.83977   0.34390   0.00000  Uiso   1.00
C284   C     0.66329   0.83756   0.28352   0.00000  Uiso   1.00
C285   C     0.57229   0.79983   0.18672   0.00000  Uiso   1.00
C286   C     0.87424   0.99271   0.40287   0.00000  Uiso   1.00
C287   C     0.96016   0.97591   0.40267   0.00000  Uiso   1.00
C288   C     0.01230   0.03596   0.36915   0.00000  Uiso   1.00
C289   C     0.12330   0.11308   0.32193   0.00000  Uiso   1.00
C290   C     0.74578   0.07228   0.37725   0.00000  Uiso   1.00
C291   C     0.72556   0.06355   0.46275   0.00000  Uiso   1.00
C292   C     0.68004   0.12086   0.50662   0.00000  Uiso   1.00
C293   C     0.66836   0.10138   0.58386   0.00000  Uiso   1.00
C294   C     0.71145   0.99289   0.33880   0.00000  Uiso   1.00
C295   C     0.65409   0.99079   0.27844   0.00000  Uiso   1.00
C296   C     0.63053   0.91183   0.25133   0.00000  Uiso   1.00
C297   C     0.84155   0.06685   0.37073   0.00000  Uiso   1.00
C298   C     0.89357   0.12694   0.33721   0.00000  Uiso   1.00
C299   C     0.97955   0.11024   0.33695   0.00000  Uiso   1.00
H300   H     0.83141   0.87805   0.46144   0.00000  Uiso   1.00
H301   H     0.77194   0.91245   0.59693   0.00000  Uiso   1.00
H302   H     0.74599   0.78240   0.36878   0.00000  Uiso   1.00
H303   H     0.98544   0.91853   0.42754   0.00000  Uiso   1.00
H304   H     0.69155   0.98327   0.73297   0.00000  Uiso   1.00
H305   H     0.63687   0.70906   0.25189   0.00000  Uiso   1.00
H306   H     0.14179   0.99610   0.37579   0.00000  Uiso   1.00
H307   H     0.72032   0.13000   0.35223   0.00000  Uiso   1.00
H308   H     0.65475   0.17823   0.48173   0.00000  Uiso   1.00
H309   H     0.62881   0.04818   0.25358   0.00000  Uiso   1.00
H310   H     0.86825   0.18430   0.31234   0.00000  Uiso   1.00
H311   H     0.59643   0.19898   0.63948   0.00000  Uiso   1.00
H312   H     0.54176   0.92477   0.15839   0.00000  Uiso   1.00
H313   H     0.04667   0.21182   0.28229   0.00000  Uiso   1.00
O314   O     0.60284   0.11829   0.77338   0.00000  Uiso   1.00
O315   O     0.53111   0.75854   0.14221   0.00000  Uiso   1.00
O316   O     0.19355   0.13514   0.30477   0.00000  Uiso   1.00
N317   N     0.67818   0.02743   0.69320   0.00000  Uiso   1.00
N318   N     0.62705   0.77106   0.24342   0.00000  Uiso   1.00
N319   N     0.09910   0.03941   0.35924   0.00000  Uiso   1.00
N320   N     0.62700   0.14350   0.64289   0.00000  Uiso   1.00
N321   N     0.57587   0.88713   0.19311   0.00000  Uiso   1.00
N322   N     0.04792   0.15548   0.30893   0.00000  Uiso   1.00
C323   C     0.19404   0.06423   0.93642   0.00000  Uiso   1.00
C324   C     0.24175   0.01059   0.99489   0.00000  Uiso   1.00
C325   C     0.25337   0.03016   0.07208   0.00000  Uiso   1.00
C326   C     0.29889   0.97290   0.11606   0.00000  Uiso   1.00
C327   C     0.36804   0.90092   0.21173   0.00000  Uiso   1.00
C328   C     0.25586   0.08125   0.87094   0.00000  Uiso   1.00
C329   C     0.27932   0.16023   0.84390   0.00000  Uiso   1.00
C330   C     0.33671   0.16244   0.78352   0.00000  Uiso   1.00
C331   C     0.42771   0.20017   0.68672   0.00000  Uiso   1.00
C332   C     0.12576   0.00729   0.90287   0.00000  Uiso   1.00
C333   C     0.03984   0.02409   0.90267   0.00000  Uiso   1.00
C334   C     0.98770   0.96404   0.86915   0.00000  Uiso   1.00
C335   C     0.87670   0.88692   0.82193   0.00000  Uiso   1.00
C336   C     0.25422   0.92772   0.87725   0.00000  Uiso   1.00
C337   C     0.27444   0.93645   0.96275   0.00000  Uiso   1.00
C338   C     0.31996   0.87914   0.00662   0.00000  Uiso   1.00
C339   C     0.33164   0.89862   0.08386   0.00000  Uiso   1.00
C340   C     0.28855   0.00711   0.83880   0.00000  Uiso   1.00
C341   C     0.34591   0.00921   0.77844   0.00000  Uiso   1.00
C342   C     0.36947   0.08817   0.75133   0.00000  Uiso   1.00
C343   C     0.15845   0.93315   0.87073   0.00000  Uiso   1.00
C344   C     0.10643   0.87306   0.83721   0.00000  Uiso   1.00
C345   C     0.02045   0.88976   0.83695   0.00000  Uiso   1.00
H346   H     0.16859   0.12195   0.96144   0.00000  Uiso   1.00
H347   H     0.22806   0.08755   0.09693   0.00000  Uiso   1.00
H348   H     0.25401   0.21760   0.86878   0.00000  Uiso   1.00
H349   H     0.01456   0.08147   0.92754   0.00000  Uiso   1.00
H350   H     0.30845   0.01673   0.23297   0.00000  Uiso   1.00
H351   H     0.36313   0.29094   0.75189   0.00000  Uiso   1.00
H352   H     0.85821   0.00390   0.87579   0.00000  Uiso   1.00
H353   H     0.27968   0.87000   0.85223   0.00000  Uiso   1.00
H354   H     0.34525   0.82177   0.98173   0.00000  Uiso   1.00
H355   H     0.37119   0.95182   0.75358   0.00000  Uiso   1.00
H356   H     0.13175   0.81570   0.81234   0.00000  Uiso   1.00
H357   H     0.40357   0.80102   0.13948   0.00000  Uiso   1.00
H358   H     0.45824   0.07523   0.65839   0.00000  Uiso   1.00
H359   H     0.95333   0.78818   0.78229   0.00000  Uiso   1.00
O360   O     0.39716   0.88171   0.27338   0.00000  Uiso   1.00
O361   O     0.46889   0.24146   0.64221   0.00000  Uiso   1.00
O362   O     0.80645   0.86486   0.80477   0.00000  Uiso   1.00
N363   N     0.32182   0.97257   0.19320   0.00000  Uiso   1.00
N364   N     0.37295   0.22894   0.74342   0.00000  Uiso   1.00
N365   N     0.90090   0.96059   0.85924   0.00000  Uiso   1.00
N366   N     0.37300   0.85650   0.14289   0.00000  Uiso   1.00
N367   N     0.42413   0.11287   0.69311   0.00000  Uiso   1.00
N368   N     0.95208   0.84452   0.80893   0.00000  Uiso   1.00
