data_job_04625
_audit_creation_date              2018-12-19
_audit_creation_method            'Materials Studio'
_symmetry_space_group_name_H-M    'P1'
_symmetry_Int_Tables_number       1
_symmetry_cell_setting            triclinic
loop_
_symmetry_equiv_pos_as_xyz
  x,y,z
_cell_length_a                    11.9568
_cell_length_b                    32.2493
_cell_length_c                    19.5947
_cell_angle_alpha                 90.0000
_cell_angle_beta                  142.9080
_cell_angle_gamma                 90.0000
loop_
_atom_site_label
_atom_site_type_symbol
_atom_site_fract_x
_atom_site_fract_y
_atom_site_fract_z
_atom_site_U_iso_or_equiv
_atom_site_adp_type
_atom_site_occupancy
C1     C     0.31862   0.40931   0.49992   0.00000  Uiso   1.00
C2     C     0.30987   0.42036   0.42006   0.00000  Uiso   1.00
C3     C     0.24592   0.45751   0.36207   0.00000  Uiso   1.00
C4     C     0.24913   0.46159   0.29310   0.00000  Uiso   1.00
C5     C     0.22559   0.48360   0.17065   0.00000  Uiso   1.00
C6     C     0.20777   0.36934   0.45401   0.00000  Uiso   1.00
C7     C     0.05800   0.36360   0.42457   0.00000  Uiso   1.00
C8     C     0.97529   0.32472   0.38420   0.00000  Uiso   1.00
C9     C     0.79333   0.26751   0.31454   0.00000  Uiso   1.00
C10    C     0.52003   0.39791   0.61243   0.00000  Uiso   1.00
C11    C     0.63280   0.41618   0.71620   0.00000  Uiso   1.00
C12    C     0.81299   0.40135   0.80921   0.00000  Uiso   1.00
C13    C     0.11586   0.38850   0.98552   0.00000  Uiso   1.00
C14    C     0.43805   0.35046   0.48058   0.00000  Uiso   1.00
C15    C     0.37474   0.38839   0.40956   0.00000  Uiso   1.00
C16    C     0.37806   0.39241   0.34067   0.00000  Uiso   1.00
C17    C     0.31413   0.42957   0.28258   0.00000  Uiso   1.00
C18    C     0.27264   0.33737   0.44351   0.00000  Uiso   1.00
C19    C     0.19014   0.29849   0.40318   0.00000  Uiso   1.00
C20    C     0.04028   0.29270   0.37368   0.00000  Uiso   1.00
C21    C     0.58491   0.36594   0.60193   0.00000  Uiso   1.00
C22    C     0.76495   0.35108   0.69480   0.00000  Uiso   1.00
C23    C     0.87798   0.36933   0.79869   0.00000  Uiso   1.00
H24    H     0.26810   0.43419   0.50810   0.00000  Uiso   1.00
H25    H     0.19570   0.48224   0.37021   0.00000  Uiso   1.00
H26    H     0.00784   0.38834   0.43272   0.00000  Uiso   1.00
H27    H     0.58255   0.44091   0.72429   0.00000  Uiso   1.00
H28    H     0.14399   0.52141   0.21267   0.00000  Uiso   1.00
H29    H     0.74789   0.32341   0.34452   0.00000  Uiso   1.00
H30    H     0.95980   0.43427   0.95936   0.00000  Uiso   1.00
H31    H     0.48856   0.32558   0.47240   0.00000  Uiso   1.00
H32    H     0.42827   0.36767   0.33256   0.00000  Uiso   1.00
H33    H     0.24039   0.27377   0.39507   0.00000  Uiso   1.00
H34    H     0.81511   0.32634   0.68664   0.00000  Uiso   1.00
H35    H     0.33274   0.42842   0.18210   0.00000  Uiso   1.00
H36    H     0.93664   0.23042   0.31396   0.00000  Uiso   1.00
H37    H     0.14854   0.34128   0.92880   0.00000  Uiso   1.00
O38    O     0.19466   0.50456   0.10600   0.00000  Uiso   1.00
O39    O     0.67503   0.24479   0.27901   0.00000  Uiso   1.00
O40    O     0.26501   0.39024   0.08566   0.00000  Uiso   1.00
N41    N     0.19672   0.49375   0.22469   0.00000  Uiso   1.00
N42    N     0.82637   0.30863   0.34794   0.00000  Uiso   1.00
N43    N     0.95939   0.41228   0.92277   0.00000  Uiso   1.00
N44    N     0.29829   0.44372   0.20824   0.00000  Uiso   1.00
N45    N     0.92794   0.25860   0.33149   0.00000  Uiso   1.00
N46    N     0.06095   0.36224   0.90632   0.00000  Uiso   1.00
C47    C     0.81862   0.90931   0.49992   0.00000  Uiso   1.00
C48    C     0.80987   0.92036   0.42006   0.00000  Uiso   1.00
C49    C     0.74592   0.95751   0.36207   0.00000  Uiso   1.00
C50    C     0.74913   0.96159   0.29310   0.00000  Uiso   1.00
C51    C     0.72559   0.98360   0.17065   0.00000  Uiso   1.00
C52    C     0.70777   0.86934   0.45401   0.00000  Uiso   1.00
C53    C     0.55800   0.86360   0.42457   0.00000  Uiso   1.00
C54    C     0.47529   0.82472   0.38420   0.00000  Uiso   1.00
C55    C     0.29333   0.76751   0.31454   0.00000  Uiso   1.00
C56    C     0.02003   0.89791   0.61243   0.00000  Uiso   1.00
C57    C     0.13280   0.91618   0.71620   0.00000  Uiso   1.00
C58    C     0.31299   0.90135   0.80921   0.00000  Uiso   1.00
C59    C     0.61586   0.88850   0.98552   0.00000  Uiso   1.00
C60    C     0.93805   0.85046   0.48058   0.00000  Uiso   1.00
C61    C     0.87474   0.88839   0.40956   0.00000  Uiso   1.00
C62    C     0.87806   0.89241   0.34067   0.00000  Uiso   1.00
C63    C     0.81413   0.92957   0.28258   0.00000  Uiso   1.00
C64    C     0.77264   0.83737   0.44351   0.00000  Uiso   1.00
C65    C     0.69014   0.79849   0.40318   0.00000  Uiso   1.00
C66    C     0.54028   0.79270   0.37368   0.00000  Uiso   1.00
C67    C     0.08491   0.86594   0.60193   0.00000  Uiso   1.00
C68    C     0.26495   0.85108   0.69480   0.00000  Uiso   1.00
C69    C     0.37798   0.86933   0.79869   0.00000  Uiso   1.00
H70    H     0.76810   0.93419   0.50810   0.00000  Uiso   1.00
H71    H     0.69570   0.98224   0.37021   0.00000  Uiso   1.00
H72    H     0.50784   0.88834   0.43272   0.00000  Uiso   1.00
H73    H     0.08255   0.94091   0.72429   0.00000  Uiso   1.00
H74    H     0.64399   0.02141   0.21267   0.00000  Uiso   1.00
H75    H     0.24789   0.82341   0.34452   0.00000  Uiso   1.00
H76    H     0.45980   0.93427   0.95936   0.00000  Uiso   1.00
H77    H     0.98856   0.82558   0.47240   0.00000  Uiso   1.00
H78    H     0.92827   0.86767   0.33256   0.00000  Uiso   1.00
H79    H     0.74039   0.77377   0.39507   0.00000  Uiso   1.00
H80    H     0.31511   0.82634   0.68664   0.00000  Uiso   1.00
H81    H     0.83274   0.92842   0.18210   0.00000  Uiso   1.00
H82    H     0.43664   0.73042   0.31396   0.00000  Uiso   1.00
H83    H     0.64854   0.84128   0.92880   0.00000  Uiso   1.00
O84    O     0.69466   0.00456   0.10600   0.00000  Uiso   1.00
O85    O     0.17503   0.74479   0.27901   0.00000  Uiso   1.00
O86    O     0.76501   0.89024   0.08566   0.00000  Uiso   1.00
N87    N     0.69672   0.99375   0.22469   0.00000  Uiso   1.00
N88    N     0.32637   0.80863   0.34794   0.00000  Uiso   1.00
N89    N     0.45939   0.91228   0.92277   0.00000  Uiso   1.00
N90    N     0.79829   0.94372   0.20824   0.00000  Uiso   1.00
N91    N     0.42794   0.75860   0.33149   0.00000  Uiso   1.00
N92    N     0.56095   0.86224   0.90632   0.00000  Uiso   1.00
C93    C     0.68138   0.40931   0.00008   0.00000  Uiso   1.00
C94    C     0.69013   0.42036   0.07994   0.00000  Uiso   1.00
C95    C     0.75408   0.45751   0.13793   0.00000  Uiso   1.00
C96    C     0.75087   0.46159   0.20690   0.00000  Uiso   1.00
C97    C     0.77441   0.48360   0.32935   0.00000  Uiso   1.00
C98    C     0.79223   0.36934   0.04599   0.00000  Uiso   1.00
C99    C     0.94200   0.36360   0.07543   0.00000  Uiso   1.00
C100   C     0.02471   0.32472   0.11580   0.00000  Uiso   1.00
C101   C     0.20667   0.26751   0.18546   0.00000  Uiso   1.00
C102   C     0.47997   0.39791   0.88757   0.00000  Uiso   1.00
C103   C     0.36720   0.41618   0.78380   0.00000  Uiso   1.00
C104   C     0.18701   0.40135   0.69079   0.00000  Uiso   1.00
C105   C     0.88414   0.38850   0.51448   0.00000  Uiso   1.00
C106   C     0.56195   0.35046   0.01942   0.00000  Uiso   1.00
C107   C     0.62526   0.38839   0.09044   0.00000  Uiso   1.00
C108   C     0.62194   0.39241   0.15933   0.00000  Uiso   1.00
C109   C     0.68587   0.42957   0.21742   0.00000  Uiso   1.00
C110   C     0.72736   0.33737   0.05649   0.00000  Uiso   1.00
C111   C     0.80986   0.29849   0.09682   0.00000  Uiso   1.00
C112   C     0.95972   0.29270   0.12632   0.00000  Uiso   1.00
C113   C     0.41509   0.36594   0.89807   0.00000  Uiso   1.00
C114   C     0.23505   0.35108   0.80520   0.00000  Uiso   1.00
C115   C     0.12202   0.36933   0.70131   0.00000  Uiso   1.00
H116   H     0.73190   0.43419   0.99190   0.00000  Uiso   1.00
H117   H     0.80430   0.48224   0.12979   0.00000  Uiso   1.00
H118   H     0.99216   0.38834   0.06728   0.00000  Uiso   1.00
H119   H     0.41745   0.44091   0.77571   0.00000  Uiso   1.00
H120   H     0.85601   0.52141   0.28733   0.00000  Uiso   1.00
H121   H     0.25211   0.32341   0.15548   0.00000  Uiso   1.00
H122   H     0.04020   0.43427   0.54064   0.00000  Uiso   1.00
H123   H     0.51144   0.32558   0.02760   0.00000  Uiso   1.00
H124   H     0.57173   0.36767   0.16744   0.00000  Uiso   1.00
H125   H     0.75961   0.27377   0.10493   0.00000  Uiso   1.00
H126   H     0.18489   0.32634   0.81336   0.00000  Uiso   1.00
H127   H     0.66726   0.42842   0.31790   0.00000  Uiso   1.00
H128   H     0.06336   0.23042   0.18604   0.00000  Uiso   1.00
H129   H     0.85146   0.34128   0.57120   0.00000  Uiso   1.00
O130   O     0.80534   0.50456   0.39400   0.00000  Uiso   1.00
O131   O     0.32497   0.24479   0.22099   0.00000  Uiso   1.00
O132   O     0.73499   0.39024   0.41434   0.00000  Uiso   1.00
N133   N     0.80328   0.49375   0.27531   0.00000  Uiso   1.00
N134   N     0.17363   0.30863   0.15206   0.00000  Uiso   1.00
N135   N     0.04061   0.41228   0.57723   0.00000  Uiso   1.00
N136   N     0.70171   0.44372   0.29176   0.00000  Uiso   1.00
N137   N     0.07206   0.25860   0.16851   0.00000  Uiso   1.00
N138   N     0.93905   0.36224   0.59368   0.00000  Uiso   1.00
C139   C     0.18138   0.90931   0.00008   0.00000  Uiso   1.00
C140   C     0.19013   0.92036   0.07994   0.00000  Uiso   1.00
C141   C     0.25408   0.95751   0.13793   0.00000  Uiso   1.00
C142   C     0.25087   0.96159   0.20690   0.00000  Uiso   1.00
C143   C     0.27441   0.98360   0.32935   0.00000  Uiso   1.00
C144   C     0.29223   0.86934   0.04599   0.00000  Uiso   1.00
C145   C     0.44200   0.86360   0.07543   0.00000  Uiso   1.00
C146   C     0.52471   0.82472   0.11580   0.00000  Uiso   1.00
C147   C     0.70667   0.76751   0.18546   0.00000  Uiso   1.00
C148   C     0.97997   0.89791   0.88757   0.00000  Uiso   1.00
C149   C     0.86720   0.91618   0.78380   0.00000  Uiso   1.00
C150   C     0.68701   0.90135   0.69079   0.00000  Uiso   1.00
C151   C     0.38414   0.88850   0.51448   0.00000  Uiso   1.00
C152   C     0.06195   0.85046   0.01942   0.00000  Uiso   1.00
C153   C     0.12526   0.88839   0.09044   0.00000  Uiso   1.00
C154   C     0.12194   0.89241   0.15933   0.00000  Uiso   1.00
C155   C     0.18587   0.92957   0.21742   0.00000  Uiso   1.00
C156   C     0.22736   0.83737   0.05649   0.00000  Uiso   1.00
C157   C     0.30986   0.79849   0.09682   0.00000  Uiso   1.00
C158   C     0.45972   0.79270   0.12632   0.00000  Uiso   1.00
C159   C     0.91509   0.86594   0.89807   0.00000  Uiso   1.00
C160   C     0.73505   0.85108   0.80520   0.00000  Uiso   1.00
C161   C     0.62202   0.86933   0.70131   0.00000  Uiso   1.00
H162   H     0.23190   0.93419   0.99190   0.00000  Uiso   1.00
H163   H     0.30430   0.98224   0.12979   0.00000  Uiso   1.00
H164   H     0.49216   0.88834   0.06728   0.00000  Uiso   1.00
H165   H     0.91745   0.94091   0.77571   0.00000  Uiso   1.00
H166   H     0.35601   0.02141   0.28733   0.00000  Uiso   1.00
H167   H     0.75211   0.82341   0.15548   0.00000  Uiso   1.00
H168   H     0.54020   0.93427   0.54064   0.00000  Uiso   1.00
H169   H     0.01144   0.82558   0.02760   0.00000  Uiso   1.00
H170   H     0.07173   0.86767   0.16744   0.00000  Uiso   1.00
H171   H     0.25961   0.77377   0.10493   0.00000  Uiso   1.00
H172   H     0.68489   0.82634   0.81336   0.00000  Uiso   1.00
H173   H     0.16726   0.92842   0.31790   0.00000  Uiso   1.00
H174   H     0.56336   0.73042   0.18604   0.00000  Uiso   1.00
H175   H     0.35146   0.84128   0.57120   0.00000  Uiso   1.00
O176   O     0.30534   0.00456   0.39400   0.00000  Uiso   1.00
O177   O     0.82497   0.74479   0.22099   0.00000  Uiso   1.00
O178   O     0.23499   0.89024   0.41434   0.00000  Uiso   1.00
N179   N     0.30328   0.99375   0.27531   0.00000  Uiso   1.00
N180   N     0.67363   0.80863   0.15206   0.00000  Uiso   1.00
N181   N     0.54061   0.91228   0.57723   0.00000  Uiso   1.00
N182   N     0.20171   0.94372   0.29176   0.00000  Uiso   1.00
N183   N     0.57206   0.75860   0.16851   0.00000  Uiso   1.00
N184   N     0.43905   0.86224   0.59368   0.00000  Uiso   1.00
C185   C     0.68138   0.59069   0.50008   0.00000  Uiso   1.00
C186   C     0.69013   0.57964   0.57994   0.00000  Uiso   1.00
C187   C     0.75408   0.54249   0.63793   0.00000  Uiso   1.00
C188   C     0.75087   0.53841   0.70690   0.00000  Uiso   1.00
C189   C     0.77441   0.51640   0.82935   0.00000  Uiso   1.00
C190   C     0.79223   0.63066   0.54599   0.00000  Uiso   1.00
C191   C     0.94200   0.63640   0.57543   0.00000  Uiso   1.00
C192   C     0.02471   0.67528   0.61580   0.00000  Uiso   1.00
C193   C     0.20667   0.73249   0.68546   0.00000  Uiso   1.00
C194   C     0.47997   0.60209   0.38757   0.00000  Uiso   1.00
C195   C     0.36720   0.58382   0.28380   0.00000  Uiso   1.00
C196   C     0.18701   0.59865   0.19079   0.00000  Uiso   1.00
C197   C     0.88414   0.61150   0.01448   0.00000  Uiso   1.00
C198   C     0.56195   0.64954   0.51942   0.00000  Uiso   1.00
C199   C     0.62526   0.61161   0.59044   0.00000  Uiso   1.00
C200   C     0.62194   0.60759   0.65933   0.00000  Uiso   1.00
C201   C     0.68587   0.57043   0.71742   0.00000  Uiso   1.00
C202   C     0.72736   0.66263   0.55649   0.00000  Uiso   1.00
C203   C     0.80986   0.70151   0.59682   0.00000  Uiso   1.00
C204   C     0.95972   0.70730   0.62632   0.00000  Uiso   1.00
C205   C     0.41509   0.63406   0.39807   0.00000  Uiso   1.00
C206   C     0.23505   0.64892   0.30520   0.00000  Uiso   1.00
C207   C     0.12202   0.63067   0.20131   0.00000  Uiso   1.00
H208   H     0.73190   0.56581   0.49190   0.00000  Uiso   1.00
H209   H     0.80430   0.51776   0.62979   0.00000  Uiso   1.00
H210   H     0.99216   0.61166   0.56728   0.00000  Uiso   1.00
H211   H     0.41745   0.55909   0.27571   0.00000  Uiso   1.00
H212   H     0.85601   0.47859   0.78733   0.00000  Uiso   1.00
H213   H     0.25211   0.67659   0.65548   0.00000  Uiso   1.00
H214   H     0.04020   0.56573   0.04064   0.00000  Uiso   1.00
H215   H     0.51144   0.67442   0.52760   0.00000  Uiso   1.00
H216   H     0.57173   0.63233   0.66744   0.00000  Uiso   1.00
H217   H     0.75961   0.72623   0.60493   0.00000  Uiso   1.00
H218   H     0.18489   0.67366   0.31336   0.00000  Uiso   1.00
H219   H     0.66726   0.57158   0.81790   0.00000  Uiso   1.00
H220   H     0.06336   0.76958   0.68604   0.00000  Uiso   1.00
H221   H     0.85146   0.65872   0.07120   0.00000  Uiso   1.00
O222   O     0.80534   0.49544   0.89400   0.00000  Uiso   1.00
O223   O     0.32497   0.75521   0.72099   0.00000  Uiso   1.00
O224   O     0.73499   0.60976   0.91434   0.00000  Uiso   1.00
N225   N     0.80328   0.50625   0.77531   0.00000  Uiso   1.00
N226   N     0.17363   0.69137   0.65206   0.00000  Uiso   1.00
N227   N     0.04061   0.58772   0.07723   0.00000  Uiso   1.00
N228   N     0.70171   0.55628   0.79176   0.00000  Uiso   1.00
N229   N     0.07206   0.74140   0.66851   0.00000  Uiso   1.00
N230   N     0.93905   0.63776   0.09368   0.00000  Uiso   1.00
C231   C     0.18138   0.09069   0.50008   0.00000  Uiso   1.00
C232   C     0.19013   0.07964   0.57994   0.00000  Uiso   1.00
C233   C     0.25408   0.04249   0.63793   0.00000  Uiso   1.00
C234   C     0.25087   0.03841   0.70690   0.00000  Uiso   1.00
C235   C     0.27441   0.01640   0.82935   0.00000  Uiso   1.00
C236   C     0.29223   0.13066   0.54599   0.00000  Uiso   1.00
C237   C     0.44200   0.13640   0.57543   0.00000  Uiso   1.00
C238   C     0.52471   0.17528   0.61580   0.00000  Uiso   1.00
C239   C     0.70667   0.23249   0.68546   0.00000  Uiso   1.00
C240   C     0.97997   0.10209   0.38757   0.00000  Uiso   1.00
C241   C     0.86720   0.08382   0.28380   0.00000  Uiso   1.00
C242   C     0.68701   0.09865   0.19079   0.00000  Uiso   1.00
C243   C     0.38414   0.11150   0.01448   0.00000  Uiso   1.00
C244   C     0.06195   0.14954   0.51942   0.00000  Uiso   1.00
C245   C     0.12526   0.11161   0.59044   0.00000  Uiso   1.00
C246   C     0.12194   0.10759   0.65933   0.00000  Uiso   1.00
C247   C     0.18587   0.07043   0.71742   0.00000  Uiso   1.00
C248   C     0.22736   0.16263   0.55649   0.00000  Uiso   1.00
C249   C     0.30986   0.20151   0.59682   0.00000  Uiso   1.00
C250   C     0.45972   0.20730   0.62632   0.00000  Uiso   1.00
C251   C     0.91509   0.13406   0.39807   0.00000  Uiso   1.00
C252   C     0.73505   0.14892   0.30520   0.00000  Uiso   1.00
C253   C     0.62202   0.13067   0.20131   0.00000  Uiso   1.00
H254   H     0.23190   0.06581   0.49190   0.00000  Uiso   1.00
H255   H     0.30430   0.01776   0.62979   0.00000  Uiso   1.00
H256   H     0.49216   0.11166   0.56728   0.00000  Uiso   1.00
H257   H     0.91745   0.05909   0.27571   0.00000  Uiso   1.00
H258   H     0.35601   0.97859   0.78733   0.00000  Uiso   1.00
H259   H     0.75211   0.17659   0.65548   0.00000  Uiso   1.00
H260   H     0.54020   0.06573   0.04064   0.00000  Uiso   1.00
H261   H     0.01144   0.17442   0.52760   0.00000  Uiso   1.00
H262   H     0.07173   0.13233   0.66744   0.00000  Uiso   1.00
H263   H     0.25961   0.22623   0.60493   0.00000  Uiso   1.00
H264   H     0.68489   0.17366   0.31336   0.00000  Uiso   1.00
H265   H     0.16726   0.07158   0.81790   0.00000  Uiso   1.00
H266   H     0.56336   0.26958   0.68604   0.00000  Uiso   1.00
H267   H     0.35146   0.15872   0.07120   0.00000  Uiso   1.00
O268   O     0.30534   0.99544   0.89400   0.00000  Uiso   1.00
O269   O     0.82497   0.25521   0.72099   0.00000  Uiso   1.00
O270   O     0.23499   0.10976   0.91434   0.00000  Uiso   1.00
N271   N     0.30328   0.00625   0.77531   0.00000  Uiso   1.00
N272   N     0.67363   0.19137   0.65206   0.00000  Uiso   1.00
N273   N     0.54061   0.08772   0.07723   0.00000  Uiso   1.00
N274   N     0.20171   0.05628   0.79176   0.00000  Uiso   1.00
N275   N     0.57206   0.24140   0.66851   0.00000  Uiso   1.00
N276   N     0.43905   0.13776   0.09368   0.00000  Uiso   1.00
C277   C     0.31862   0.59069   0.99992   0.00000  Uiso   1.00
C278   C     0.30987   0.57964   0.92006   0.00000  Uiso   1.00
C279   C     0.24592   0.54249   0.86207   0.00000  Uiso   1.00
C280   C     0.24913   0.53841   0.79310   0.00000  Uiso   1.00
C281   C     0.22559   0.51640   0.67065   0.00000  Uiso   1.00
C282   C     0.20777   0.63066   0.95401   0.00000  Uiso   1.00
C283   C     0.05800   0.63640   0.92457   0.00000  Uiso   1.00
C284   C     0.97529   0.67528   0.88420   0.00000  Uiso   1.00
C285   C     0.79333   0.73249   0.81454   0.00000  Uiso   1.00
C286   C     0.52003   0.60209   0.11243   0.00000  Uiso   1.00
C287   C     0.63280   0.58382   0.21620   0.00000  Uiso   1.00
C288   C     0.81299   0.59865   0.30921   0.00000  Uiso   1.00
C289   C     0.11586   0.61150   0.48552   0.00000  Uiso   1.00
C290   C     0.43805   0.64954   0.98058   0.00000  Uiso   1.00
C291   C     0.37474   0.61161   0.90956   0.00000  Uiso   1.00
C292   C     0.37806   0.60759   0.84067   0.00000  Uiso   1.00
C293   C     0.31413   0.57043   0.78258   0.00000  Uiso   1.00
C294   C     0.27264   0.66263   0.94351   0.00000  Uiso   1.00
C295   C     0.19014   0.70151   0.90318   0.00000  Uiso   1.00
C296   C     0.04028   0.70730   0.87368   0.00000  Uiso   1.00
C297   C     0.58491   0.63406   0.10193   0.00000  Uiso   1.00
C298   C     0.76495   0.64892   0.19480   0.00000  Uiso   1.00
C299   C     0.87798   0.63067   0.29869   0.00000  Uiso   1.00
H300   H     0.26810   0.56581   0.00810   0.00000  Uiso   1.00
H301   H     0.19570   0.51776   0.87021   0.00000  Uiso   1.00
H302   H     0.00784   0.61166   0.93272   0.00000  Uiso   1.00
H303   H     0.58255   0.55909   0.22429   0.00000  Uiso   1.00
H304   H     0.14399   0.47859   0.71267   0.00000  Uiso   1.00
H305   H     0.74789   0.67659   0.84452   0.00000  Uiso   1.00
H306   H     0.95980   0.56573   0.45936   0.00000  Uiso   1.00
H307   H     0.48856   0.67442   0.97240   0.00000  Uiso   1.00
H308   H     0.42827   0.63233   0.83256   0.00000  Uiso   1.00
H309   H     0.24039   0.72623   0.89507   0.00000  Uiso   1.00
H310   H     0.81511   0.67366   0.18664   0.00000  Uiso   1.00
H311   H     0.33274   0.57158   0.68210   0.00000  Uiso   1.00
H312   H     0.93664   0.76958   0.81396   0.00000  Uiso   1.00
H313   H     0.14854   0.65872   0.42880   0.00000  Uiso   1.00
O314   O     0.19466   0.49544   0.60600   0.00000  Uiso   1.00
O315   O     0.67503   0.75521   0.77901   0.00000  Uiso   1.00
O316   O     0.26501   0.60976   0.58566   0.00000  Uiso   1.00
N317   N     0.19672   0.50625   0.72469   0.00000  Uiso   1.00
N318   N     0.82637   0.69137   0.84794   0.00000  Uiso   1.00
N319   N     0.95939   0.58772   0.42277   0.00000  Uiso   1.00
N320   N     0.29829   0.55628   0.70824   0.00000  Uiso   1.00
N321   N     0.92794   0.74140   0.83149   0.00000  Uiso   1.00
N322   N     0.06095   0.63776   0.40632   0.00000  Uiso   1.00
C323   C     0.81862   0.09069   0.99992   0.00000  Uiso   1.00
C324   C     0.80987   0.07964   0.92006   0.00000  Uiso   1.00
C325   C     0.74592   0.04249   0.86207   0.00000  Uiso   1.00
C326   C     0.74913   0.03841   0.79310   0.00000  Uiso   1.00
C327   C     0.72559   0.01640   0.67065   0.00000  Uiso   1.00
C328   C     0.70777   0.13066   0.95401   0.00000  Uiso   1.00
C329   C     0.55800   0.13640   0.92457   0.00000  Uiso   1.00
C330   C     0.47529   0.17528   0.88420   0.00000  Uiso   1.00
C331   C     0.29333   0.23249   0.81454   0.00000  Uiso   1.00
C332   C     0.02003   0.10209   0.11243   0.00000  Uiso   1.00
C333   C     0.13280   0.08382   0.21620   0.00000  Uiso   1.00
C334   C     0.31299   0.09865   0.30921   0.00000  Uiso   1.00
C335   C     0.61586   0.11150   0.48552   0.00000  Uiso   1.00
C336   C     0.93805   0.14954   0.98058   0.00000  Uiso   1.00
C337   C     0.87474   0.11161   0.90956   0.00000  Uiso   1.00
C338   C     0.87806   0.10759   0.84067   0.00000  Uiso   1.00
C339   C     0.81413   0.07043   0.78258   0.00000  Uiso   1.00
C340   C     0.77264   0.16263   0.94351   0.00000  Uiso   1.00
C341   C     0.69014   0.20151   0.90318   0.00000  Uiso   1.00
C342   C     0.54028   0.20730   0.87368   0.00000  Uiso   1.00
C343   C     0.08491   0.13406   0.10193   0.00000  Uiso   1.00
C344   C     0.26495   0.14892   0.19480   0.00000  Uiso   1.00
C345   C     0.37798   0.13067   0.29869   0.00000  Uiso   1.00
H346   H     0.76810   0.06581   0.00810   0.00000  Uiso   1.00
H347   H     0.69570   0.01776   0.87021   0.00000  Uiso   1.00
H348   H     0.50784   0.11166   0.93272   0.00000  Uiso   1.00
H349   H     0.08255   0.05909   0.22429   0.00000  Uiso   1.00
H350   H     0.64399   0.97859   0.71267   0.00000  Uiso   1.00
H351   H     0.24789   0.17659   0.84452   0.00000  Uiso   1.00
H352   H     0.45980   0.06573   0.45936   0.00000  Uiso   1.00
H353   H     0.98856   0.17442   0.97240   0.00000  Uiso   1.00
H354   H     0.92827   0.13233   0.83256   0.00000  Uiso   1.00
H355   H     0.74039   0.22623   0.89507   0.00000  Uiso   1.00
H356   H     0.31511   0.17366   0.18664   0.00000  Uiso   1.00
H357   H     0.83274   0.07158   0.68210   0.00000  Uiso   1.00
H358   H     0.43664   0.26958   0.81396   0.00000  Uiso   1.00
H359   H     0.64854   0.15872   0.42880   0.00000  Uiso   1.00
O360   O     0.69466   0.99544   0.60600   0.00000  Uiso   1.00
O361   O     0.17503   0.25521   0.77901   0.00000  Uiso   1.00
O362   O     0.76501   0.10976   0.58566   0.00000  Uiso   1.00
N363   N     0.69672   0.00625   0.72469   0.00000  Uiso   1.00
N364   N     0.32637   0.19137   0.84794   0.00000  Uiso   1.00
N365   N     0.45939   0.08772   0.42277   0.00000  Uiso   1.00
N366   N     0.79829   0.05628   0.70824   0.00000  Uiso   1.00
N367   N     0.42794   0.24140   0.83149   0.00000  Uiso   1.00
N368   N     0.56095   0.13776   0.40632   0.00000  Uiso   1.00
