data_job_00561
_audit_creation_date              2018-12-19
_audit_creation_method            'Materials Studio'
_symmetry_space_group_name_H-M    'P1'
_symmetry_Int_Tables_number       1
_symmetry_cell_setting            triclinic
loop_
_symmetry_equiv_pos_as_xyz
  x,y,z
_cell_length_a                    32.8876
_cell_length_b                    9.7265
_cell_length_c                    17.1636
_cell_angle_alpha                 90.0000
_cell_angle_beta                  70.1242
_cell_angle_gamma                 90.0000
loop_
_atom_site_label
_atom_site_type_symbol
_atom_site_fract_x
_atom_site_fract_y
_atom_site_fract_z
_atom_site_U_iso_or_equiv
_atom_site_adp_type
_atom_site_occupancy
C1     C     0.18456   0.48259   0.88643   0.00000  Uiso   1.00
C2     C     0.14723   0.38017   0.90948   0.00000  Uiso   1.00
C3     C     0.15117   0.23807   0.90838   0.00000  Uiso   1.00
C4     C     0.11313   0.16233   0.93162   0.00000  Uiso   1.00
C5     C     0.06133   0.99353   0.96381   0.00000  Uiso   1.00
C6     C     0.17893   0.57237   0.81796   0.00000  Uiso   1.00
C7     C     0.20952   0.59187   0.73991   0.00000  Uiso   1.00
C8     C     0.19816   0.67795   0.68611   0.00000  Uiso   1.00
C9     C     0.19558   0.80761   0.57623   0.00000  Uiso   1.00
C10    C     0.17641   0.57625   0.96145   0.00000  Uiso   1.00
C11    C     0.20489   0.59905   0.00404   0.00000  Uiso   1.00
C12    C     0.19142   0.68843   0.07104   0.00000  Uiso   1.00
C13    C     0.18494   0.82412   0.18395   0.00000  Uiso   1.00
C14    C     0.11000   0.60080   0.92966   0.00000  Uiso   1.00
C15    C     0.10674   0.44438   0.93296   0.00000  Uiso   1.00
C16    C     0.06868   0.36884   0.95622   0.00000  Uiso   1.00
C17    C     0.07256   0.22665   0.95515   0.00000  Uiso   1.00
C18    C     0.13843   0.63657   0.84144   0.00000  Uiso   1.00
C19    C     0.12703   0.72265   0.78775   0.00000  Uiso   1.00
C20    C     0.15759   0.74227   0.70964   0.00000  Uiso   1.00
C21    C     0.13592   0.64046   0.98494   0.00000  Uiso   1.00
C22    C     0.12240   0.72982   0.05187   0.00000  Uiso   1.00
C23    C     0.15085   0.75275   0.09456   0.00000  Uiso   1.00
H24    H     0.21608   0.43262   0.86814   0.00000  Uiso   1.00
H25    H     0.18251   0.18842   0.89020   0.00000  Uiso   1.00
H26    H     0.24085   0.54218   0.72176   0.00000  Uiso   1.00
H27    H     0.23622   0.54935   0.98585   0.00000  Uiso   1.00
H28    H     0.12743   0.94599   0.92498   0.00000  Uiso   1.00
H29    H     0.25045   0.69195   0.56983   0.00000  Uiso   1.00
H30    H     0.24070   0.70708   0.12671   0.00000  Uiso   1.00
H31    H     0.07847   0.65079   0.94794   0.00000  Uiso   1.00
H32    H     0.03734   0.41856   0.97438   0.00000  Uiso   1.00
H33    H     0.09569   0.77232   0.80594   0.00000  Uiso   1.00
H34    H     0.09106   0.77949   0.07003   0.00000  Uiso   1.00
H35    H     0.00961   0.13278   0.99330   0.00000  Uiso   1.00
H36    H     0.13263   0.87875   0.63815   0.00000  Uiso   1.00
H37    H     0.12287   0.89387   0.19503   0.00000  Uiso   1.00
O38    O     0.04395   0.88268   0.97507   0.00000  Uiso   1.00
O39    O     0.20535   0.86137   0.50913   0.00000  Uiso   1.00
O40    O     0.19255   0.88121   0.23975   0.00000  Uiso   1.00
N41    N     0.10535   0.02182   0.93745   0.00000  Uiso   1.00
N42    N     0.22036   0.71924   0.60540   0.00000  Uiso   1.00
N43    N     0.21124   0.73341   0.12602   0.00000  Uiso   1.00
N44    N     0.04195   0.12233   0.97421   0.00000  Uiso   1.00
N45    N     0.15696   0.81975   0.64216   0.00000  Uiso   1.00
N46    N     0.14784   0.83392   0.16279   0.00000  Uiso   1.00
C47    C     0.68456   0.98259   0.88643   0.00000  Uiso   1.00
C48    C     0.64723   0.88017   0.90948   0.00000  Uiso   1.00
C49    C     0.65117   0.73807   0.90838   0.00000  Uiso   1.00
C50    C     0.61313   0.66233   0.93162   0.00000  Uiso   1.00
C51    C     0.56133   0.49353   0.96381   0.00000  Uiso   1.00
C52    C     0.67893   0.07237   0.81796   0.00000  Uiso   1.00
C53    C     0.70952   0.09187   0.73991   0.00000  Uiso   1.00
C54    C     0.69816   0.17795   0.68611   0.00000  Uiso   1.00
C55    C     0.69558   0.30761   0.57623   0.00000  Uiso   1.00
C56    C     0.67641   0.07625   0.96145   0.00000  Uiso   1.00
C57    C     0.70489   0.09905   0.00404   0.00000  Uiso   1.00
C58    C     0.69142   0.18843   0.07104   0.00000  Uiso   1.00
C59    C     0.68494   0.32412   0.18395   0.00000  Uiso   1.00
C60    C     0.61000   0.10080   0.92966   0.00000  Uiso   1.00
C61    C     0.60674   0.94438   0.93296   0.00000  Uiso   1.00
C62    C     0.56868   0.86884   0.95622   0.00000  Uiso   1.00
C63    C     0.57256   0.72665   0.95515   0.00000  Uiso   1.00
C64    C     0.63843   0.13657   0.84144   0.00000  Uiso   1.00
C65    C     0.62703   0.22265   0.78775   0.00000  Uiso   1.00
C66    C     0.65759   0.24227   0.70964   0.00000  Uiso   1.00
C67    C     0.63592   0.14046   0.98494   0.00000  Uiso   1.00
C68    C     0.62240   0.22982   0.05187   0.00000  Uiso   1.00
C69    C     0.65085   0.25275   0.09456   0.00000  Uiso   1.00
H70    H     0.71608   0.93262   0.86814   0.00000  Uiso   1.00
H71    H     0.68251   0.68842   0.89020   0.00000  Uiso   1.00
H72    H     0.74085   0.04218   0.72176   0.00000  Uiso   1.00
H73    H     0.73622   0.04935   0.98585   0.00000  Uiso   1.00
H74    H     0.62743   0.44599   0.92498   0.00000  Uiso   1.00
H75    H     0.75045   0.19195   0.56983   0.00000  Uiso   1.00
H76    H     0.74070   0.20708   0.12671   0.00000  Uiso   1.00
H77    H     0.57847   0.15079   0.94794   0.00000  Uiso   1.00
H78    H     0.53734   0.91856   0.97438   0.00000  Uiso   1.00
H79    H     0.59569   0.27232   0.80594   0.00000  Uiso   1.00
H80    H     0.59106   0.27949   0.07003   0.00000  Uiso   1.00
H81    H     0.50961   0.63278   0.99330   0.00000  Uiso   1.00
H82    H     0.63263   0.37875   0.63815   0.00000  Uiso   1.00
H83    H     0.62287   0.39387   0.19503   0.00000  Uiso   1.00
O84    O     0.54395   0.38268   0.97507   0.00000  Uiso   1.00
O85    O     0.70535   0.36137   0.50913   0.00000  Uiso   1.00
O86    O     0.69255   0.38121   0.23975   0.00000  Uiso   1.00
N87    N     0.60535   0.52182   0.93745   0.00000  Uiso   1.00
N88    N     0.72036   0.21924   0.60540   0.00000  Uiso   1.00
N89    N     0.71124   0.23341   0.12602   0.00000  Uiso   1.00
N90    N     0.54195   0.62233   0.97421   0.00000  Uiso   1.00
N91    N     0.65696   0.31975   0.64216   0.00000  Uiso   1.00
N92    N     0.64784   0.33392   0.16279   0.00000  Uiso   1.00
C93    C     0.81544   0.48259   0.61357   0.00000  Uiso   1.00
C94    C     0.85277   0.38017   0.59052   0.00000  Uiso   1.00
C95    C     0.84883   0.23807   0.59162   0.00000  Uiso   1.00
C96    C     0.88687   0.16233   0.56838   0.00000  Uiso   1.00
C97    C     0.93867   0.99353   0.53619   0.00000  Uiso   1.00
C98    C     0.82107   0.57237   0.68204   0.00000  Uiso   1.00
C99    C     0.79048   0.59187   0.76009   0.00000  Uiso   1.00
C100   C     0.80184   0.67795   0.81389   0.00000  Uiso   1.00
C101   C     0.80442   0.80761   0.92377   0.00000  Uiso   1.00
C102   C     0.82359   0.57625   0.53855   0.00000  Uiso   1.00
C103   C     0.79511   0.59905   0.49596   0.00000  Uiso   1.00
C104   C     0.80858   0.68843   0.42896   0.00000  Uiso   1.00
C105   C     0.81506   0.82412   0.31605   0.00000  Uiso   1.00
C106   C     0.89000   0.60080   0.57034   0.00000  Uiso   1.00
C107   C     0.89326   0.44438   0.56704   0.00000  Uiso   1.00
C108   C     0.93132   0.36884   0.54378   0.00000  Uiso   1.00
C109   C     0.92744   0.22665   0.54485   0.00000  Uiso   1.00
C110   C     0.86157   0.63657   0.65856   0.00000  Uiso   1.00
C111   C     0.87297   0.72265   0.71225   0.00000  Uiso   1.00
C112   C     0.84241   0.74227   0.79036   0.00000  Uiso   1.00
C113   C     0.86408   0.64046   0.51506   0.00000  Uiso   1.00
C114   C     0.87760   0.72982   0.44813   0.00000  Uiso   1.00
C115   C     0.84915   0.75275   0.40544   0.00000  Uiso   1.00
H116   H     0.78392   0.43262   0.63186   0.00000  Uiso   1.00
H117   H     0.81749   0.18842   0.60980   0.00000  Uiso   1.00
H118   H     0.75915   0.54218   0.77824   0.00000  Uiso   1.00
H119   H     0.76378   0.54935   0.51415   0.00000  Uiso   1.00
H120   H     0.87257   0.94599   0.57502   0.00000  Uiso   1.00
H121   H     0.74955   0.69195   0.93017   0.00000  Uiso   1.00
H122   H     0.75930   0.70708   0.37329   0.00000  Uiso   1.00
H123   H     0.92153   0.65079   0.55206   0.00000  Uiso   1.00
H124   H     0.96266   0.41856   0.52562   0.00000  Uiso   1.00
H125   H     0.90431   0.77232   0.69406   0.00000  Uiso   1.00
H126   H     0.90894   0.77949   0.42997   0.00000  Uiso   1.00
H127   H     0.99039   0.13278   0.50670   0.00000  Uiso   1.00
H128   H     0.86737   0.87875   0.86185   0.00000  Uiso   1.00
H129   H     0.87713   0.89387   0.30497   0.00000  Uiso   1.00
O130   O     0.95605   0.88268   0.52493   0.00000  Uiso   1.00
O131   O     0.79465   0.86137   0.99087   0.00000  Uiso   1.00
O132   O     0.80745   0.88121   0.26025   0.00000  Uiso   1.00
N133   N     0.89465   0.02182   0.56255   0.00000  Uiso   1.00
N134   N     0.77964   0.71924   0.89460   0.00000  Uiso   1.00
N135   N     0.78876   0.73341   0.37398   0.00000  Uiso   1.00
N136   N     0.95805   0.12233   0.52579   0.00000  Uiso   1.00
N137   N     0.84304   0.81975   0.85784   0.00000  Uiso   1.00
N138   N     0.85216   0.83392   0.33721   0.00000  Uiso   1.00
C139   C     0.31544   0.98259   0.61357   0.00000  Uiso   1.00
C140   C     0.35277   0.88017   0.59052   0.00000  Uiso   1.00
C141   C     0.34883   0.73807   0.59162   0.00000  Uiso   1.00
C142   C     0.38687   0.66233   0.56838   0.00000  Uiso   1.00
C143   C     0.43867   0.49353   0.53619   0.00000  Uiso   1.00
C144   C     0.32107   0.07237   0.68204   0.00000  Uiso   1.00
C145   C     0.29048   0.09187   0.76009   0.00000  Uiso   1.00
C146   C     0.30184   0.17795   0.81389   0.00000  Uiso   1.00
C147   C     0.30442   0.30761   0.92377   0.00000  Uiso   1.00
C148   C     0.32359   0.07625   0.53855   0.00000  Uiso   1.00
C149   C     0.29511   0.09905   0.49596   0.00000  Uiso   1.00
C150   C     0.30858   0.18843   0.42896   0.00000  Uiso   1.00
C151   C     0.31506   0.32412   0.31605   0.00000  Uiso   1.00
C152   C     0.39000   0.10080   0.57034   0.00000  Uiso   1.00
C153   C     0.39326   0.94438   0.56704   0.00000  Uiso   1.00
C154   C     0.43132   0.86884   0.54378   0.00000  Uiso   1.00
C155   C     0.42744   0.72665   0.54485   0.00000  Uiso   1.00
C156   C     0.36157   0.13657   0.65856   0.00000  Uiso   1.00
C157   C     0.37297   0.22265   0.71225   0.00000  Uiso   1.00
C158   C     0.34241   0.24227   0.79036   0.00000  Uiso   1.00
C159   C     0.36408   0.14046   0.51506   0.00000  Uiso   1.00
C160   C     0.37760   0.22982   0.44813   0.00000  Uiso   1.00
C161   C     0.34915   0.25275   0.40544   0.00000  Uiso   1.00
H162   H     0.28392   0.93262   0.63186   0.00000  Uiso   1.00
H163   H     0.31749   0.68842   0.60980   0.00000  Uiso   1.00
H164   H     0.25915   0.04218   0.77824   0.00000  Uiso   1.00
H165   H     0.26378   0.04935   0.51415   0.00000  Uiso   1.00
H166   H     0.37257   0.44599   0.57502   0.00000  Uiso   1.00
H167   H     0.24955   0.19195   0.93017   0.00000  Uiso   1.00
H168   H     0.25930   0.20708   0.37329   0.00000  Uiso   1.00
H169   H     0.42153   0.15079   0.55206   0.00000  Uiso   1.00
H170   H     0.46266   0.91856   0.52562   0.00000  Uiso   1.00
H171   H     0.40431   0.27232   0.69406   0.00000  Uiso   1.00
H172   H     0.40894   0.27949   0.42997   0.00000  Uiso   1.00
H173   H     0.49039   0.63278   0.50670   0.00000  Uiso   1.00
H174   H     0.36737   0.37875   0.86185   0.00000  Uiso   1.00
H175   H     0.37713   0.39387   0.30497   0.00000  Uiso   1.00
O176   O     0.45605   0.38268   0.52493   0.00000  Uiso   1.00
O177   O     0.29465   0.36137   0.99087   0.00000  Uiso   1.00
O178   O     0.30745   0.38121   0.26025   0.00000  Uiso   1.00
N179   N     0.39465   0.52182   0.56255   0.00000  Uiso   1.00
N180   N     0.27964   0.21924   0.89460   0.00000  Uiso   1.00
N181   N     0.28876   0.23341   0.37398   0.00000  Uiso   1.00
N182   N     0.45805   0.62233   0.52579   0.00000  Uiso   1.00
N183   N     0.34304   0.31975   0.85784   0.00000  Uiso   1.00
N184   N     0.35216   0.33392   0.33721   0.00000  Uiso   1.00
C185   C     0.81544   0.51741   0.11357   0.00000  Uiso   1.00
C186   C     0.85277   0.61983   0.09052   0.00000  Uiso   1.00
C187   C     0.84883   0.76193   0.09162   0.00000  Uiso   1.00
C188   C     0.88687   0.83767   0.06838   0.00000  Uiso   1.00
C189   C     0.93867   0.00647   0.03619   0.00000  Uiso   1.00
C190   C     0.82107   0.42763   0.18204   0.00000  Uiso   1.00
C191   C     0.79048   0.40813   0.26009   0.00000  Uiso   1.00
C192   C     0.80184   0.32205   0.31389   0.00000  Uiso   1.00
C193   C     0.80442   0.19239   0.42377   0.00000  Uiso   1.00
C194   C     0.82359   0.42375   0.03855   0.00000  Uiso   1.00
C195   C     0.79511   0.40095   0.99596   0.00000  Uiso   1.00
C196   C     0.80858   0.31157   0.92896   0.00000  Uiso   1.00
C197   C     0.81506   0.17588   0.81605   0.00000  Uiso   1.00
C198   C     0.89000   0.39920   0.07034   0.00000  Uiso   1.00
C199   C     0.89326   0.55562   0.06704   0.00000  Uiso   1.00
C200   C     0.93132   0.63116   0.04378   0.00000  Uiso   1.00
C201   C     0.92744   0.77335   0.04485   0.00000  Uiso   1.00
C202   C     0.86157   0.36343   0.15856   0.00000  Uiso   1.00
C203   C     0.87297   0.27735   0.21225   0.00000  Uiso   1.00
C204   C     0.84241   0.25773   0.29036   0.00000  Uiso   1.00
C205   C     0.86408   0.35954   0.01506   0.00000  Uiso   1.00
C206   C     0.87760   0.27018   0.94813   0.00000  Uiso   1.00
C207   C     0.84915   0.24725   0.90544   0.00000  Uiso   1.00
H208   H     0.78392   0.56738   0.13186   0.00000  Uiso   1.00
H209   H     0.81749   0.81158   0.10980   0.00000  Uiso   1.00
H210   H     0.75915   0.45782   0.27824   0.00000  Uiso   1.00
H211   H     0.76378   0.45065   0.01415   0.00000  Uiso   1.00
H212   H     0.87257   0.05401   0.07502   0.00000  Uiso   1.00
H213   H     0.74955   0.30805   0.43017   0.00000  Uiso   1.00
H214   H     0.75930   0.29292   0.87329   0.00000  Uiso   1.00
H215   H     0.92153   0.34921   0.05206   0.00000  Uiso   1.00
H216   H     0.96266   0.58144   0.02562   0.00000  Uiso   1.00
H217   H     0.90431   0.22768   0.19406   0.00000  Uiso   1.00
H218   H     0.90894   0.22051   0.92997   0.00000  Uiso   1.00
H219   H     0.99039   0.86722   0.00670   0.00000  Uiso   1.00
H220   H     0.86737   0.12125   0.36185   0.00000  Uiso   1.00
H221   H     0.87713   0.10613   0.80497   0.00000  Uiso   1.00
O222   O     0.95605   0.11732   0.02493   0.00000  Uiso   1.00
O223   O     0.79465   0.13863   0.49087   0.00000  Uiso   1.00
O224   O     0.80745   0.11879   0.76025   0.00000  Uiso   1.00
N225   N     0.89465   0.97818   0.06255   0.00000  Uiso   1.00
N226   N     0.77964   0.28076   0.39460   0.00000  Uiso   1.00
N227   N     0.78876   0.26659   0.87398   0.00000  Uiso   1.00
N228   N     0.95805   0.87767   0.02579   0.00000  Uiso   1.00
N229   N     0.84304   0.18025   0.35784   0.00000  Uiso   1.00
N230   N     0.85216   0.16608   0.83721   0.00000  Uiso   1.00
C231   C     0.31544   0.01741   0.11357   0.00000  Uiso   1.00
C232   C     0.35277   0.11983   0.09052   0.00000  Uiso   1.00
C233   C     0.34883   0.26193   0.09162   0.00000  Uiso   1.00
C234   C     0.38687   0.33767   0.06838   0.00000  Uiso   1.00
C235   C     0.43867   0.50647   0.03619   0.00000  Uiso   1.00
C236   C     0.32107   0.92763   0.18204   0.00000  Uiso   1.00
C237   C     0.29048   0.90813   0.26009   0.00000  Uiso   1.00
C238   C     0.30184   0.82205   0.31389   0.00000  Uiso   1.00
C239   C     0.30442   0.69239   0.42377   0.00000  Uiso   1.00
C240   C     0.32359   0.92375   0.03855   0.00000  Uiso   1.00
C241   C     0.29511   0.90095   0.99596   0.00000  Uiso   1.00
C242   C     0.30858   0.81157   0.92896   0.00000  Uiso   1.00
C243   C     0.31506   0.67588   0.81605   0.00000  Uiso   1.00
C244   C     0.39000   0.89920   0.07034   0.00000  Uiso   1.00
C245   C     0.39326   0.05562   0.06704   0.00000  Uiso   1.00
C246   C     0.43132   0.13116   0.04378   0.00000  Uiso   1.00
C247   C     0.42744   0.27335   0.04485   0.00000  Uiso   1.00
C248   C     0.36157   0.86343   0.15856   0.00000  Uiso   1.00
C249   C     0.37297   0.77735   0.21225   0.00000  Uiso   1.00
C250   C     0.34241   0.75773   0.29036   0.00000  Uiso   1.00
C251   C     0.36408   0.85954   0.01506   0.00000  Uiso   1.00
C252   C     0.37760   0.77018   0.94813   0.00000  Uiso   1.00
C253   C     0.34915   0.74725   0.90544   0.00000  Uiso   1.00
H254   H     0.28392   0.06738   0.13186   0.00000  Uiso   1.00
H255   H     0.31749   0.31158   0.10980   0.00000  Uiso   1.00
H256   H     0.25915   0.95782   0.27824   0.00000  Uiso   1.00
H257   H     0.26378   0.95065   0.01415   0.00000  Uiso   1.00
H258   H     0.37257   0.55401   0.07502   0.00000  Uiso   1.00
H259   H     0.24955   0.80805   0.43017   0.00000  Uiso   1.00
H260   H     0.25930   0.79292   0.87329   0.00000  Uiso   1.00
H261   H     0.42153   0.84921   0.05206   0.00000  Uiso   1.00
H262   H     0.46266   0.08144   0.02562   0.00000  Uiso   1.00
H263   H     0.40431   0.72768   0.19406   0.00000  Uiso   1.00
H264   H     0.40894   0.72051   0.92997   0.00000  Uiso   1.00
H265   H     0.49039   0.36722   0.00670   0.00000  Uiso   1.00
H266   H     0.36737   0.62125   0.36185   0.00000  Uiso   1.00
H267   H     0.37713   0.60613   0.80497   0.00000  Uiso   1.00
O268   O     0.45605   0.61732   0.02493   0.00000  Uiso   1.00
O269   O     0.29465   0.63863   0.49087   0.00000  Uiso   1.00
O270   O     0.30745   0.61879   0.76025   0.00000  Uiso   1.00
N271   N     0.39465   0.47818   0.06255   0.00000  Uiso   1.00
N272   N     0.27964   0.78076   0.39460   0.00000  Uiso   1.00
N273   N     0.28876   0.76659   0.87398   0.00000  Uiso   1.00
N274   N     0.45805   0.37767   0.02579   0.00000  Uiso   1.00
N275   N     0.34304   0.68025   0.35784   0.00000  Uiso   1.00
N276   N     0.35216   0.66608   0.83721   0.00000  Uiso   1.00
C277   C     0.18456   0.51741   0.38643   0.00000  Uiso   1.00
C278   C     0.14723   0.61983   0.40948   0.00000  Uiso   1.00
C279   C     0.15117   0.76193   0.40838   0.00000  Uiso   1.00
C280   C     0.11313   0.83767   0.43162   0.00000  Uiso   1.00
C281   C     0.06133   0.00647   0.46381   0.00000  Uiso   1.00
C282   C     0.17893   0.42763   0.31796   0.00000  Uiso   1.00
C283   C     0.20952   0.40813   0.23991   0.00000  Uiso   1.00
C284   C     0.19816   0.32205   0.18611   0.00000  Uiso   1.00
C285   C     0.19558   0.19239   0.07623   0.00000  Uiso   1.00
C286   C     0.17641   0.42375   0.46145   0.00000  Uiso   1.00
C287   C     0.20489   0.40095   0.50404   0.00000  Uiso   1.00
C288   C     0.19142   0.31157   0.57104   0.00000  Uiso   1.00
C289   C     0.18494   0.17588   0.68395   0.00000  Uiso   1.00
C290   C     0.11000   0.39920   0.42966   0.00000  Uiso   1.00
C291   C     0.10674   0.55562   0.43296   0.00000  Uiso   1.00
C292   C     0.06868   0.63116   0.45622   0.00000  Uiso   1.00
C293   C     0.07256   0.77335   0.45515   0.00000  Uiso   1.00
C294   C     0.13843   0.36343   0.34144   0.00000  Uiso   1.00
C295   C     0.12703   0.27735   0.28775   0.00000  Uiso   1.00
C296   C     0.15759   0.25773   0.20964   0.00000  Uiso   1.00
C297   C     0.13592   0.35954   0.48494   0.00000  Uiso   1.00
C298   C     0.12240   0.27018   0.55187   0.00000  Uiso   1.00
C299   C     0.15085   0.24725   0.59456   0.00000  Uiso   1.00
H300   H     0.21608   0.56738   0.36814   0.00000  Uiso   1.00
H301   H     0.18251   0.81158   0.39020   0.00000  Uiso   1.00
H302   H     0.24085   0.45782   0.22176   0.00000  Uiso   1.00
H303   H     0.23622   0.45065   0.48585   0.00000  Uiso   1.00
H304   H     0.12743   0.05401   0.42498   0.00000  Uiso   1.00
H305   H     0.25045   0.30805   0.06983   0.00000  Uiso   1.00
H306   H     0.24070   0.29292   0.62671   0.00000  Uiso   1.00
H307   H     0.07847   0.34921   0.44794   0.00000  Uiso   1.00
H308   H     0.03734   0.58144   0.47438   0.00000  Uiso   1.00
H309   H     0.09569   0.22768   0.30594   0.00000  Uiso   1.00
H310   H     0.09106   0.22051   0.57003   0.00000  Uiso   1.00
H311   H     0.00961   0.86722   0.49330   0.00000  Uiso   1.00
H312   H     0.13263   0.12125   0.13815   0.00000  Uiso   1.00
H313   H     0.12287   0.10613   0.69503   0.00000  Uiso   1.00
O314   O     0.04395   0.11732   0.47507   0.00000  Uiso   1.00
O315   O     0.20535   0.13863   0.00913   0.00000  Uiso   1.00
O316   O     0.19255   0.11879   0.73975   0.00000  Uiso   1.00
N317   N     0.10535   0.97818   0.43745   0.00000  Uiso   1.00
N318   N     0.22036   0.28076   0.10540   0.00000  Uiso   1.00
N319   N     0.21124   0.26659   0.62602   0.00000  Uiso   1.00
N320   N     0.04195   0.87767   0.47421   0.00000  Uiso   1.00
N321   N     0.15696   0.18025   0.14216   0.00000  Uiso   1.00
N322   N     0.14784   0.16608   0.66279   0.00000  Uiso   1.00
C323   C     0.68456   0.01741   0.38643   0.00000  Uiso   1.00
C324   C     0.64723   0.11983   0.40948   0.00000  Uiso   1.00
C325   C     0.65117   0.26193   0.40838   0.00000  Uiso   1.00
C326   C     0.61313   0.33767   0.43162   0.00000  Uiso   1.00
C327   C     0.56133   0.50647   0.46381   0.00000  Uiso   1.00
C328   C     0.67893   0.92763   0.31796   0.00000  Uiso   1.00
C329   C     0.70952   0.90813   0.23991   0.00000  Uiso   1.00
C330   C     0.69816   0.82205   0.18611   0.00000  Uiso   1.00
C331   C     0.69558   0.69239   0.07623   0.00000  Uiso   1.00
C332   C     0.67641   0.92375   0.46145   0.00000  Uiso   1.00
C333   C     0.70489   0.90095   0.50404   0.00000  Uiso   1.00
C334   C     0.69142   0.81157   0.57104   0.00000  Uiso   1.00
C335   C     0.68494   0.67588   0.68395   0.00000  Uiso   1.00
C336   C     0.61000   0.89920   0.42966   0.00000  Uiso   1.00
C337   C     0.60674   0.05562   0.43296   0.00000  Uiso   1.00
C338   C     0.56868   0.13116   0.45622   0.00000  Uiso   1.00
C339   C     0.57256   0.27335   0.45515   0.00000  Uiso   1.00
C340   C     0.63843   0.86343   0.34144   0.00000  Uiso   1.00
C341   C     0.62703   0.77735   0.28775   0.00000  Uiso   1.00
C342   C     0.65759   0.75773   0.20964   0.00000  Uiso   1.00
C343   C     0.63592   0.85954   0.48494   0.00000  Uiso   1.00
C344   C     0.62240   0.77018   0.55187   0.00000  Uiso   1.00
C345   C     0.65085   0.74725   0.59456   0.00000  Uiso   1.00
H346   H     0.71608   0.06738   0.36814   0.00000  Uiso   1.00
H347   H     0.68251   0.31158   0.39020   0.00000  Uiso   1.00
H348   H     0.74085   0.95782   0.22176   0.00000  Uiso   1.00
H349   H     0.73622   0.95065   0.48585   0.00000  Uiso   1.00
H350   H     0.62743   0.55401   0.42498   0.00000  Uiso   1.00
H351   H     0.75045   0.80805   0.06983   0.00000  Uiso   1.00
H352   H     0.74070   0.79292   0.62671   0.00000  Uiso   1.00
H353   H     0.57847   0.84921   0.44794   0.00000  Uiso   1.00
H354   H     0.53734   0.08144   0.47438   0.00000  Uiso   1.00
H355   H     0.59569   0.72768   0.30594   0.00000  Uiso   1.00
H356   H     0.59106   0.72051   0.57003   0.00000  Uiso   1.00
H357   H     0.50961   0.36722   0.49330   0.00000  Uiso   1.00
H358   H     0.63263   0.62125   0.13815   0.00000  Uiso   1.00
H359   H     0.62287   0.60613   0.69503   0.00000  Uiso   1.00
O360   O     0.54395   0.61732   0.47507   0.00000  Uiso   1.00
O361   O     0.70535   0.63863   0.00913   0.00000  Uiso   1.00
O362   O     0.69255   0.61879   0.73975   0.00000  Uiso   1.00
N363   N     0.60535   0.47818   0.43745   0.00000  Uiso   1.00
N364   N     0.72036   0.78076   0.10540   0.00000  Uiso   1.00
N365   N     0.71124   0.76659   0.62602   0.00000  Uiso   1.00
N366   N     0.54195   0.37767   0.47421   0.00000  Uiso   1.00
N367   N     0.65696   0.68025   0.14216   0.00000  Uiso   1.00
N368   N     0.64784   0.66608   0.66279   0.00000  Uiso   1.00
