data_job_04646
_audit_creation_date              2018-12-19
_audit_creation_method            'Materials Studio'
_symmetry_space_group_name_H-M    'P1'
_symmetry_Int_Tables_number       1
_symmetry_cell_setting            triclinic
loop_
_symmetry_equiv_pos_as_xyz
  x,y,z
_cell_length_a                    18.2040
_cell_length_b                    12.2774
_cell_length_c                    27.4413
_cell_angle_alpha                 90.0000
_cell_angle_beta                  126.8647
_cell_angle_gamma                 90.0000
loop_
_atom_site_label
_atom_site_type_symbol
_atom_site_fract_x
_atom_site_fract_y
_atom_site_fract_z
_atom_site_U_iso_or_equiv
_atom_site_adp_type
_atom_site_occupancy
C1     C     0.23257   0.41303   0.91257   0.00000  Uiso   1.00
C2     C     0.27881   0.48746   0.89387   0.00000  Uiso   1.00
C3     C     0.33013   0.57960   0.92507   0.00000  Uiso   1.00
C4     C     0.36671   0.63674   0.90052   0.00000  Uiso   1.00
C5     C     0.44064   0.75750   0.87965   0.00000  Uiso   1.00
C6     C     0.13120   0.40992   0.85838   0.00000  Uiso   1.00
C7     C     0.05842   0.43684   0.85976   0.00000  Uiso   1.00
C8     C     0.97074   0.42868   0.80534   0.00000  Uiso   1.00
C9     C     0.81551   0.42897   0.72939   0.00000  Uiso   1.00
C10    C     0.26967   0.29896   0.91755   0.00000  Uiso   1.00
C11    C     0.31330   0.23258   0.96868   0.00000  Uiso   1.00
C12    C     0.34218   0.13099   0.96407   0.00000  Uiso   1.00
C13    C     0.40194   0.95902   0.97999   0.00000  Uiso   1.00
C14    C     0.20627   0.35064   0.81348   0.00000  Uiso   1.00
C15    C     0.26452   0.45357   0.84004   0.00000  Uiso   1.00
C16    C     0.30104   0.51058   0.81544   0.00000  Uiso   1.00
C17    C     0.35240   0.60279   0.84660   0.00000  Uiso   1.00
C18    C     0.11692   0.37603   0.80456   0.00000  Uiso   1.00
C19    C     0.02933   0.36782   0.75013   0.00000  Uiso   1.00
C20    C     0.95643   0.39474   0.75142   0.00000  Uiso   1.00
C21    C     0.25539   0.26508   0.86373   0.00000  Uiso   1.00
C22    C     0.28420   0.16357   0.85904   0.00000  Uiso   1.00
C23    C     0.32787   0.09705   0.91015   0.00000  Uiso   1.00
H24    H     0.24369   0.43941   0.95447   0.00000  Uiso   1.00
H25    H     0.34116   0.60580   0.96672   0.00000  Uiso   1.00
H26    H     0.06950   0.46305   0.90142   0.00000  Uiso   1.00
H27    H     0.32434   0.25883   0.01032   0.00000  Uiso   1.00
H28    H     0.44290   0.77536   0.95655   0.00000  Uiso   1.00
H29    H     0.87008   0.47433   0.81886   0.00000  Uiso   1.00
H30    H     0.40746   0.04368   0.04850   0.00000  Uiso   1.00
H31    H     0.19515   0.32426   0.77158   0.00000  Uiso   1.00
H32    H     0.28997   0.48434   0.77379   0.00000  Uiso   1.00
H33    H     0.01830   0.34159   0.70849   0.00000  Uiso   1.00
H34    H     0.27314   0.13737   0.81739   0.00000  Uiso   1.00
H35    H     0.40135   0.67678   0.79996   0.00000  Uiso   1.00
H36    H     0.82852   0.37575   0.66228   0.00000  Uiso   1.00
H37    H     0.36590   0.94510   0.89191   0.00000  Uiso   1.00
O38    O     0.48535   0.83348   0.88300   0.00000  Uiso   1.00
O39    O     0.73383   0.43851   0.70237   0.00000  Uiso   1.00
O40    O     0.43886   0.87352   0.00364   0.00000  Uiso   1.00
N41    N     0.42013   0.73018   0.91940   0.00000  Uiso   1.00
N42    N     0.88457   0.44875   0.79067   0.00000  Uiso   1.00
N43    N     0.38695   0.04612   0.00535   0.00000  Uiso   1.00
N44    N     0.39777   0.67713   0.83514   0.00000  Uiso   1.00
N45    N     0.86221   0.39570   0.70641   0.00000  Uiso   1.00
N46    N     0.36460   0.99307   0.92109   0.00000  Uiso   1.00
C47    C     0.73268   0.19981   0.41201   0.00000  Uiso   1.00
C48    C     0.77771   0.27559   0.39295   0.00000  Uiso   1.00
C49    C     0.82883   0.36778   0.42426   0.00000  Uiso   1.00
C50    C     0.86424   0.42625   0.39934   0.00000  Uiso   1.00
C51    C     0.93643   0.54892   0.37799   0.00000  Uiso   1.00
C52    C     0.63101   0.19639   0.35834   0.00000  Uiso   1.00
C53    C     0.55880   0.22196   0.36055   0.00000  Uiso   1.00
C54    C     0.47073   0.21374   0.30649   0.00000  Uiso   1.00
C55    C     0.31518   0.21335   0.23141   0.00000  Uiso   1.00
C56    C     0.77009   0.08629   0.41624   0.00000  Uiso   1.00
C57    C     0.81480   0.01927   0.46714   0.00000  Uiso   1.00
C58    C     0.84380   0.91834   0.46182   0.00000  Uiso   1.00
C59    C     0.90420   0.74701   0.47665   0.00000  Uiso   1.00
C60    C     0.70465   0.13973   0.31207   0.00000  Uiso   1.00
C61    C     0.76248   0.24296   0.33867   0.00000  Uiso   1.00
C62    C     0.79783   0.30130   0.31369   0.00000  Uiso   1.00
C63    C     0.84899   0.39356   0.34496   0.00000  Uiso   1.00
C64    C     0.61579   0.16375   0.30405   0.00000  Uiso   1.00
C65    C     0.52780   0.15548   0.24998   0.00000  Uiso   1.00
C66    C     0.45548   0.18104   0.25211   0.00000  Uiso   1.00
C67    C     0.75488   0.05365   0.36196   0.00000  Uiso   1.00
C68    C     0.78381   0.95280   0.35656   0.00000  Uiso   1.00
C69    C     0.82856   0.88565   0.40744   0.00000  Uiso   1.00
H70    H     0.74452   0.22522   0.45427   0.00000  Uiso   1.00
H71    H     0.84058   0.39302   0.46627   0.00000  Uiso   1.00
H72    H     0.57060   0.24720   0.40257   0.00000  Uiso   1.00
H73    H     0.82657   0.04456   0.50914   0.00000  Uiso   1.00
H74    H     0.94035   0.56468   0.45563   0.00000  Uiso   1.00
H75    H     0.37108   0.25719   0.32131   0.00000  Uiso   1.00
H76    H     0.91083   0.82986   0.54603   0.00000  Uiso   1.00
H77    H     0.69280   0.11431   0.26980   0.00000  Uiso   1.00
H78    H     0.78604   0.27603   0.27168   0.00000  Uiso   1.00
H79    H     0.51605   0.13022   0.20798   0.00000  Uiso   1.00
H80    H     0.77202   0.92757   0.31455   0.00000  Uiso   1.00
H81    H     0.89607   0.46973   0.29769   0.00000  Uiso   1.00
H82    H     0.32680   0.16224   0.16337   0.00000  Uiso   1.00
H83    H     0.86655   0.73491   0.38809   0.00000  Uiso   1.00
O84    O     0.98045   0.62560   0.38121   0.00000  Uiso   1.00
O85    O     0.23359   0.22217   0.20500   0.00000  Uiso   1.00
O86    O     0.94173   0.66153   0.49983   0.00000  Uiso   1.00
N87    N     0.91715   0.52013   0.41820   0.00000  Uiso   1.00
N88    N     0.38491   0.23266   0.29263   0.00000  Uiso   1.00
N89    N     0.88952   0.83313   0.50272   0.00000  Uiso   1.00
N90    N     0.89333   0.46903   0.33322   0.00000  Uiso   1.00
N91    N     0.36109   0.18157   0.20764   0.00000  Uiso   1.00
N92    N     0.86569   0.78204   0.41773   0.00000  Uiso   1.00
C93    C     0.76743   0.91303   0.58743   0.00000  Uiso   1.00
C94    C     0.72119   0.98746   0.60613   0.00000  Uiso   1.00
C95    C     0.66987   0.07960   0.57493   0.00000  Uiso   1.00
C96    C     0.63329   0.13674   0.59948   0.00000  Uiso   1.00
C97    C     0.55936   0.25750   0.62035   0.00000  Uiso   1.00
C98    C     0.86880   0.90992   0.64162   0.00000  Uiso   1.00
C99    C     0.94158   0.93684   0.64024   0.00000  Uiso   1.00
C100   C     0.02926   0.92868   0.69466   0.00000  Uiso   1.00
C101   C     0.18449   0.92897   0.77061   0.00000  Uiso   1.00
C102   C     0.73033   0.79896   0.58245   0.00000  Uiso   1.00
C103   C     0.68670   0.73258   0.53132   0.00000  Uiso   1.00
C104   C     0.65782   0.63099   0.53593   0.00000  Uiso   1.00
C105   C     0.59806   0.45902   0.52001   0.00000  Uiso   1.00
C106   C     0.79373   0.85064   0.68652   0.00000  Uiso   1.00
C107   C     0.73548   0.95357   0.65996   0.00000  Uiso   1.00
C108   C     0.69896   0.01058   0.68456   0.00000  Uiso   1.00
C109   C     0.64760   0.10279   0.65340   0.00000  Uiso   1.00
C110   C     0.88308   0.87603   0.69544   0.00000  Uiso   1.00
C111   C     0.97067   0.86782   0.74987   0.00000  Uiso   1.00
C112   C     0.04357   0.89474   0.74858   0.00000  Uiso   1.00
C113   C     0.74461   0.76508   0.63627   0.00000  Uiso   1.00
C114   C     0.71580   0.66357   0.64096   0.00000  Uiso   1.00
C115   C     0.67213   0.59705   0.58985   0.00000  Uiso   1.00
H116   H     0.75631   0.93941   0.54553   0.00000  Uiso   1.00
H117   H     0.65884   0.10580   0.53328   0.00000  Uiso   1.00
H118   H     0.93050   0.96305   0.59858   0.00000  Uiso   1.00
H119   H     0.67566   0.75883   0.48968   0.00000  Uiso   1.00
H120   H     0.55710   0.27536   0.54345   0.00000  Uiso   1.00
H121   H     0.12992   0.97433   0.68114   0.00000  Uiso   1.00
H122   H     0.59254   0.54368   0.45150   0.00000  Uiso   1.00
H123   H     0.80485   0.82426   0.72842   0.00000  Uiso   1.00
H124   H     0.71003   0.98434   0.72621   0.00000  Uiso   1.00
H125   H     0.98170   0.84159   0.79151   0.00000  Uiso   1.00
H126   H     0.72686   0.63737   0.68261   0.00000  Uiso   1.00
H127   H     0.59865   0.17678   0.70004   0.00000  Uiso   1.00
H128   H     0.17148   0.87575   0.83772   0.00000  Uiso   1.00
H129   H     0.63410   0.44510   0.60809   0.00000  Uiso   1.00
O130   O     0.51465   0.33348   0.61700   0.00000  Uiso   1.00
O131   O     0.26617   0.93851   0.79763   0.00000  Uiso   1.00
O132   O     0.56114   0.37352   0.49636   0.00000  Uiso   1.00
N133   N     0.57987   0.23018   0.58060   0.00000  Uiso   1.00
N134   N     0.11543   0.94875   0.70933   0.00000  Uiso   1.00
N135   N     0.61305   0.54612   0.49465   0.00000  Uiso   1.00
N136   N     0.60223   0.17713   0.66486   0.00000  Uiso   1.00
N137   N     0.13779   0.89570   0.79359   0.00000  Uiso   1.00
N138   N     0.63540   0.49307   0.57891   0.00000  Uiso   1.00
C139   C     0.26732   0.69981   0.08799   0.00000  Uiso   1.00
C140   C     0.22229   0.77559   0.10705   0.00000  Uiso   1.00
C141   C     0.17117   0.86778   0.07574   0.00000  Uiso   1.00
C142   C     0.13576   0.92625   0.10066   0.00000  Uiso   1.00
C143   C     0.06357   0.04892   0.12201   0.00000  Uiso   1.00
C144   C     0.36899   0.69639   0.14166   0.00000  Uiso   1.00
C145   C     0.44120   0.72196   0.13945   0.00000  Uiso   1.00
C146   C     0.52927   0.71374   0.19351   0.00000  Uiso   1.00
C147   C     0.68482   0.71335   0.26859   0.00000  Uiso   1.00
C148   C     0.22991   0.58629   0.08376   0.00000  Uiso   1.00
C149   C     0.18520   0.51927   0.03286   0.00000  Uiso   1.00
C150   C     0.15620   0.41834   0.03818   0.00000  Uiso   1.00
C151   C     0.09580   0.24701   0.02335   0.00000  Uiso   1.00
C152   C     0.29535   0.63973   0.18793   0.00000  Uiso   1.00
C153   C     0.23752   0.74296   0.16133   0.00000  Uiso   1.00
C154   C     0.20217   0.80130   0.18631   0.00000  Uiso   1.00
C155   C     0.15101   0.89356   0.15504   0.00000  Uiso   1.00
C156   C     0.38421   0.66375   0.19595   0.00000  Uiso   1.00
C157   C     0.47220   0.65548   0.25002   0.00000  Uiso   1.00
C158   C     0.54452   0.68104   0.24789   0.00000  Uiso   1.00
C159   C     0.24512   0.55365   0.13804   0.00000  Uiso   1.00
C160   C     0.21619   0.45280   0.14344   0.00000  Uiso   1.00
C161   C     0.17144   0.38565   0.09256   0.00000  Uiso   1.00
H162   H     0.25548   0.72522   0.04573   0.00000  Uiso   1.00
H163   H     0.15942   0.89302   0.03373   0.00000  Uiso   1.00
H164   H     0.42940   0.74720   0.09743   0.00000  Uiso   1.00
H165   H     0.17343   0.54456   0.99086   0.00000  Uiso   1.00
H166   H     0.05965   0.06468   0.04437   0.00000  Uiso   1.00
H167   H     0.62892   0.75719   0.17869   0.00000  Uiso   1.00
H168   H     0.08917   0.32986   0.95397   0.00000  Uiso   1.00
H169   H     0.30720   0.61431   0.23020   0.00000  Uiso   1.00
H170   H     0.21396   0.77603   0.22832   0.00000  Uiso   1.00
H171   H     0.48395   0.63022   0.29202   0.00000  Uiso   1.00
H172   H     0.22798   0.42757   0.18545   0.00000  Uiso   1.00
H173   H     0.10393   0.96973   0.20231   0.00000  Uiso   1.00
H174   H     0.67320   0.66224   0.33663   0.00000  Uiso   1.00
H175   H     0.13345   0.23491   0.11191   0.00000  Uiso   1.00
O176   O     0.01955   0.12560   0.11879   0.00000  Uiso   1.00
O177   O     0.76641   0.72217   0.29500   0.00000  Uiso   1.00
O178   O     0.05827   0.16153   0.00017   0.00000  Uiso   1.00
N179   N     0.08285   0.02013   0.08180   0.00000  Uiso   1.00
N180   N     0.61509   0.73266   0.20737   0.00000  Uiso   1.00
N181   N     0.11048   0.33313   0.99728   0.00000  Uiso   1.00
N182   N     0.10667   0.96903   0.16678   0.00000  Uiso   1.00
N183   N     0.63891   0.68157   0.29236   0.00000  Uiso   1.00
N184   N     0.13431   0.28204   0.08227   0.00000  Uiso   1.00
C185   C     0.76743   0.58697   0.08743   0.00000  Uiso   1.00
C186   C     0.72119   0.51254   0.10613   0.00000  Uiso   1.00
C187   C     0.66987   0.42040   0.07493   0.00000  Uiso   1.00
C188   C     0.63329   0.36326   0.09948   0.00000  Uiso   1.00
C189   C     0.55936   0.24250   0.12035   0.00000  Uiso   1.00
C190   C     0.86880   0.59008   0.14162   0.00000  Uiso   1.00
C191   C     0.94158   0.56316   0.14024   0.00000  Uiso   1.00
C192   C     0.02926   0.57132   0.19466   0.00000  Uiso   1.00
C193   C     0.18449   0.57103   0.27061   0.00000  Uiso   1.00
C194   C     0.73033   0.70104   0.08245   0.00000  Uiso   1.00
C195   C     0.68670   0.76742   0.03132   0.00000  Uiso   1.00
C196   C     0.65782   0.86901   0.03593   0.00000  Uiso   1.00
C197   C     0.59806   0.04098   0.02001   0.00000  Uiso   1.00
C198   C     0.79373   0.64936   0.18652   0.00000  Uiso   1.00
C199   C     0.73548   0.54643   0.15996   0.00000  Uiso   1.00
C200   C     0.69896   0.48942   0.18456   0.00000  Uiso   1.00
C201   C     0.64760   0.39721   0.15340   0.00000  Uiso   1.00
C202   C     0.88308   0.62397   0.19544   0.00000  Uiso   1.00
C203   C     0.97067   0.63218   0.24987   0.00000  Uiso   1.00
C204   C     0.04357   0.60526   0.24858   0.00000  Uiso   1.00
C205   C     0.74461   0.73492   0.13627   0.00000  Uiso   1.00
C206   C     0.71580   0.83643   0.14096   0.00000  Uiso   1.00
C207   C     0.67213   0.90295   0.08985   0.00000  Uiso   1.00
H208   H     0.75631   0.56059   0.04553   0.00000  Uiso   1.00
H209   H     0.65884   0.39420   0.03328   0.00000  Uiso   1.00
H210   H     0.93050   0.53695   0.09858   0.00000  Uiso   1.00
H211   H     0.67566   0.74117   0.98968   0.00000  Uiso   1.00
H212   H     0.55710   0.22464   0.04345   0.00000  Uiso   1.00
H213   H     0.12992   0.52567   0.18114   0.00000  Uiso   1.00
H214   H     0.59254   0.95632   0.95150   0.00000  Uiso   1.00
H215   H     0.80485   0.67574   0.22842   0.00000  Uiso   1.00
H216   H     0.71003   0.51566   0.22621   0.00000  Uiso   1.00
H217   H     0.98170   0.65841   0.29151   0.00000  Uiso   1.00
H218   H     0.72686   0.86263   0.18261   0.00000  Uiso   1.00
H219   H     0.59865   0.32322   0.20004   0.00000  Uiso   1.00
H220   H     0.17148   0.62425   0.33772   0.00000  Uiso   1.00
H221   H     0.63410   0.05490   0.10809   0.00000  Uiso   1.00
O222   O     0.51465   0.16652   0.11700   0.00000  Uiso   1.00
O223   O     0.26617   0.56149   0.29763   0.00000  Uiso   1.00
O224   O     0.56114   0.12648   0.99636   0.00000  Uiso   1.00
N225   N     0.57987   0.26982   0.08060   0.00000  Uiso   1.00
N226   N     0.11543   0.55125   0.20933   0.00000  Uiso   1.00
N227   N     0.61305   0.95388   0.99465   0.00000  Uiso   1.00
N228   N     0.60223   0.32287   0.16486   0.00000  Uiso   1.00
N229   N     0.13779   0.60430   0.29359   0.00000  Uiso   1.00
N230   N     0.63540   0.00693   0.07891   0.00000  Uiso   1.00
C231   C     0.26732   0.80019   0.58799   0.00000  Uiso   1.00
C232   C     0.22229   0.72441   0.60705   0.00000  Uiso   1.00
C233   C     0.17117   0.63222   0.57574   0.00000  Uiso   1.00
C234   C     0.13576   0.57375   0.60066   0.00000  Uiso   1.00
C235   C     0.06357   0.45108   0.62201   0.00000  Uiso   1.00
C236   C     0.36899   0.80361   0.64166   0.00000  Uiso   1.00
C237   C     0.44120   0.77804   0.63945   0.00000  Uiso   1.00
C238   C     0.52927   0.78626   0.69351   0.00000  Uiso   1.00
C239   C     0.68482   0.78665   0.76859   0.00000  Uiso   1.00
C240   C     0.22991   0.91371   0.58376   0.00000  Uiso   1.00
C241   C     0.18520   0.98073   0.53286   0.00000  Uiso   1.00
C242   C     0.15620   0.08166   0.53818   0.00000  Uiso   1.00
C243   C     0.09580   0.25299   0.52335   0.00000  Uiso   1.00
C244   C     0.29535   0.86027   0.68793   0.00000  Uiso   1.00
C245   C     0.23752   0.75704   0.66133   0.00000  Uiso   1.00
C246   C     0.20217   0.69870   0.68631   0.00000  Uiso   1.00
C247   C     0.15101   0.60644   0.65504   0.00000  Uiso   1.00
C248   C     0.38421   0.83625   0.69595   0.00000  Uiso   1.00
C249   C     0.47220   0.84452   0.75002   0.00000  Uiso   1.00
C250   C     0.54452   0.81896   0.74789   0.00000  Uiso   1.00
C251   C     0.24512   0.94635   0.63804   0.00000  Uiso   1.00
C252   C     0.21619   0.04720   0.64344   0.00000  Uiso   1.00
C253   C     0.17144   0.11435   0.59256   0.00000  Uiso   1.00
H254   H     0.25548   0.77478   0.54573   0.00000  Uiso   1.00
H255   H     0.15942   0.60698   0.53373   0.00000  Uiso   1.00
H256   H     0.42940   0.75280   0.59743   0.00000  Uiso   1.00
H257   H     0.17343   0.95544   0.49086   0.00000  Uiso   1.00
H258   H     0.05965   0.43532   0.54437   0.00000  Uiso   1.00
H259   H     0.62892   0.74281   0.67869   0.00000  Uiso   1.00
H260   H     0.08917   0.17014   0.45397   0.00000  Uiso   1.00
H261   H     0.30720   0.88569   0.73020   0.00000  Uiso   1.00
H262   H     0.21396   0.72397   0.72832   0.00000  Uiso   1.00
H263   H     0.48395   0.86978   0.79202   0.00000  Uiso   1.00
H264   H     0.22798   0.07243   0.68545   0.00000  Uiso   1.00
H265   H     0.10393   0.53027   0.70231   0.00000  Uiso   1.00
H266   H     0.67320   0.83776   0.83663   0.00000  Uiso   1.00
H267   H     0.13345   0.26509   0.61191   0.00000  Uiso   1.00
O268   O     0.01955   0.37440   0.61879   0.00000  Uiso   1.00
O269   O     0.76641   0.77783   0.79500   0.00000  Uiso   1.00
O270   O     0.05827   0.33847   0.50017   0.00000  Uiso   1.00
N271   N     0.08285   0.47987   0.58180   0.00000  Uiso   1.00
N272   N     0.61509   0.76734   0.70737   0.00000  Uiso   1.00
N273   N     0.11048   0.16687   0.49728   0.00000  Uiso   1.00
N274   N     0.10667   0.53097   0.66678   0.00000  Uiso   1.00
N275   N     0.63891   0.81843   0.79236   0.00000  Uiso   1.00
N276   N     0.13431   0.21796   0.58227   0.00000  Uiso   1.00
C277   C     0.23257   0.08697   0.41257   0.00000  Uiso   1.00
C278   C     0.27881   0.01254   0.39387   0.00000  Uiso   1.00
C279   C     0.33013   0.92040   0.42507   0.00000  Uiso   1.00
C280   C     0.36671   0.86326   0.40052   0.00000  Uiso   1.00
C281   C     0.44064   0.74250   0.37965   0.00000  Uiso   1.00
C282   C     0.13120   0.09008   0.35838   0.00000  Uiso   1.00
C283   C     0.05842   0.06316   0.35976   0.00000  Uiso   1.00
C284   C     0.97074   0.07132   0.30534   0.00000  Uiso   1.00
C285   C     0.81551   0.07103   0.22939   0.00000  Uiso   1.00
C286   C     0.26967   0.20104   0.41755   0.00000  Uiso   1.00
C287   C     0.31330   0.26742   0.46868   0.00000  Uiso   1.00
C288   C     0.34218   0.36901   0.46407   0.00000  Uiso   1.00
C289   C     0.40194   0.54098   0.47999   0.00000  Uiso   1.00
C290   C     0.20627   0.14936   0.31348   0.00000  Uiso   1.00
C291   C     0.26452   0.04643   0.34004   0.00000  Uiso   1.00
C292   C     0.30104   0.98942   0.31544   0.00000  Uiso   1.00
C293   C     0.35240   0.89721   0.34660   0.00000  Uiso   1.00
C294   C     0.11692   0.12397   0.30456   0.00000  Uiso   1.00
C295   C     0.02933   0.13218   0.25013   0.00000  Uiso   1.00
C296   C     0.95643   0.10526   0.25142   0.00000  Uiso   1.00
C297   C     0.25539   0.23492   0.36373   0.00000  Uiso   1.00
C298   C     0.28420   0.33643   0.35904   0.00000  Uiso   1.00
C299   C     0.32787   0.40295   0.41015   0.00000  Uiso   1.00
H300   H     0.24369   0.06059   0.45447   0.00000  Uiso   1.00
H301   H     0.34116   0.89420   0.46672   0.00000  Uiso   1.00
H302   H     0.06950   0.03695   0.40142   0.00000  Uiso   1.00
H303   H     0.32434   0.24117   0.51032   0.00000  Uiso   1.00
H304   H     0.44290   0.72464   0.45655   0.00000  Uiso   1.00
H305   H     0.87008   0.02567   0.31886   0.00000  Uiso   1.00
H306   H     0.40746   0.45632   0.54850   0.00000  Uiso   1.00
H307   H     0.19515   0.17574   0.27158   0.00000  Uiso   1.00
H308   H     0.28997   0.01566   0.27379   0.00000  Uiso   1.00
H309   H     0.01830   0.15841   0.20849   0.00000  Uiso   1.00
H310   H     0.27314   0.36263   0.31739   0.00000  Uiso   1.00
H311   H     0.40135   0.82322   0.29996   0.00000  Uiso   1.00
H312   H     0.82852   0.12425   0.16228   0.00000  Uiso   1.00
H313   H     0.36590   0.55490   0.39191   0.00000  Uiso   1.00
O314   O     0.48535   0.66652   0.38300   0.00000  Uiso   1.00
O315   O     0.73383   0.06149   0.20237   0.00000  Uiso   1.00
O316   O     0.43886   0.62648   0.50364   0.00000  Uiso   1.00
N317   N     0.42013   0.76982   0.41940   0.00000  Uiso   1.00
N318   N     0.88457   0.05125   0.29067   0.00000  Uiso   1.00
N319   N     0.38695   0.45388   0.50535   0.00000  Uiso   1.00
N320   N     0.39777   0.82287   0.33514   0.00000  Uiso   1.00
N321   N     0.86221   0.10430   0.20641   0.00000  Uiso   1.00
N322   N     0.36460   0.50693   0.42109   0.00000  Uiso   1.00
C323   C     0.73268   0.30019   0.91201   0.00000  Uiso   1.00
C324   C     0.77771   0.22441   0.89295   0.00000  Uiso   1.00
C325   C     0.82883   0.13222   0.92426   0.00000  Uiso   1.00
C326   C     0.86424   0.07375   0.89934   0.00000  Uiso   1.00
C327   C     0.93643   0.95108   0.87799   0.00000  Uiso   1.00
C328   C     0.63101   0.30361   0.85834   0.00000  Uiso   1.00
C329   C     0.55880   0.27804   0.86055   0.00000  Uiso   1.00
C330   C     0.47073   0.28626   0.80649   0.00000  Uiso   1.00
C331   C     0.31518   0.28665   0.73141   0.00000  Uiso   1.00
C332   C     0.77009   0.41371   0.91624   0.00000  Uiso   1.00
C333   C     0.81480   0.48073   0.96714   0.00000  Uiso   1.00
C334   C     0.84380   0.58166   0.96182   0.00000  Uiso   1.00
C335   C     0.90420   0.75299   0.97665   0.00000  Uiso   1.00
C336   C     0.70465   0.36027   0.81207   0.00000  Uiso   1.00
C337   C     0.76248   0.25704   0.83867   0.00000  Uiso   1.00
C338   C     0.79783   0.19870   0.81369   0.00000  Uiso   1.00
C339   C     0.84899   0.10644   0.84496   0.00000  Uiso   1.00
C340   C     0.61579   0.33625   0.80405   0.00000  Uiso   1.00
C341   C     0.52780   0.34452   0.74998   0.00000  Uiso   1.00
C342   C     0.45548   0.31896   0.75211   0.00000  Uiso   1.00
C343   C     0.75488   0.44635   0.86196   0.00000  Uiso   1.00
C344   C     0.78381   0.54720   0.85656   0.00000  Uiso   1.00
C345   C     0.82856   0.61435   0.90744   0.00000  Uiso   1.00
H346   H     0.74452   0.27478   0.95427   0.00000  Uiso   1.00
H347   H     0.84058   0.10698   0.96627   0.00000  Uiso   1.00
H348   H     0.57060   0.25280   0.90257   0.00000  Uiso   1.00
H349   H     0.82657   0.45544   0.00914   0.00000  Uiso   1.00
H350   H     0.94035   0.93532   0.95563   0.00000  Uiso   1.00
H351   H     0.37108   0.24281   0.82131   0.00000  Uiso   1.00
H352   H     0.91083   0.67014   0.04603   0.00000  Uiso   1.00
H353   H     0.69280   0.38569   0.76980   0.00000  Uiso   1.00
H354   H     0.78604   0.22397   0.77168   0.00000  Uiso   1.00
H355   H     0.51605   0.36978   0.70798   0.00000  Uiso   1.00
H356   H     0.77202   0.57243   0.81455   0.00000  Uiso   1.00
H357   H     0.89607   0.03027   0.79769   0.00000  Uiso   1.00
H358   H     0.32680   0.33776   0.66337   0.00000  Uiso   1.00
H359   H     0.86655   0.76509   0.88809   0.00000  Uiso   1.00
O360   O     0.98045   0.87440   0.88121   0.00000  Uiso   1.00
O361   O     0.23359   0.27783   0.70500   0.00000  Uiso   1.00
O362   O     0.94173   0.83847   0.99983   0.00000  Uiso   1.00
N363   N     0.91715   0.97987   0.91820   0.00000  Uiso   1.00
N364   N     0.38491   0.26734   0.79263   0.00000  Uiso   1.00
N365   N     0.88952   0.66687   0.00272   0.00000  Uiso   1.00
N366   N     0.89333   0.03097   0.83322   0.00000  Uiso   1.00
N367   N     0.36109   0.31843   0.70764   0.00000  Uiso   1.00
N368   N     0.86569   0.71796   0.91773   0.00000  Uiso   1.00
