data_job_05552
_audit_creation_date              2018-12-19
_audit_creation_method            'Materials Studio'
_symmetry_space_group_name_H-M    'P1'
_symmetry_Int_Tables_number       1
_symmetry_cell_setting            triclinic
loop_
_symmetry_equiv_pos_as_xyz
  x,y,z
_cell_length_a                    12.4595
_cell_length_b                    29.5429
_cell_length_c                    15.2408
_cell_angle_alpha                 90.0000
_cell_angle_beta                  90.0000
_cell_angle_gamma                 90.0000
loop_
_atom_site_label
_atom_site_type_symbol
_atom_site_fract_x
_atom_site_fract_y
_atom_site_fract_z
_atom_site_U_iso_or_equiv
_atom_site_adp_type
_atom_site_occupancy
C1     C     0.82675   0.89506   0.00419   0.00000  Uiso   1.00
C2     C     0.83418   0.93056   0.93182   0.00000  Uiso   1.00
C3     C     0.81364   0.97646   0.94149   0.00000  Uiso   1.00
C4     C     0.82490   0.00334   0.86734   0.00000  Uiso   1.00
C5     C     0.83172   0.06127   0.76725   0.00000  Uiso   1.00
C6     C     0.74847   0.85925   0.97103   0.00000  Uiso   1.00
C7     C     0.65587   0.84519   0.01367   0.00000  Uiso   1.00
C8     C     0.59500   0.81204   0.97253   0.00000  Uiso   1.00
C9     C     0.46880   0.75924   0.93334   0.00000  Uiso   1.00
C10    C     0.93632   0.87214   0.00769   0.00000  Uiso   1.00
C11    C     0.00166   0.86890   0.08117   0.00000  Uiso   1.00
C12    C     0.09893   0.84659   0.07090   0.00000  Uiso   1.00
C13    C     0.26440   0.81379   0.08865   0.00000  Uiso   1.00
C14    C     0.88330   0.86118   0.85530   0.00000  Uiso   1.00
C15    C     0.86490   0.91216   0.85095   0.00000  Uiso   1.00
C16    C     0.87620   0.93898   0.77676   0.00000  Uiso   1.00
C17    C     0.85567   0.98491   0.78632   0.00000  Uiso   1.00
C18    C     0.77919   0.84085   0.89016   0.00000  Uiso   1.00
C19    C     0.71844   0.80771   0.84894   0.00000  Uiso   1.00
C20    C     0.62577   0.79361   0.89151   0.00000  Uiso   1.00
C21    C     0.96704   0.85374   0.92682   0.00000  Uiso   1.00
C22    C     0.06423   0.83142   0.91644   0.00000  Uiso   1.00
C23    C     0.12970   0.82815   0.98989   0.00000  Uiso   1.00
H24    H     0.80283   0.90938   0.06715   0.00000  Uiso   1.00
H25    H     0.78986   0.99069   0.00409   0.00000  Uiso   1.00
H26    H     0.63213   0.85944   0.07626   0.00000  Uiso   1.00
H27    H     0.97787   0.88315   0.14374   0.00000  Uiso   1.00
H28    H     0.78898   0.07271   0.89849   0.00000  Uiso   1.00
H29    H     0.45643   0.79595   0.05069   0.00000  Uiso   1.00
H30    H     0.18547   0.84594   0.19300   0.00000  Uiso   1.00
H31    H     0.90721   0.84685   0.79233   0.00000  Uiso   1.00
H32    H     0.89997   0.92473   0.71418   0.00000  Uiso   1.00
H33    H     0.74223   0.79348   0.78636   0.00000  Uiso   1.00
H34    H     0.08797   0.81718   0.85385   0.00000  Uiso   1.00
H35    H     0.87835   0.01918   0.66320   0.00000  Uiso   1.00
H36    H     0.54579   0.74241   0.81540   0.00000  Uiso   1.00
H37    H     0.27484   0.79241   0.95770   0.00000  Uiso   1.00
O38    O     0.82698   0.09830   0.73439   0.00000  Uiso   1.00
O39    O     0.39069   0.73520   0.93407   0.00000  Uiso   1.00
O40    O     0.34718   0.80079   0.12078   0.00000  Uiso   1.00
N41    N     0.81103   0.04943   0.85384   0.00000  Uiso   1.00
N42    N     0.50010   0.79068   0.99613   0.00000  Uiso   1.00
N43    N     0.18168   0.83741   0.12919   0.00000  Uiso   1.00
N44    N     0.85912   0.02062   0.72723   0.00000  Uiso   1.00
N45    N     0.54819   0.76187   0.86952   0.00000  Uiso   1.00
N46    N     0.22977   0.80860   0.00258   0.00000  Uiso   1.00
C47    C     0.67325   0.60494   0.50419   0.00000  Uiso   1.00
C48    C     0.66582   0.56944   0.43182   0.00000  Uiso   1.00
C49    C     0.68636   0.52354   0.44149   0.00000  Uiso   1.00
C50    C     0.67510   0.49666   0.36734   0.00000  Uiso   1.00
C51    C     0.66828   0.43873   0.26725   0.00000  Uiso   1.00
C52    C     0.75153   0.64075   0.47103   0.00000  Uiso   1.00
C53    C     0.84413   0.65481   0.51367   0.00000  Uiso   1.00
C54    C     0.90500   0.68796   0.47253   0.00000  Uiso   1.00
C55    C     0.03120   0.74076   0.43334   0.00000  Uiso   1.00
C56    C     0.56368   0.62786   0.50769   0.00000  Uiso   1.00
C57    C     0.49834   0.63110   0.58117   0.00000  Uiso   1.00
C58    C     0.40107   0.65341   0.57090   0.00000  Uiso   1.00
C59    C     0.23560   0.68621   0.58865   0.00000  Uiso   1.00
C60    C     0.61670   0.63882   0.35530   0.00000  Uiso   1.00
C61    C     0.63510   0.58784   0.35095   0.00000  Uiso   1.00
C62    C     0.62380   0.56102   0.27676   0.00000  Uiso   1.00
C63    C     0.64433   0.51509   0.28632   0.00000  Uiso   1.00
C64    C     0.72081   0.65915   0.39016   0.00000  Uiso   1.00
C65    C     0.78156   0.69229   0.34894   0.00000  Uiso   1.00
C66    C     0.87423   0.70639   0.39151   0.00000  Uiso   1.00
C67    C     0.53296   0.64626   0.42682   0.00000  Uiso   1.00
C68    C     0.43577   0.66858   0.41644   0.00000  Uiso   1.00
C69    C     0.37030   0.67185   0.48989   0.00000  Uiso   1.00
H70    H     0.69717   0.59062   0.56715   0.00000  Uiso   1.00
H71    H     0.71014   0.50931   0.50409   0.00000  Uiso   1.00
H72    H     0.86787   0.64056   0.57626   0.00000  Uiso   1.00
H73    H     0.52213   0.61685   0.64374   0.00000  Uiso   1.00
H74    H     0.71102   0.42729   0.39849   0.00000  Uiso   1.00
H75    H     0.04357   0.70405   0.55069   0.00000  Uiso   1.00
H76    H     0.31453   0.65406   0.69300   0.00000  Uiso   1.00
H77    H     0.59279   0.65315   0.29233   0.00000  Uiso   1.00
H78    H     0.60003   0.57527   0.21418   0.00000  Uiso   1.00
H79    H     0.75777   0.70652   0.28636   0.00000  Uiso   1.00
H80    H     0.41203   0.68282   0.35385   0.00000  Uiso   1.00
H81    H     0.62165   0.48082   0.16320   0.00000  Uiso   1.00
H82    H     0.95421   0.75759   0.31540   0.00000  Uiso   1.00
H83    H     0.22516   0.70759   0.45770   0.00000  Uiso   1.00
O84    O     0.67302   0.40170   0.23439   0.00000  Uiso   1.00
O85    O     0.10931   0.76480   0.43407   0.00000  Uiso   1.00
O86    O     0.15282   0.69921   0.62078   0.00000  Uiso   1.00
N87    N     0.68897   0.45057   0.35384   0.00000  Uiso   1.00
N88    N     0.99990   0.70932   0.49613   0.00000  Uiso   1.00
N89    N     0.31832   0.66259   0.62919   0.00000  Uiso   1.00
N90    N     0.64088   0.47938   0.22723   0.00000  Uiso   1.00
N91    N     0.95181   0.73813   0.36952   0.00000  Uiso   1.00
N92    N     0.27023   0.69140   0.50258   0.00000  Uiso   1.00
C93    C     0.17325   0.89506   0.49581   0.00000  Uiso   1.00
C94    C     0.16582   0.93056   0.56818   0.00000  Uiso   1.00
C95    C     0.18636   0.97646   0.55851   0.00000  Uiso   1.00
C96    C     0.17510   0.00334   0.63266   0.00000  Uiso   1.00
C97    C     0.16828   0.06127   0.73275   0.00000  Uiso   1.00
C98    C     0.25153   0.85925   0.52897   0.00000  Uiso   1.00
C99    C     0.34413   0.84519   0.48633   0.00000  Uiso   1.00
C100   C     0.40500   0.81204   0.52747   0.00000  Uiso   1.00
C101   C     0.53120   0.75924   0.56666   0.00000  Uiso   1.00
C102   C     0.06368   0.87214   0.49231   0.00000  Uiso   1.00
C103   C     0.99834   0.86890   0.41883   0.00000  Uiso   1.00
C104   C     0.90107   0.84659   0.42910   0.00000  Uiso   1.00
C105   C     0.73560   0.81379   0.41135   0.00000  Uiso   1.00
C106   C     0.11670   0.86118   0.64470   0.00000  Uiso   1.00
C107   C     0.13510   0.91216   0.64905   0.00000  Uiso   1.00
C108   C     0.12380   0.93898   0.72324   0.00000  Uiso   1.00
C109   C     0.14433   0.98491   0.71368   0.00000  Uiso   1.00
C110   C     0.22081   0.84085   0.60984   0.00000  Uiso   1.00
C111   C     0.28156   0.80771   0.65106   0.00000  Uiso   1.00
C112   C     0.37423   0.79361   0.60849   0.00000  Uiso   1.00
C113   C     0.03296   0.85374   0.57318   0.00000  Uiso   1.00
C114   C     0.93577   0.83142   0.58356   0.00000  Uiso   1.00
C115   C     0.87030   0.82815   0.51011   0.00000  Uiso   1.00
H116   H     0.19717   0.90938   0.43285   0.00000  Uiso   1.00
H117   H     0.21014   0.99069   0.49591   0.00000  Uiso   1.00
H118   H     0.36787   0.85944   0.42374   0.00000  Uiso   1.00
H119   H     0.02213   0.88315   0.35626   0.00000  Uiso   1.00
H120   H     0.21102   0.07271   0.60151   0.00000  Uiso   1.00
H121   H     0.54357   0.79595   0.44931   0.00000  Uiso   1.00
H122   H     0.81453   0.84594   0.30700   0.00000  Uiso   1.00
H123   H     0.09279   0.84685   0.70767   0.00000  Uiso   1.00
H124   H     0.10003   0.92473   0.78582   0.00000  Uiso   1.00
H125   H     0.25777   0.79348   0.71364   0.00000  Uiso   1.00
H126   H     0.91203   0.81718   0.64615   0.00000  Uiso   1.00
H127   H     0.12165   0.01918   0.83680   0.00000  Uiso   1.00
H128   H     0.45421   0.74241   0.68460   0.00000  Uiso   1.00
H129   H     0.72516   0.79241   0.54230   0.00000  Uiso   1.00
O130   O     0.17302   0.09830   0.76561   0.00000  Uiso   1.00
O131   O     0.60931   0.73520   0.56593   0.00000  Uiso   1.00
O132   O     0.65282   0.80079   0.37922   0.00000  Uiso   1.00
N133   N     0.18897   0.04943   0.64616   0.00000  Uiso   1.00
N134   N     0.49990   0.79068   0.50387   0.00000  Uiso   1.00
N135   N     0.81832   0.83741   0.37081   0.00000  Uiso   1.00
N136   N     0.14088   0.02062   0.77277   0.00000  Uiso   1.00
N137   N     0.45181   0.76187   0.63048   0.00000  Uiso   1.00
N138   N     0.77023   0.80860   0.49742   0.00000  Uiso   1.00
C139   C     0.32675   0.60494   0.99581   0.00000  Uiso   1.00
C140   C     0.33418   0.56944   0.06818   0.00000  Uiso   1.00
C141   C     0.31364   0.52354   0.05851   0.00000  Uiso   1.00
C142   C     0.32490   0.49666   0.13266   0.00000  Uiso   1.00
C143   C     0.33172   0.43873   0.23275   0.00000  Uiso   1.00
C144   C     0.24847   0.64075   0.02897   0.00000  Uiso   1.00
C145   C     0.15587   0.65481   0.98633   0.00000  Uiso   1.00
C146   C     0.09500   0.68796   0.02747   0.00000  Uiso   1.00
C147   C     0.96880   0.74076   0.06666   0.00000  Uiso   1.00
C148   C     0.43632   0.62786   0.99231   0.00000  Uiso   1.00
C149   C     0.50166   0.63110   0.91883   0.00000  Uiso   1.00
C150   C     0.59893   0.65341   0.92910   0.00000  Uiso   1.00
C151   C     0.76440   0.68621   0.91135   0.00000  Uiso   1.00
C152   C     0.38330   0.63882   0.14470   0.00000  Uiso   1.00
C153   C     0.36490   0.58784   0.14905   0.00000  Uiso   1.00
C154   C     0.37620   0.56102   0.22324   0.00000  Uiso   1.00
C155   C     0.35567   0.51509   0.21368   0.00000  Uiso   1.00
C156   C     0.27919   0.65915   0.10984   0.00000  Uiso   1.00
C157   C     0.21844   0.69229   0.15106   0.00000  Uiso   1.00
C158   C     0.12577   0.70639   0.10849   0.00000  Uiso   1.00
C159   C     0.46704   0.64626   0.07318   0.00000  Uiso   1.00
C160   C     0.56423   0.66858   0.08356   0.00000  Uiso   1.00
C161   C     0.62970   0.67185   0.01011   0.00000  Uiso   1.00
H162   H     0.30283   0.59062   0.93285   0.00000  Uiso   1.00
H163   H     0.28986   0.50931   0.99591   0.00000  Uiso   1.00
H164   H     0.13213   0.64056   0.92374   0.00000  Uiso   1.00
H165   H     0.47787   0.61685   0.85626   0.00000  Uiso   1.00
H166   H     0.28898   0.42729   0.10151   0.00000  Uiso   1.00
H167   H     0.95643   0.70405   0.94931   0.00000  Uiso   1.00
H168   H     0.68547   0.65406   0.80700   0.00000  Uiso   1.00
H169   H     0.40721   0.65315   0.20767   0.00000  Uiso   1.00
H170   H     0.39997   0.57527   0.28582   0.00000  Uiso   1.00
H171   H     0.24223   0.70652   0.21364   0.00000  Uiso   1.00
H172   H     0.58797   0.68282   0.14615   0.00000  Uiso   1.00
H173   H     0.37835   0.48082   0.33680   0.00000  Uiso   1.00
H174   H     0.04579   0.75759   0.18460   0.00000  Uiso   1.00
H175   H     0.77484   0.70759   0.04230   0.00000  Uiso   1.00
O176   O     0.32698   0.40170   0.26561   0.00000  Uiso   1.00
O177   O     0.89069   0.76480   0.06593   0.00000  Uiso   1.00
O178   O     0.84718   0.69921   0.87922   0.00000  Uiso   1.00
N179   N     0.31103   0.45057   0.14616   0.00000  Uiso   1.00
N180   N     0.00010   0.70932   0.00387   0.00000  Uiso   1.00
N181   N     0.68168   0.66259   0.87081   0.00000  Uiso   1.00
N182   N     0.35912   0.47938   0.27277   0.00000  Uiso   1.00
N183   N     0.04819   0.73813   0.13048   0.00000  Uiso   1.00
N184   N     0.72977   0.69140   0.99742   0.00000  Uiso   1.00
C185   C     0.17325   0.10494   0.99581   0.00000  Uiso   1.00
C186   C     0.16582   0.06944   0.06818   0.00000  Uiso   1.00
C187   C     0.18636   0.02354   0.05851   0.00000  Uiso   1.00
C188   C     0.17510   0.99666   0.13266   0.00000  Uiso   1.00
C189   C     0.16828   0.93873   0.23275   0.00000  Uiso   1.00
C190   C     0.25153   0.14075   0.02897   0.00000  Uiso   1.00
C191   C     0.34413   0.15481   0.98633   0.00000  Uiso   1.00
C192   C     0.40500   0.18796   0.02747   0.00000  Uiso   1.00
C193   C     0.53120   0.24076   0.06666   0.00000  Uiso   1.00
C194   C     0.06368   0.12786   0.99231   0.00000  Uiso   1.00
C195   C     0.99834   0.13110   0.91883   0.00000  Uiso   1.00
C196   C     0.90107   0.15341   0.92910   0.00000  Uiso   1.00
C197   C     0.73560   0.18621   0.91135   0.00000  Uiso   1.00
C198   C     0.11670   0.13882   0.14470   0.00000  Uiso   1.00
C199   C     0.13510   0.08784   0.14905   0.00000  Uiso   1.00
C200   C     0.12380   0.06102   0.22324   0.00000  Uiso   1.00
C201   C     0.14433   0.01509   0.21368   0.00000  Uiso   1.00
C202   C     0.22081   0.15915   0.10984   0.00000  Uiso   1.00
C203   C     0.28156   0.19229   0.15106   0.00000  Uiso   1.00
C204   C     0.37423   0.20639   0.10849   0.00000  Uiso   1.00
C205   C     0.03296   0.14626   0.07318   0.00000  Uiso   1.00
C206   C     0.93577   0.16858   0.08356   0.00000  Uiso   1.00
C207   C     0.87030   0.17185   0.01011   0.00000  Uiso   1.00
H208   H     0.19717   0.09062   0.93285   0.00000  Uiso   1.00
H209   H     0.21014   0.00931   0.99591   0.00000  Uiso   1.00
H210   H     0.36787   0.14056   0.92374   0.00000  Uiso   1.00
H211   H     0.02213   0.11685   0.85626   0.00000  Uiso   1.00
H212   H     0.21102   0.92729   0.10151   0.00000  Uiso   1.00
H213   H     0.54357   0.20405   0.94931   0.00000  Uiso   1.00
H214   H     0.81453   0.15406   0.80700   0.00000  Uiso   1.00
H215   H     0.09279   0.15315   0.20767   0.00000  Uiso   1.00
H216   H     0.10003   0.07527   0.28582   0.00000  Uiso   1.00
H217   H     0.25777   0.20652   0.21364   0.00000  Uiso   1.00
H218   H     0.91203   0.18282   0.14615   0.00000  Uiso   1.00
H219   H     0.12165   0.98082   0.33680   0.00000  Uiso   1.00
H220   H     0.45421   0.25759   0.18460   0.00000  Uiso   1.00
H221   H     0.72516   0.20759   0.04230   0.00000  Uiso   1.00
O222   O     0.17302   0.90170   0.26561   0.00000  Uiso   1.00
O223   O     0.60931   0.26480   0.06593   0.00000  Uiso   1.00
O224   O     0.65282   0.19921   0.87922   0.00000  Uiso   1.00
N225   N     0.18897   0.95057   0.14616   0.00000  Uiso   1.00
N226   N     0.49990   0.20932   0.00387   0.00000  Uiso   1.00
N227   N     0.81832   0.16259   0.87081   0.00000  Uiso   1.00
N228   N     0.14088   0.97938   0.27277   0.00000  Uiso   1.00
N229   N     0.45181   0.23813   0.13048   0.00000  Uiso   1.00
N230   N     0.77023   0.19140   0.99742   0.00000  Uiso   1.00
C231   C     0.32675   0.39506   0.49581   0.00000  Uiso   1.00
C232   C     0.33418   0.43056   0.56818   0.00000  Uiso   1.00
C233   C     0.31364   0.47646   0.55851   0.00000  Uiso   1.00
C234   C     0.32490   0.50334   0.63266   0.00000  Uiso   1.00
C235   C     0.33172   0.56127   0.73275   0.00000  Uiso   1.00
C236   C     0.24847   0.35925   0.52897   0.00000  Uiso   1.00
C237   C     0.15587   0.34519   0.48633   0.00000  Uiso   1.00
C238   C     0.09500   0.31204   0.52747   0.00000  Uiso   1.00
C239   C     0.96880   0.25924   0.56666   0.00000  Uiso   1.00
C240   C     0.43632   0.37214   0.49231   0.00000  Uiso   1.00
C241   C     0.50166   0.36890   0.41883   0.00000  Uiso   1.00
C242   C     0.59893   0.34659   0.42910   0.00000  Uiso   1.00
C243   C     0.76440   0.31379   0.41135   0.00000  Uiso   1.00
C244   C     0.38330   0.36118   0.64470   0.00000  Uiso   1.00
C245   C     0.36490   0.41216   0.64905   0.00000  Uiso   1.00
C246   C     0.37620   0.43898   0.72324   0.00000  Uiso   1.00
C247   C     0.35567   0.48491   0.71368   0.00000  Uiso   1.00
C248   C     0.27919   0.34085   0.60984   0.00000  Uiso   1.00
C249   C     0.21844   0.30771   0.65106   0.00000  Uiso   1.00
C250   C     0.12577   0.29361   0.60849   0.00000  Uiso   1.00
C251   C     0.46704   0.35374   0.57318   0.00000  Uiso   1.00
C252   C     0.56423   0.33142   0.58356   0.00000  Uiso   1.00
C253   C     0.62970   0.32815   0.51011   0.00000  Uiso   1.00
H254   H     0.30283   0.40938   0.43285   0.00000  Uiso   1.00
H255   H     0.28986   0.49069   0.49591   0.00000  Uiso   1.00
H256   H     0.13213   0.35944   0.42374   0.00000  Uiso   1.00
H257   H     0.47787   0.38315   0.35626   0.00000  Uiso   1.00
H258   H     0.28898   0.57271   0.60151   0.00000  Uiso   1.00
H259   H     0.95643   0.29595   0.44931   0.00000  Uiso   1.00
H260   H     0.68547   0.34594   0.30700   0.00000  Uiso   1.00
H261   H     0.40721   0.34685   0.70767   0.00000  Uiso   1.00
H262   H     0.39997   0.42473   0.78582   0.00000  Uiso   1.00
H263   H     0.24223   0.29348   0.71364   0.00000  Uiso   1.00
H264   H     0.58797   0.31718   0.64615   0.00000  Uiso   1.00
H265   H     0.37835   0.51918   0.83680   0.00000  Uiso   1.00
H266   H     0.04579   0.24241   0.68460   0.00000  Uiso   1.00
H267   H     0.77484   0.29241   0.54230   0.00000  Uiso   1.00
O268   O     0.32698   0.59830   0.76561   0.00000  Uiso   1.00
O269   O     0.89069   0.23520   0.56593   0.00000  Uiso   1.00
O270   O     0.84718   0.30079   0.37922   0.00000  Uiso   1.00
N271   N     0.31103   0.54943   0.64616   0.00000  Uiso   1.00
N272   N     0.00010   0.29068   0.50387   0.00000  Uiso   1.00
N273   N     0.68168   0.33741   0.37081   0.00000  Uiso   1.00
N274   N     0.35912   0.52062   0.77277   0.00000  Uiso   1.00
N275   N     0.04819   0.26187   0.63048   0.00000  Uiso   1.00
N276   N     0.72977   0.30860   0.49742   0.00000  Uiso   1.00
C277   C     0.82675   0.10494   0.50419   0.00000  Uiso   1.00
C278   C     0.83418   0.06944   0.43182   0.00000  Uiso   1.00
C279   C     0.81364   0.02354   0.44149   0.00000  Uiso   1.00
C280   C     0.82490   0.99666   0.36734   0.00000  Uiso   1.00
C281   C     0.83172   0.93873   0.26725   0.00000  Uiso   1.00
C282   C     0.74847   0.14075   0.47103   0.00000  Uiso   1.00
C283   C     0.65587   0.15481   0.51367   0.00000  Uiso   1.00
C284   C     0.59500   0.18796   0.47253   0.00000  Uiso   1.00
C285   C     0.46880   0.24076   0.43334   0.00000  Uiso   1.00
C286   C     0.93632   0.12786   0.50769   0.00000  Uiso   1.00
C287   C     0.00166   0.13110   0.58117   0.00000  Uiso   1.00
C288   C     0.09893   0.15341   0.57090   0.00000  Uiso   1.00
C289   C     0.26440   0.18621   0.58865   0.00000  Uiso   1.00
C290   C     0.88330   0.13882   0.35530   0.00000  Uiso   1.00
C291   C     0.86490   0.08784   0.35095   0.00000  Uiso   1.00
C292   C     0.87620   0.06102   0.27676   0.00000  Uiso   1.00
C293   C     0.85567   0.01509   0.28632   0.00000  Uiso   1.00
C294   C     0.77919   0.15915   0.39016   0.00000  Uiso   1.00
C295   C     0.71844   0.19229   0.34894   0.00000  Uiso   1.00
C296   C     0.62577   0.20639   0.39151   0.00000  Uiso   1.00
C297   C     0.96704   0.14626   0.42682   0.00000  Uiso   1.00
C298   C     0.06423   0.16858   0.41644   0.00000  Uiso   1.00
C299   C     0.12970   0.17185   0.48989   0.00000  Uiso   1.00
H300   H     0.80283   0.09062   0.56715   0.00000  Uiso   1.00
H301   H     0.78986   0.00931   0.50409   0.00000  Uiso   1.00
H302   H     0.63213   0.14056   0.57626   0.00000  Uiso   1.00
H303   H     0.97787   0.11685   0.64374   0.00000  Uiso   1.00
H304   H     0.78898   0.92729   0.39849   0.00000  Uiso   1.00
H305   H     0.45643   0.20405   0.55069   0.00000  Uiso   1.00
H306   H     0.18547   0.15406   0.69300   0.00000  Uiso   1.00
H307   H     0.90721   0.15315   0.29233   0.00000  Uiso   1.00
H308   H     0.89997   0.07527   0.21418   0.00000  Uiso   1.00
H309   H     0.74223   0.20652   0.28636   0.00000  Uiso   1.00
H310   H     0.08797   0.18282   0.35385   0.00000  Uiso   1.00
H311   H     0.87835   0.98082   0.16320   0.00000  Uiso   1.00
H312   H     0.54579   0.25759   0.31540   0.00000  Uiso   1.00
H313   H     0.27484   0.20759   0.45770   0.00000  Uiso   1.00
O314   O     0.82698   0.90170   0.23439   0.00000  Uiso   1.00
O315   O     0.39069   0.26480   0.43407   0.00000  Uiso   1.00
O316   O     0.34718   0.19921   0.62078   0.00000  Uiso   1.00
N317   N     0.81103   0.95057   0.35384   0.00000  Uiso   1.00
N318   N     0.50010   0.20932   0.49613   0.00000  Uiso   1.00
N319   N     0.18168   0.16259   0.62919   0.00000  Uiso   1.00
N320   N     0.85912   0.97938   0.22723   0.00000  Uiso   1.00
N321   N     0.54819   0.23813   0.36952   0.00000  Uiso   1.00
N322   N     0.22977   0.19140   0.50258   0.00000  Uiso   1.00
C323   C     0.67325   0.39506   0.00419   0.00000  Uiso   1.00
C324   C     0.66582   0.43056   0.93182   0.00000  Uiso   1.00
C325   C     0.68636   0.47646   0.94149   0.00000  Uiso   1.00
C326   C     0.67510   0.50334   0.86734   0.00000  Uiso   1.00
C327   C     0.66828   0.56127   0.76725   0.00000  Uiso   1.00
C328   C     0.75153   0.35925   0.97103   0.00000  Uiso   1.00
C329   C     0.84413   0.34519   0.01367   0.00000  Uiso   1.00
C330   C     0.90500   0.31204   0.97253   0.00000  Uiso   1.00
C331   C     0.03120   0.25924   0.93334   0.00000  Uiso   1.00
C332   C     0.56368   0.37214   0.00769   0.00000  Uiso   1.00
C333   C     0.49834   0.36890   0.08117   0.00000  Uiso   1.00
C334   C     0.40107   0.34659   0.07090   0.00000  Uiso   1.00
C335   C     0.23560   0.31379   0.08865   0.00000  Uiso   1.00
C336   C     0.61670   0.36118   0.85530   0.00000  Uiso   1.00
C337   C     0.63510   0.41216   0.85095   0.00000  Uiso   1.00
C338   C     0.62380   0.43898   0.77676   0.00000  Uiso   1.00
C339   C     0.64433   0.48491   0.78632   0.00000  Uiso   1.00
C340   C     0.72081   0.34085   0.89016   0.00000  Uiso   1.00
C341   C     0.78156   0.30771   0.84894   0.00000  Uiso   1.00
C342   C     0.87423   0.29361   0.89151   0.00000  Uiso   1.00
C343   C     0.53296   0.35374   0.92682   0.00000  Uiso   1.00
C344   C     0.43577   0.33142   0.91644   0.00000  Uiso   1.00
C345   C     0.37030   0.32815   0.98989   0.00000  Uiso   1.00
H346   H     0.69717   0.40938   0.06715   0.00000  Uiso   1.00
H347   H     0.71014   0.49069   0.00409   0.00000  Uiso   1.00
H348   H     0.86787   0.35944   0.07626   0.00000  Uiso   1.00
H349   H     0.52213   0.38315   0.14374   0.00000  Uiso   1.00
H350   H     0.71102   0.57271   0.89849   0.00000  Uiso   1.00
H351   H     0.04357   0.29595   0.05069   0.00000  Uiso   1.00
H352   H     0.31453   0.34594   0.19300   0.00000  Uiso   1.00
H353   H     0.59279   0.34685   0.79233   0.00000  Uiso   1.00
H354   H     0.60003   0.42473   0.71418   0.00000  Uiso   1.00
H355   H     0.75777   0.29348   0.78636   0.00000  Uiso   1.00
H356   H     0.41203   0.31718   0.85385   0.00000  Uiso   1.00
H357   H     0.62165   0.51918   0.66320   0.00000  Uiso   1.00
H358   H     0.95421   0.24241   0.81540   0.00000  Uiso   1.00
H359   H     0.22516   0.29241   0.95770   0.00000  Uiso   1.00
O360   O     0.67302   0.59830   0.73439   0.00000  Uiso   1.00
O361   O     0.10931   0.23520   0.93407   0.00000  Uiso   1.00
O362   O     0.15282   0.30079   0.12078   0.00000  Uiso   1.00
N363   N     0.68897   0.54943   0.85384   0.00000  Uiso   1.00
N364   N     0.99990   0.29068   0.99613   0.00000  Uiso   1.00
N365   N     0.31832   0.33741   0.12919   0.00000  Uiso   1.00
N366   N     0.64088   0.52062   0.72723   0.00000  Uiso   1.00
N367   N     0.95181   0.26187   0.86952   0.00000  Uiso   1.00
N368   N     0.27023   0.30860   0.00258   0.00000  Uiso   1.00
