data_job_06591
_audit_creation_date              2018-12-19
_audit_creation_method            'Materials Studio'
_symmetry_space_group_name_H-M    'P1'
_symmetry_Int_Tables_number       1
_symmetry_cell_setting            triclinic
loop_
_symmetry_equiv_pos_as_xyz
  x,y,z
_cell_length_a                    22.6878
_cell_length_b                    24.3523
_cell_length_c                    24.4396
_cell_angle_alpha                 69.7010
_cell_angle_beta                  71.3786
_cell_angle_gamma                 107.6612
loop_
_atom_site_label
_atom_site_type_symbol
_atom_site_fract_x
_atom_site_fract_y
_atom_site_fract_z
_atom_site_U_iso_or_equiv
_atom_site_adp_type
_atom_site_occupancy
C1     C     0.45597   0.65735   0.23320   0.00000  Uiso   1.00
C2     C     0.39749   0.61550   0.22509   0.00000  Uiso   1.00
C3     C     0.40596   0.58819   0.18365   0.00000  Uiso   1.00
C4     C     0.34593   0.55150   0.18330   0.00000  Uiso   1.00
C5     C     0.26519   0.48793   0.16465   0.00000  Uiso   1.00
C6     C     0.45298   0.72244   0.21765   0.00000  Uiso   1.00
C7     C     0.50812   0.78504   0.16995   0.00000  Uiso   1.00
C8     C     0.49480   0.83837   0.16334   0.00000  Uiso   1.00
C9     C     0.50023   0.94082   0.13316   0.00000  Uiso   1.00
C10    C     0.43404   0.62273   0.30694   0.00000  Uiso   1.00
C11    C     0.47326   0.60150   0.33433   0.00000  Uiso   1.00
C12    C     0.44400   0.57089   0.40291   0.00000  Uiso   1.00
C13    C     0.42002   0.51852   0.51138   0.00000  Uiso   1.00
C14    C     0.33429   0.64075   0.30629   0.00000  Uiso   1.00
C15    C     0.33140   0.60649   0.26479   0.00000  Uiso   1.00
C16    C     0.27134   0.56983   0.26451   0.00000  Uiso   1.00
C17    C     0.27972   0.54247   0.22307   0.00000  Uiso   1.00
C18    C     0.38690   0.71343   0.25734   0.00000  Uiso   1.00
C19    C     0.37350   0.76668   0.25081   0.00000  Uiso   1.00
C20    C     0.42859   0.82934   0.20311   0.00000  Uiso   1.00
C21    C     0.36796   0.61371   0.34664   0.00000  Uiso   1.00
C22    C     0.33864   0.58314   0.41519   0.00000  Uiso   1.00
C23    C     0.37779   0.56186   0.44268   0.00000  Uiso   1.00
H24    H     0.50742   0.66437   0.20229   0.00000  Uiso   1.00
H25    H     0.45711   0.59518   0.15293   0.00000  Uiso   1.00
H26    H     0.55925   0.79200   0.13924   0.00000  Uiso   1.00
H27    H     0.52440   0.60848   0.30360   0.00000  Uiso   1.00
H28    H     0.37220   0.51453   0.11569   0.00000  Uiso   1.00
H29    H     0.58758   0.92952   0.08684   0.00000  Uiso   1.00
H30    H     0.51408   0.54255   0.43342   0.00000  Uiso   1.00
H31    H     0.28284   0.63374   0.33720   0.00000  Uiso   1.00
H32    H     0.22021   0.56287   0.29523   0.00000  Uiso   1.00
H33    H     0.32235   0.75969   0.28154   0.00000  Uiso   1.00
H34    H     0.28749   0.57617   0.44590   0.00000  Uiso   1.00
H35    H     0.17992   0.48830   0.23119   0.00000  Uiso   1.00
H36    H     0.39530   0.90330   0.20234   0.00000  Uiso   1.00
H37    H     0.32179   0.51632   0.54892   0.00000  Uiso   1.00
O38    O     0.23891   0.45536   0.14338   0.00000  Uiso   1.00
O39    O     0.52148   0.99982   0.10554   0.00000  Uiso   1.00
O40    O     0.42505   0.49212   0.56024   0.00000  Uiso   1.00
N41    N     0.33554   0.51807   0.14864   0.00000  Uiso   1.00
N42    N     0.53690   0.90607   0.12166   0.00000  Uiso   1.00
N43    N     0.46819   0.54429   0.44568   0.00000  Uiso   1.00
N44    N     0.23207   0.50395   0.21079   0.00000  Uiso   1.00
N45    N     0.43344   0.89195   0.18381   0.00000  Uiso   1.00
N46    N     0.36473   0.53018   0.50783   0.00000  Uiso   1.00
C47    C     0.85114   0.13849   0.65530   0.00000  Uiso   1.00
C48    C     0.82004   0.17996   0.62460   0.00000  Uiso   1.00
C49    C     0.85293   0.24851   0.58788   0.00000  Uiso   1.00
C50    C     0.81568   0.27711   0.56409   0.00000  Uiso   1.00
C51    C     0.77767   0.34738   0.51454   0.00000  Uiso   1.00
C52    C     0.79892   0.09602   0.72913   0.00000  Uiso   1.00
C53    C     0.81405   0.09398   0.78030   0.00000  Uiso   1.00
C54    C     0.75902   0.05192   0.84451   0.00000  Uiso   1.00
C55    C     0.68824   0.99183   0.95724   0.00000  Uiso   1.00
C56    C     0.84904   0.09076   0.62796   0.00000  Uiso   1.00
C57    C     0.90630   0.08429   0.59409   0.00000  Uiso   1.00
C58    C     0.89346   0.03778   0.57313   0.00000  Uiso   1.00
C59    C     0.90050   0.96953   0.52879   0.00000  Uiso   1.00
C60    C     0.72650   0.06738   0.67833   0.00000  Uiso   1.00
C61    C     0.75234   0.14134   0.63711   0.00000  Uiso   1.00
C62    C     0.71503   0.16984   0.61336   0.00000  Uiso   1.00
C63    C     0.74786   0.23842   0.57661   0.00000  Uiso   1.00
C64    C     0.73122   0.05740   0.74164   0.00000  Uiso   1.00
C65    C     0.67616   0.01532   0.80578   0.00000  Uiso   1.00
C66    C     0.69120   0.01322   0.85703   0.00000  Uiso   1.00
C67    C     0.78134   0.05214   0.64047   0.00000  Uiso   1.00
C68    C     0.76841   0.00562   0.61956   0.00000  Uiso   1.00
C69    C     0.82564   0.99909   0.58566   0.00000  Uiso   1.00
H70    H     0.90384   0.16855   0.64557   0.00000  Uiso   1.00
H71    H     0.90531   0.27838   0.57822   0.00000  Uiso   1.00
H72    H     0.86644   0.12387   0.77061   0.00000  Uiso   1.00
H73    H     0.95868   0.11418   0.58442   0.00000  Uiso   1.00
H74    H     0.87708   0.38311   0.50909   0.00000  Uiso   1.00
H75    H     0.79514   0.05731   0.91475   0.00000  Uiso   1.00
H76    H     0.98963   0.03688   0.52214   0.00000  Uiso   1.00
H77    H     0.67380   0.03731   0.68806   0.00000  Uiso   1.00
H78    H     0.66265   0.13994   0.62304   0.00000  Uiso   1.00
H79    H     0.62378   0.98543   0.81543   0.00000  Uiso   1.00
H80    H     0.71602   0.97574   0.62924   0.00000  Uiso   1.00
H81    H     0.68013   0.27075   0.54547   0.00000  Uiso   1.00
H82    H     0.59818   0.94494   0.95114   0.00000  Uiso   1.00
H83    H     0.79268   0.92451   0.55852   0.00000  Uiso   1.00
O84    O     0.77541   0.39681   0.48376   0.00000  Uiso   1.00
O85    O     0.66791   0.96936   0.01598   0.00000  Uiso   1.00
O86    O     0.92308   0.94256   0.50087   0.00000  Uiso   1.00
N87    N     0.83226   0.34258   0.52656   0.00000  Uiso   1.00
N88    N     0.75565   0.03799   0.90584   0.00000  Uiso   1.00
N89    N     0.93748   0.01887   0.53879   0.00000  Uiso   1.00
N90    N     0.72628   0.28212   0.54614   0.00000  Uiso   1.00
N91    N     0.64967   0.97752   0.92541   0.00000  Uiso   1.00
N92    N     0.83150   0.95841   0.55836   0.00000  Uiso   1.00
C93    C     0.71863   0.24528   0.06363   0.00000  Uiso   1.00
C94    C     0.64625   0.22854   0.11374   0.00000  Uiso   1.00
C95    C     0.60932   0.17975   0.17989   0.00000  Uiso   1.00
C96    C     0.54390   0.17215   0.21757   0.00000  Uiso   1.00
C97    C     0.43568   0.14008   0.29957   0.00000  Uiso   1.00
C98    C     0.71002   0.23884   0.00642   0.00000  Uiso   1.00
C99    C     0.72672   0.19871   0.98234   0.00000  Uiso   1.00
C100   C     0.71499   0.19979   0.92967   0.00000  Uiso   1.00
C101   C     0.70582   0.18374   0.84502   0.00000  Uiso   1.00
C102   C     0.76499   0.31869   0.03596   0.00000  Uiso   1.00
C103   C     0.82792   0.34570   0.03670   0.00000  Uiso   1.00
C104   C     0.86248   0.41401   0.00889   0.00000  Uiso   1.00
C105   C     0.93866   0.52193   0.97010   0.00000  Uiso   1.00
C106   C     0.66813   0.31857   0.01290   0.00000  Uiso   1.00
C107   C     0.61882   0.26835   0.08618   0.00000  Uiso   1.00
C108   C     0.55344   0.26083   0.12377   0.00000  Uiso   1.00
C109   C     0.51642   0.21203   0.18997   0.00000  Uiso   1.00
C110   C     0.68259   0.27864   0.97887   0.00000  Uiso   1.00
C111   C     0.67084   0.27979   0.92622   0.00000  Uiso   1.00
C112   C     0.68751   0.23967   0.90207   0.00000  Uiso   1.00
C113   C     0.73756   0.35849   0.00841   0.00000  Uiso   1.00
C114   C     0.77204   0.42678   0.98058   0.00000  Uiso   1.00
C115   C     0.83500   0.45389   0.98129   0.00000  Uiso   1.00
H116   H     0.73998   0.21429   0.08507   0.00000  Uiso   1.00
H117   H     0.63056   0.14895   0.20120   0.00000  Uiso   1.00
H118   H     0.74795   0.16791   0.00367   0.00000  Uiso   1.00
H119   H     0.84913   0.31488   0.05803   0.00000  Uiso   1.00
H120   H     0.49714   0.09404   0.31778   0.00000  Uiso   1.00
H121   H     0.74468   0.13404   0.90127   0.00000  Uiso   1.00
H122   H     0.95804   0.44395   0.01589   0.00000  Uiso   1.00
H123   H     0.64677   0.34956   0.99145   0.00000  Uiso   1.00
H124   H     0.53223   0.29164   0.10244   0.00000  Uiso   1.00
H125   H     0.64962   0.31060   0.90491   0.00000  Uiso   1.00
H126   H     0.75080   0.45757   0.95927   0.00000  Uiso   1.00
H127   H     0.41733   0.20985   0.23763   0.00000  Uiso   1.00
H128   H     0.66488   0.24986   0.82111   0.00000  Uiso   1.00
H129   H     0.87823   0.55976   0.93573   0.00000  Uiso   1.00
O130   O     0.38356   0.11139   0.35240   0.00000  Uiso   1.00
O131   O     0.70834   0.16388   0.80594   0.00000  Uiso   1.00
O132   O     0.98825   0.57047   0.95633   0.00000  Uiso   1.00
N133   N     0.49408   0.12925   0.28369   0.00000  Uiso   1.00
N134   N     0.72551   0.16665   0.89428   0.00000  Uiso   1.00
N135   N     0.92499   0.45638   0.00143   0.00000  Uiso   1.00
N136   N     0.45113   0.19157   0.24056   0.00000  Uiso   1.00
N137   N     0.68256   0.22897   0.85115   0.00000  Uiso   1.00
N138   N     0.88204   0.51870   0.95830   0.00000  Uiso   1.00
C139   C     0.33535   0.33563   0.87690   0.00000  Uiso   1.00
C140   C     0.30502   0.36757   0.83549   0.00000  Uiso   1.00
C141   C     0.33723   0.40192   0.76676   0.00000  Uiso   1.00
C142   C     0.30087   0.42738   0.73826   0.00000  Uiso   1.00
C143   C     0.26383   0.47825   0.66805   0.00000  Uiso   1.00
C144   C     0.28080   0.26296   0.92205   0.00000  Uiso   1.00
C145   C     0.29265   0.20936   0.92609   0.00000  Uiso   1.00
C146   C     0.23590   0.14676   0.97046   0.00000  Uiso   1.00
C147   C     0.16127   0.03522   0.03467   0.00000  Uiso   1.00
C148   C     0.33673   0.36550   0.92223   0.00000  Uiso   1.00
C149   C     0.39559   0.39811   0.92645   0.00000  Uiso   1.00
C150   C     0.38593   0.42184   0.97099   0.00000  Uiso   1.00
C151   C     0.39814   0.46952   0.03548   0.00000  Uiso   1.00
C152   C     0.21351   0.31977   0.94852   0.00000  Uiso   1.00
C153   C     0.23884   0.35895   0.87440   0.00000  Uiso   1.00
C154   C     0.20243   0.38437   0.84600   0.00000  Uiso   1.00
C155   C     0.23458   0.41876   0.77723   0.00000  Uiso   1.00
C156   C     0.21462   0.25434   0.96095   0.00000  Uiso   1.00
C157   C     0.15784   0.19181   0.00533   0.00000  Uiso   1.00
C158   C     0.16960   0.13813   0.00943   0.00000  Uiso   1.00
C159   C     0.27055   0.35689   0.96113   0.00000  Uiso   1.00
C160   C     0.26079   0.38057   0.00568   0.00000  Uiso   1.00
C161   C     0.31963   0.41321   0.00996   0.00000  Uiso   1.00
H162   H     0.38687   0.34234   0.84661   0.00000  Uiso   1.00
H163   H     0.38844   0.40857   0.73667   0.00000  Uiso   1.00
H164   H     0.34387   0.21604   0.89598   0.00000  Uiso   1.00
H165   H     0.44680   0.40477   0.89633   0.00000  Uiso   1.00
H166   H     0.36099   0.47818   0.63193   0.00000  Uiso   1.00
H167   H     0.26700   0.07222   0.96787   0.00000  Uiso   1.00
H168   H     0.48406   0.47019   0.96861   0.00000  Uiso   1.00
H169   H     0.16198   0.31307   0.97881   0.00000  Uiso   1.00
H170   H     0.15121   0.37770   0.87611   0.00000  Uiso   1.00
H171   H     0.10664   0.18517   0.03543   0.00000  Uiso   1.00
H172   H     0.20957   0.37389   0.03578   0.00000  Uiso   1.00
H173   H     0.16844   0.45312   0.74511   0.00000  Uiso   1.00
H174   H     0.07446   0.04716   0.08105   0.00000  Uiso   1.00
H175   H     0.29151   0.44513   0.08179   0.00000  Uiso   1.00
O176   O     0.26168   0.50867   0.61858   0.00000  Uiso   1.00
O177   O     0.13838   0.97608   0.05932   0.00000  Uiso   1.00
O178   O     0.42315   0.49820   0.06030   0.00000  Uiso   1.00
N179   N     0.31716   0.46342   0.67266   0.00000  Uiso   1.00
N180   N     0.22929   0.08388   0.98673   0.00000  Uiso   1.00
N181   N     0.43221   0.45593   0.98744   0.00000  Uiso   1.00
N182   N     0.21355   0.44994   0.73356   0.00000  Uiso   1.00
N183   N     0.12568   0.07039   0.04763   0.00000  Uiso   1.00
N184   N     0.32860   0.44245   0.04834   0.00000  Uiso   1.00
C185   C     0.26355   0.89189   0.73614   0.00000  Uiso   1.00
C186   C     0.18524   0.85235   0.76060   0.00000  Uiso   1.00
C187   C     0.14443   0.78472   0.80353   0.00000  Uiso   1.00
C188   C     0.07381   0.75788   0.81994   0.00000  Uiso   1.00
C189   C     0.95657   0.69048   0.86184   0.00000  Uiso   1.00
C190   C     0.27093   0.94628   0.75483   0.00000  Uiso   1.00
C191   C     0.30217   0.95764   0.79292   0.00000  Uiso   1.00
C192   C     0.30369   0.00988   0.80446   0.00000  Uiso   1.00
C193   C     0.31954   0.08835   0.83737   0.00000  Uiso   1.00
C194   C     0.29826   0.92679   0.66064   0.00000  Uiso   1.00
C195   C     0.35250   0.92176   0.61951   0.00000  Uiso   1.00
C196   C     0.37705   0.95760   0.55175   0.00000  Uiso   1.00
C197   C     0.43533   0.00580   0.43841   0.00000  Uiso   1.00
C198   C     0.21071   0.96448   0.68892   0.00000  Uiso   1.00
C199   C     0.15654   0.89178   0.73495   0.00000  Uiso   1.00
C200   C     0.08597   0.86503   0.75129   0.00000  Uiso   1.00
C201   C     0.04505   0.79737   0.79424   0.00000  Uiso   1.00
C202   C     0.24223   0.98571   0.72919   0.00000  Uiso   1.00
C203   C     0.24371   0.03795   0.74067   0.00000  Uiso   1.00
C204   C     0.27494   0.04938   0.77877   0.00000  Uiso   1.00
C205   C     0.26956   0.96621   0.63499   0.00000  Uiso   1.00
C206   C     0.29404   0.00207   0.56727   0.00000  Uiso   1.00
C207   C     0.34830   0.99710   0.52606   0.00000  Uiso   1.00
H208   H     0.28590   0.86120   0.75611   0.00000  Uiso   1.00
H209   H     0.16666   0.75423   0.82338   0.00000  Uiso   1.00
H210   H     0.32439   0.92713   0.81275   0.00000  Uiso   1.00
H211   H     0.37470   0.89125   0.63938   0.00000  Uiso   1.00
H212   H     0.02180   0.65302   0.88666   0.00000  Uiso   1.00
H213   H     0.35439   0.01760   0.86424   0.00000  Uiso   1.00
H214   H     0.46050   0.94195   0.49865   0.00000  Uiso   1.00
H215   H     0.18837   0.99517   0.66895   0.00000  Uiso   1.00
H216   H     0.06377   0.89555   0.73144   0.00000  Uiso   1.00
H217   H     0.22150   0.06845   0.72081   0.00000  Uiso   1.00
H218   H     0.27181   0.03257   0.54744   0.00000  Uiso   1.00
H219   H     0.93829   0.76772   0.81204   0.00000  Uiso   1.00
H220   H     0.27089   0.13230   0.78962   0.00000  Uiso   1.00
H221   H     0.37699   0.05665   0.42403   0.00000  Uiso   1.00
O222   O     0.89984   0.64242   0.89205   0.00000  Uiso   1.00
O223   O     0.33621   0.12074   0.86262   0.00000  Uiso   1.00
O224   O     0.47540   0.02149   0.38298   0.00000  Uiso   1.00
N225   N     0.01924   0.69368   0.86052   0.00000  Uiso   1.00
N226   N     0.33020   0.03454   0.83956   0.00000  Uiso   1.00
N227   N     0.42940   0.96383   0.49777   0.00000  Uiso   1.00
N228   N     0.97431   0.75541   0.82036   0.00000  Uiso   1.00
N229   N     0.28526   0.09626   0.79941   0.00000  Uiso   1.00
N230   N     0.38447   0.02555   0.45761   0.00000  Uiso   1.00
C231   C     0.95189   0.78198   0.32541   0.00000  Uiso   1.00
C232   C     0.89433   0.78822   0.37225   0.00000  Uiso   1.00
C233   C     0.90478   0.83019   0.39867   0.00000  Uiso   1.00
C234   C     0.84529   0.82857   0.44052   0.00000  Uiso   1.00
C235   C     0.76618   0.84469   0.51096   0.00000  Uiso   1.00
C236   C     0.94212   0.79547   0.26399   0.00000  Uiso   1.00
C237   C     0.99275   0.84352   0.19938   0.00000  Uiso   1.00
C238   C     0.97349   0.84799   0.15009   0.00000  Uiso   1.00
C239   C     0.96858   0.87532   0.05245   0.00000  Uiso   1.00
C240   C     0.93409   0.70915   0.35874   0.00000  Uiso   1.00
C241   C     0.97798   0.68462   0.37378   0.00000  Uiso   1.00
C242   C     0.95196   0.61642   0.40425   0.00000  Uiso   1.00
C243   C     0.93460   0.50973   0.45372   0.00000  Uiso   1.00
C244   C     0.82765   0.70448   0.35276   0.00000  Uiso   1.00
C245   C     0.82685   0.74613   0.38710   0.00000  Uiso   1.00
C246   C     0.76732   0.74444   0.42893   0.00000  Uiso   1.00
C247   C     0.77768   0.78639   0.45541   0.00000  Uiso   1.00
C248   C     0.87464   0.75337   0.27884   0.00000  Uiso   1.00
C249   C     0.85529   0.75777   0.22964   0.00000  Uiso   1.00
C250   C     0.90588   0.80582   0.16498   0.00000  Uiso   1.00
C251   C     0.86661   0.66705   0.37359   0.00000  Uiso   1.00
C252   C     0.84052   0.59887   0.40405   0.00000  Uiso   1.00
C253   C     0.88436   0.57424   0.41914   0.00000  Uiso   1.00
H254   H     0.00443   0.81476   0.31384   0.00000  Uiso   1.00
H255   H     0.95701   0.86276   0.38715   0.00000  Uiso   1.00
H256   H     0.04497   0.87608   0.18789   0.00000  Uiso   1.00
H257   H     0.03020   0.71721   0.36227   0.00000  Uiso   1.00
H258   H     0.87469   0.89744   0.47496   0.00000  Uiso   1.00
H259   H     0.06015   0.92551   0.05482   0.00000  Uiso   1.00
H260   H     0.02901   0.59050   0.42253   0.00000  Uiso   1.00
H261   H     0.77511   0.67171   0.36433   0.00000  Uiso   1.00
H262   H     0.71511   0.71186   0.44042   0.00000  Uiso   1.00
H263   H     0.80307   0.72518   0.24116   0.00000  Uiso   1.00
H264   H     0.78830   0.56631   0.41554   0.00000  Uiso   1.00
H265   H     0.67835   0.77496   0.51819   0.00000  Uiso   1.00
H266   H     0.86382   0.80303   0.09804   0.00000  Uiso   1.00
H267   H     0.83267   0.46802   0.46576   0.00000  Uiso   1.00
O268   O     0.74118   0.86521   0.54570   0.00000  Uiso   1.00
O269   O     0.98452   0.90203   0.99449   0.00000  Uiso   1.00
O270   O     0.94365   0.46251   0.47691   0.00000  Uiso   1.00
N271   N     0.83671   0.86309   0.47471   0.00000  Uiso   1.00
N272   N     0.01011   0.88935   0.08190   0.00000  Uiso   1.00
N273   N     0.98100   0.57614   0.42566   0.00000  Uiso   1.00
N274   N     0.73106   0.79719   0.49797   0.00000  Uiso   1.00
N275   N     0.90446   0.82344   0.10516   0.00000  Uiso   1.00
N276   N     0.87535   0.51024   0.44892   0.00000  Uiso   1.00
C277   C     0.54403   0.34265   0.76680   0.00000  Uiso   1.00
C278   C     0.60251   0.38450   0.77491   0.00000  Uiso   1.00
C279   C     0.59404   0.41181   0.81635   0.00000  Uiso   1.00
C280   C     0.65407   0.44850   0.81670   0.00000  Uiso   1.00
C281   C     0.73481   0.51207   0.83535   0.00000  Uiso   1.00
C282   C     0.54702   0.27756   0.78235   0.00000  Uiso   1.00
C283   C     0.49188   0.21496   0.83005   0.00000  Uiso   1.00
C284   C     0.50520   0.16163   0.83666   0.00000  Uiso   1.00
C285   C     0.49977   0.05918   0.86684   0.00000  Uiso   1.00
C286   C     0.56596   0.37727   0.69306   0.00000  Uiso   1.00
C287   C     0.52674   0.39850   0.66567   0.00000  Uiso   1.00
C288   C     0.55600   0.42911   0.59709   0.00000  Uiso   1.00
C289   C     0.57998   0.48148   0.48862   0.00000  Uiso   1.00
C290   C     0.66571   0.35925   0.69371   0.00000  Uiso   1.00
C291   C     0.66860   0.39351   0.73521   0.00000  Uiso   1.00
C292   C     0.72866   0.43017   0.73549   0.00000  Uiso   1.00
C293   C     0.72028   0.45753   0.77693   0.00000  Uiso   1.00
C294   C     0.61310   0.28657   0.74266   0.00000  Uiso   1.00
C295   C     0.62650   0.23332   0.74919   0.00000  Uiso   1.00
C296   C     0.57141   0.17066   0.79689   0.00000  Uiso   1.00
C297   C     0.63204   0.38629   0.65336   0.00000  Uiso   1.00
C298   C     0.66136   0.41686   0.58481   0.00000  Uiso   1.00
C299   C     0.62221   0.43814   0.55732   0.00000  Uiso   1.00
H300   H     0.49258   0.33563   0.79771   0.00000  Uiso   1.00
H301   H     0.54289   0.40482   0.84707   0.00000  Uiso   1.00
H302   H     0.44075   0.20800   0.86076   0.00000  Uiso   1.00
H303   H     0.47560   0.39152   0.69640   0.00000  Uiso   1.00
H304   H     0.62780   0.48547   0.88431   0.00000  Uiso   1.00
H305   H     0.41242   0.07048   0.91316   0.00000  Uiso   1.00
H306   H     0.48592   0.45745   0.56658   0.00000  Uiso   1.00
H307   H     0.71716   0.36626   0.66280   0.00000  Uiso   1.00
H308   H     0.77979   0.43713   0.70477   0.00000  Uiso   1.00
H309   H     0.67765   0.24031   0.71846   0.00000  Uiso   1.00
H310   H     0.71251   0.42383   0.55410   0.00000  Uiso   1.00
H311   H     0.82008   0.51170   0.76881   0.00000  Uiso   1.00
H312   H     0.60470   0.09670   0.79766   0.00000  Uiso   1.00
H313   H     0.67821   0.48368   0.45108   0.00000  Uiso   1.00
O314   O     0.76109   0.54464   0.85662   0.00000  Uiso   1.00
O315   O     0.47852   0.00018   0.89446   0.00000  Uiso   1.00
O316   O     0.57495   0.50788   0.43976   0.00000  Uiso   1.00
N317   N     0.66446   0.48193   0.85136   0.00000  Uiso   1.00
N318   N     0.46310   0.09393   0.87834   0.00000  Uiso   1.00
N319   N     0.53181   0.45571   0.55432   0.00000  Uiso   1.00
N320   N     0.76793   0.49605   0.78921   0.00000  Uiso   1.00
N321   N     0.56656   0.10805   0.81619   0.00000  Uiso   1.00
N322   N     0.63527   0.46982   0.49217   0.00000  Uiso   1.00
C323   C     0.14886   0.86151   0.34470   0.00000  Uiso   1.00
C324   C     0.17996   0.82004   0.37540   0.00000  Uiso   1.00
C325   C     0.14707   0.75149   0.41212   0.00000  Uiso   1.00
C326   C     0.18432   0.72289   0.43591   0.00000  Uiso   1.00
C327   C     0.22233   0.65262   0.48546   0.00000  Uiso   1.00
C328   C     0.20108   0.90398   0.27087   0.00000  Uiso   1.00
C329   C     0.18595   0.90602   0.21970   0.00000  Uiso   1.00
C330   C     0.24098   0.94808   0.15549   0.00000  Uiso   1.00
C331   C     0.31176   0.00817   0.04276   0.00000  Uiso   1.00
C332   C     0.15096   0.90924   0.37204   0.00000  Uiso   1.00
C333   C     0.09370   0.91571   0.40591   0.00000  Uiso   1.00
C334   C     0.10654   0.96222   0.42687   0.00000  Uiso   1.00
C335   C     0.09950   0.03047   0.47121   0.00000  Uiso   1.00
C336   C     0.27350   0.93262   0.32167   0.00000  Uiso   1.00
C337   C     0.24766   0.85866   0.36289   0.00000  Uiso   1.00
C338   C     0.28497   0.83016   0.38664   0.00000  Uiso   1.00
C339   C     0.25214   0.76158   0.42339   0.00000  Uiso   1.00
C340   C     0.26878   0.94260   0.25836   0.00000  Uiso   1.00
C341   C     0.32384   0.98468   0.19422   0.00000  Uiso   1.00
C342   C     0.30880   0.98678   0.14297   0.00000  Uiso   1.00
C343   C     0.21866   0.94786   0.35953   0.00000  Uiso   1.00
C344   C     0.23159   0.99438   0.38044   0.00000  Uiso   1.00
C345   C     0.17436   0.00091   0.41434   0.00000  Uiso   1.00
H346   H     0.09616   0.83145   0.35443   0.00000  Uiso   1.00
H347   H     0.09469   0.72162   0.42178   0.00000  Uiso   1.00
H348   H     0.13356   0.87613   0.22939   0.00000  Uiso   1.00
H349   H     0.04132   0.88582   0.41558   0.00000  Uiso   1.00
H350   H     0.12292   0.61689   0.49091   0.00000  Uiso   1.00
H351   H     0.20486   0.94269   0.08525   0.00000  Uiso   1.00
H352   H     0.01037   0.96312   0.47786   0.00000  Uiso   1.00
H353   H     0.32620   0.96269   0.31194   0.00000  Uiso   1.00
H354   H     0.33735   0.86006   0.37696   0.00000  Uiso   1.00
H355   H     0.37622   0.01457   0.18457   0.00000  Uiso   1.00
H356   H     0.28398   0.02426   0.37076   0.00000  Uiso   1.00
H357   H     0.31987   0.72925   0.45453   0.00000  Uiso   1.00
H358   H     0.40182   0.05506   0.04886   0.00000  Uiso   1.00
H359   H     0.20732   0.07549   0.44148   0.00000  Uiso   1.00
O360   O     0.22459   0.60319   0.51624   0.00000  Uiso   1.00
O361   O     0.33209   0.03064   0.98402   0.00000  Uiso   1.00
O362   O     0.07692   0.05744   0.49913   0.00000  Uiso   1.00
N363   N     0.16774   0.65742   0.47344   0.00000  Uiso   1.00
N364   N     0.24435   0.96201   0.09416   0.00000  Uiso   1.00
N365   N     0.06252   0.98113   0.46121   0.00000  Uiso   1.00
N366   N     0.27372   0.71788   0.45386   0.00000  Uiso   1.00
N367   N     0.35033   0.02248   0.07459   0.00000  Uiso   1.00
N368   N     0.16850   0.04159   0.44164   0.00000  Uiso   1.00
C369   C     0.28137   0.75472   0.93637   0.00000  Uiso   1.00
C370   C     0.35375   0.77146   0.88626   0.00000  Uiso   1.00
C371   C     0.39068   0.82025   0.82011   0.00000  Uiso   1.00
C372   C     0.45610   0.82785   0.78243   0.00000  Uiso   1.00
C373   C     0.56432   0.85992   0.70043   0.00000  Uiso   1.00
C374   C     0.28998   0.76116   0.99358   0.00000  Uiso   1.00
C375   C     0.27328   0.80129   0.01766   0.00000  Uiso   1.00
C376   C     0.28501   0.80021   0.07033   0.00000  Uiso   1.00
C377   C     0.29418   0.81626   0.15498   0.00000  Uiso   1.00
C378   C     0.23501   0.68131   0.96404   0.00000  Uiso   1.00
C379   C     0.17208   0.65430   0.96330   0.00000  Uiso   1.00
C380   C     0.13752   0.58599   0.99111   0.00000  Uiso   1.00
C381   C     0.06134   0.47807   0.02990   0.00000  Uiso   1.00
C382   C     0.33187   0.68143   0.98710   0.00000  Uiso   1.00
C383   C     0.38118   0.73165   0.91382   0.00000  Uiso   1.00
C384   C     0.44656   0.73917   0.87623   0.00000  Uiso   1.00
C385   C     0.48358   0.78797   0.81003   0.00000  Uiso   1.00
C386   C     0.31741   0.72136   0.02113   0.00000  Uiso   1.00
C387   C     0.32916   0.72021   0.07378   0.00000  Uiso   1.00
C388   C     0.31249   0.76033   0.09793   0.00000  Uiso   1.00
C389   C     0.26244   0.64151   0.99159   0.00000  Uiso   1.00
C390   C     0.22796   0.57322   0.01942   0.00000  Uiso   1.00
C391   C     0.16500   0.54611   0.01871   0.00000  Uiso   1.00
H392   H     0.26002   0.78571   0.91493   0.00000  Uiso   1.00
H393   H     0.36944   0.85105   0.79880   0.00000  Uiso   1.00
H394   H     0.25205   0.83209   0.99633   0.00000  Uiso   1.00
H395   H     0.15087   0.68512   0.94197   0.00000  Uiso   1.00
H396   H     0.50286   0.90596   0.68222   0.00000  Uiso   1.00
H397   H     0.25532   0.86596   0.09873   0.00000  Uiso   1.00
H398   H     0.04196   0.55605   0.98411   0.00000  Uiso   1.00
H399   H     0.35323   0.65044   0.00855   0.00000  Uiso   1.00
H400   H     0.46777   0.70836   0.89756   0.00000  Uiso   1.00
H401   H     0.35038   0.68940   0.09509   0.00000  Uiso   1.00
H402   H     0.24920   0.54243   0.04073   0.00000  Uiso   1.00
H403   H     0.58267   0.79015   0.76237   0.00000  Uiso   1.00
H404   H     0.33512   0.75014   0.17889   0.00000  Uiso   1.00
H405   H     0.12177   0.44024   0.06427   0.00000  Uiso   1.00
O406   O     0.61644   0.88861   0.64760   0.00000  Uiso   1.00
O407   O     0.29166   0.83612   0.19406   0.00000  Uiso   1.00
O408   O     0.01175   0.42953   0.04367   0.00000  Uiso   1.00
N409   N     0.50592   0.87075   0.71631   0.00000  Uiso   1.00
N410   N     0.27449   0.83335   0.10572   0.00000  Uiso   1.00
N411   N     0.07501   0.54362   0.99857   0.00000  Uiso   1.00
N412   N     0.54887   0.80843   0.75944   0.00000  Uiso   1.00
N413   N     0.31744   0.77103   0.14885   0.00000  Uiso   1.00
N414   N     0.11796   0.48130   0.04170   0.00000  Uiso   1.00
C415   C     0.66465   0.66437   0.12310   0.00000  Uiso   1.00
C416   C     0.69498   0.63243   0.16451   0.00000  Uiso   1.00
C417   C     0.66277   0.59808   0.23324   0.00000  Uiso   1.00
C418   C     0.69913   0.57262   0.26174   0.00000  Uiso   1.00
C419   C     0.73617   0.52175   0.33195   0.00000  Uiso   1.00
C420   C     0.71920   0.73704   0.07795   0.00000  Uiso   1.00
C421   C     0.70735   0.79064   0.07391   0.00000  Uiso   1.00
C422   C     0.76410   0.85324   0.02954   0.00000  Uiso   1.00
C423   C     0.83873   0.96478   0.96533   0.00000  Uiso   1.00
C424   C     0.66327   0.63450   0.07777   0.00000  Uiso   1.00
C425   C     0.60441   0.60189   0.07355   0.00000  Uiso   1.00
C426   C     0.61407   0.57816   0.02901   0.00000  Uiso   1.00
C427   C     0.60186   0.53048   0.96452   0.00000  Uiso   1.00
C428   C     0.78649   0.68023   0.05148   0.00000  Uiso   1.00
C429   C     0.76116   0.64105   0.12560   0.00000  Uiso   1.00
C430   C     0.79757   0.61563   0.15400   0.00000  Uiso   1.00
C431   C     0.76542   0.58124   0.22277   0.00000  Uiso   1.00
C432   C     0.78538   0.74566   0.03905   0.00000  Uiso   1.00
C433   C     0.84216   0.80819   0.99467   0.00000  Uiso   1.00
C434   C     0.83040   0.86187   0.99057   0.00000  Uiso   1.00
C435   C     0.72945   0.64311   0.03887   0.00000  Uiso   1.00
C436   C     0.73921   0.61943   0.99432   0.00000  Uiso   1.00
C437   C     0.68037   0.58679   0.99004   0.00000  Uiso   1.00
H438   H     0.61313   0.65766   0.15339   0.00000  Uiso   1.00
H439   H     0.61156   0.59143   0.26333   0.00000  Uiso   1.00
H440   H     0.65613   0.78396   0.10402   0.00000  Uiso   1.00
H441   H     0.55320   0.59523   0.10367   0.00000  Uiso   1.00
H442   H     0.63901   0.52182   0.36807   0.00000  Uiso   1.00
H443   H     0.73300   0.92778   0.03213   0.00000  Uiso   1.00
H444   H     0.51594   0.52981   0.03139   0.00000  Uiso   1.00
H445   H     0.83802   0.68693   0.02119   0.00000  Uiso   1.00
H446   H     0.84879   0.62230   0.12389   0.00000  Uiso   1.00
H447   H     0.89336   0.81483   0.96457   0.00000  Uiso   1.00
H448   H     0.79043   0.62611   0.96422   0.00000  Uiso   1.00
H449   H     0.83156   0.54688   0.25489   0.00000  Uiso   1.00
H450   H     0.92554   0.95284   0.91895   0.00000  Uiso   1.00
H451   H     0.70849   0.55487   0.91821   0.00000  Uiso   1.00
O452   O     0.73832   0.49133   0.38142   0.00000  Uiso   1.00
O453   O     0.86162   0.02392   0.94068   0.00000  Uiso   1.00
O454   O     0.57685   0.50180   0.93970   0.00000  Uiso   1.00
N455   N     0.68284   0.53658   0.32734   0.00000  Uiso   1.00
N456   N     0.77071   0.91612   0.01327   0.00000  Uiso   1.00
N457   N     0.56779   0.54407   0.01256   0.00000  Uiso   1.00
N458   N     0.78645   0.55006   0.26644   0.00000  Uiso   1.00
N459   N     0.87432   0.92961   0.95237   0.00000  Uiso   1.00
N460   N     0.67140   0.55755   0.95166   0.00000  Uiso   1.00
C461   C     0.73645   0.10811   0.26386   0.00000  Uiso   1.00
C462   C     0.81476   0.14765   0.23940   0.00000  Uiso   1.00
C463   C     0.85557   0.21528   0.19647   0.00000  Uiso   1.00
C464   C     0.92619   0.24212   0.18006   0.00000  Uiso   1.00
C465   C     0.04343   0.30952   0.13816   0.00000  Uiso   1.00
C466   C     0.72907   0.05372   0.24517   0.00000  Uiso   1.00
C467   C     0.69783   0.04236   0.20708   0.00000  Uiso   1.00
C468   C     0.69631   0.99012   0.19554   0.00000  Uiso   1.00
C469   C     0.68046   0.91165   0.16263   0.00000  Uiso   1.00
C470   C     0.70174   0.07321   0.33936   0.00000  Uiso   1.00
C471   C     0.64750   0.07824   0.38049   0.00000  Uiso   1.00
C472   C     0.62295   0.04240   0.44825   0.00000  Uiso   1.00
C473   C     0.56467   0.99420   0.56159   0.00000  Uiso   1.00
C474   C     0.78929   0.03552   0.31108   0.00000  Uiso   1.00
C475   C     0.84346   0.10822   0.26505   0.00000  Uiso   1.00
C476   C     0.91403   0.13497   0.24871   0.00000  Uiso   1.00
C477   C     0.95495   0.20263   0.20576   0.00000  Uiso   1.00
C478   C     0.75777   0.01429   0.27081   0.00000  Uiso   1.00
C479   C     0.75629   0.96205   0.25933   0.00000  Uiso   1.00
C480   C     0.72506   0.95062   0.22123   0.00000  Uiso   1.00
C481   C     0.73044   0.03379   0.36501   0.00000  Uiso   1.00
C482   C     0.70596   0.99793   0.43273   0.00000  Uiso   1.00
C483   C     0.65170   0.00290   0.47394   0.00000  Uiso   1.00
H484   H     0.71410   0.13880   0.24389   0.00000  Uiso   1.00
H485   H     0.83334   0.24577   0.17662   0.00000  Uiso   1.00
H486   H     0.67561   0.07287   0.18725   0.00000  Uiso   1.00
H487   H     0.62530   0.10875   0.36062   0.00000  Uiso   1.00
H488   H     0.97820   0.34698   0.11334   0.00000  Uiso   1.00
H489   H     0.64561   0.98240   0.13576   0.00000  Uiso   1.00
H490   H     0.53950   0.05805   0.50135   0.00000  Uiso   1.00
H491   H     0.81163   0.00483   0.33105   0.00000  Uiso   1.00
H492   H     0.93623   0.10445   0.26856   0.00000  Uiso   1.00
H493   H     0.77850   0.93155   0.27919   0.00000  Uiso   1.00
H494   H     0.72819   0.96743   0.45256   0.00000  Uiso   1.00
H495   H     0.06171   0.23228   0.18796   0.00000  Uiso   1.00
H496   H     0.72911   0.86770   0.21038   0.00000  Uiso   1.00
H497   H     0.62301   0.94335   0.57597   0.00000  Uiso   1.00
O498   O     0.10016   0.35758   0.10795   0.00000  Uiso   1.00
O499   O     0.66379   0.87926   0.13738   0.00000  Uiso   1.00
O500   O     0.52460   0.97851   0.61702   0.00000  Uiso   1.00
N501   N     0.98076   0.30632   0.13948   0.00000  Uiso   1.00
N502   N     0.66980   0.96546   0.16044   0.00000  Uiso   1.00
N503   N     0.57060   0.03617   0.50223   0.00000  Uiso   1.00
N504   N     0.02569   0.24459   0.17964   0.00000  Uiso   1.00
N505   N     0.71474   0.90374   0.20059   0.00000  Uiso   1.00
N506   N     0.61553   0.97445   0.54239   0.00000  Uiso   1.00
C507   C     0.04811   0.21802   0.67459   0.00000  Uiso   1.00
C508   C     0.10567   0.21178   0.62775   0.00000  Uiso   1.00
C509   C     0.09522   0.16981   0.60133   0.00000  Uiso   1.00
C510   C     0.15471   0.17143   0.55948   0.00000  Uiso   1.00
C511   C     0.23382   0.15531   0.48904   0.00000  Uiso   1.00
C512   C     0.05788   0.20453   0.73601   0.00000  Uiso   1.00
C513   C     0.00725   0.15648   0.80062   0.00000  Uiso   1.00
C514   C     0.02651   0.15201   0.84991   0.00000  Uiso   1.00
C515   C     0.03142   0.12468   0.94755   0.00000  Uiso   1.00
C516   C     0.06591   0.29085   0.64126   0.00000  Uiso   1.00
C517   C     0.02202   0.31538   0.62622   0.00000  Uiso   1.00
C518   C     0.04804   0.38358   0.59575   0.00000  Uiso   1.00
C519   C     0.06540   0.49027   0.54628   0.00000  Uiso   1.00
C520   C     0.17235   0.29552   0.64724   0.00000  Uiso   1.00
C521   C     0.17315   0.25387   0.61290   0.00000  Uiso   1.00
C522   C     0.23268   0.25556   0.57107   0.00000  Uiso   1.00
C523   C     0.22232   0.21361   0.54459   0.00000  Uiso   1.00
C524   C     0.12536   0.24663   0.72116   0.00000  Uiso   1.00
C525   C     0.14471   0.24223   0.77036   0.00000  Uiso   1.00
C526   C     0.09412   0.19418   0.83502   0.00000  Uiso   1.00
C527   C     0.13339   0.33295   0.62641   0.00000  Uiso   1.00
C528   C     0.15948   0.40113   0.59595   0.00000  Uiso   1.00
C529   C     0.11564   0.42576   0.58086   0.00000  Uiso   1.00
H530   H     0.99557   0.18524   0.68616   0.00000  Uiso   1.00
H531   H     0.04299   0.13724   0.61285   0.00000  Uiso   1.00
H532   H     0.95503   0.12392   0.81211   0.00000  Uiso   1.00
H533   H     0.96980   0.28279   0.63773   0.00000  Uiso   1.00
H534   H     0.12531   0.10256   0.52504   0.00000  Uiso   1.00
H535   H     0.93985   0.07449   0.94518   0.00000  Uiso   1.00
H536   H     0.97099   0.40950   0.57747   0.00000  Uiso   1.00
H537   H     0.22489   0.32829   0.63567   0.00000  Uiso   1.00
H538   H     0.28489   0.28814   0.55958   0.00000  Uiso   1.00
H539   H     0.19693   0.27482   0.75884   0.00000  Uiso   1.00
H540   H     0.21170   0.43369   0.58446   0.00000  Uiso   1.00
H541   H     0.32165   0.22504   0.48181   0.00000  Uiso   1.00
H542   H     0.13618   0.19697   0.90196   0.00000  Uiso   1.00
H543   H     0.16733   0.53198   0.53424   0.00000  Uiso   1.00
O544   O     0.25882   0.13479   0.45430   0.00000  Uiso   1.00
O545   O     0.01548   0.09797   0.00551   0.00000  Uiso   1.00
O546   O     0.05635   0.53749   0.52309   0.00000  Uiso   1.00
N547   N     0.16329   0.13691   0.52529   0.00000  Uiso   1.00
N548   N     0.98989   0.11065   0.91810   0.00000  Uiso   1.00
N549   N     0.01900   0.42386   0.57434   0.00000  Uiso   1.00
N550   N     0.26894   0.20281   0.50203   0.00000  Uiso   1.00
N551   N     0.09554   0.17656   0.89484   0.00000  Uiso   1.00
N552   N     0.12465   0.48976   0.55108   0.00000  Uiso   1.00
