data_job_06060
_audit_creation_date              2018-12-19
_audit_creation_method            'Materials Studio'
_symmetry_space_group_name_H-M    'P1'
_symmetry_Int_Tables_number       1
_symmetry_cell_setting            triclinic
loop_
_symmetry_equiv_pos_as_xyz
  x,y,z
_cell_length_a                    15.6132
_cell_length_b                    15.6471
_cell_length_c                    15.6723
_cell_angle_alpha                 98.0949
_cell_angle_beta                  98.1664
_cell_angle_gamma                 98.2099
loop_
_atom_site_label
_atom_site_type_symbol
_atom_site_fract_x
_atom_site_fract_y
_atom_site_fract_z
_atom_site_U_iso_or_equiv
_atom_site_adp_type
_atom_site_occupancy
C1     C     0.63230   0.21527   0.61290   0.00000  Uiso   1.00
C2     C     0.62854   0.17260   0.51846   0.00000  Uiso   1.00
C3     C     0.55348   0.14861   0.45566   0.00000  Uiso   1.00
C4     C     0.56379   0.11045   0.37305   0.00000  Uiso   1.00
C5     C     0.54540   0.04623   0.22932   0.00000  Uiso   1.00
C6     C     0.67446   0.15592   0.66957   0.00000  Uiso   1.00
C7     C     0.63801   0.11791   0.73381   0.00000  Uiso   1.00
C8     C     0.68699   0.06571   0.77841   0.00000  Uiso   1.00
C9     C     0.73992   0.97564   0.86932   0.00000  Uiso   1.00
C10    C     0.69792   0.30007   0.62667   0.00000  Uiso   1.00
C11    C     0.68121   0.38327   0.65487   0.00000  Uiso   1.00
C12    C     0.74995   0.45244   0.66336   0.00000  Uiso   1.00
C13    C     0.83931   0.58619   0.68766   0.00000  Uiso   1.00
C14    C     0.78410   0.19015   0.57788   0.00000  Uiso   1.00
C15    C     0.71099   0.15896   0.49945   0.00000  Uiso   1.00
C16    C     0.72142   0.12082   0.41691   0.00000  Uiso   1.00
C17    C     0.64639   0.09678   0.35399   0.00000  Uiso   1.00
C18    C     0.75691   0.14227   0.65055   0.00000  Uiso   1.00
C19    C     0.80596   0.09012   0.69506   0.00000  Uiso   1.00
C20    C     0.76959   0.05204   0.75935   0.00000  Uiso   1.00
C21    C     0.78038   0.28643   0.60764   0.00000  Uiso   1.00
C22    C     0.84915   0.35548   0.61611   0.00000  Uiso   1.00
C23    C     0.83255   0.43877   0.64431   0.00000  Uiso   1.00
H24    H     0.56811   0.22589   0.62771   0.00000  Uiso   1.00
H25    H     0.48968   0.15918   0.47041   0.00000  Uiso   1.00
H26    H     0.57421   0.12849   0.74852   0.00000  Uiso   1.00
H27    H     0.61740   0.39381   0.66958   0.00000  Uiso   1.00
H28    H     0.43908   0.07916   0.28763   0.00000  Uiso   1.00
H29    H     0.61732   0.01448   0.87407   0.00000  Uiso   1.00
H30    H     0.70840   0.57396   0.70761   0.00000  Uiso   1.00
H31    H     0.84829   0.17953   0.56307   0.00000  Uiso   1.00
H32    H     0.78524   0.11027   0.40221   0.00000  Uiso   1.00
H33    H     0.86976   0.07958   0.68033   0.00000  Uiso   1.00
H34    H     0.91295   0.34490   0.60138   0.00000  Uiso   1.00
H35    H     0.67896   0.03947   0.23227   0.00000  Uiso   1.00
H36    H     0.85721   0.97478   0.81872   0.00000  Uiso   1.00
H37    H     0.94828   0.53426   0.65225   0.00000  Uiso   1.00
O38    O     0.51248   0.01457   0.15531   0.00000  Uiso   1.00
O39    O     0.74633   0.92972   0.92471   0.00000  Uiso   1.00
O40    O     0.86582   0.66374   0.70631   0.00000  Uiso   1.00
N41    N     0.50420   0.07934   0.29667   0.00000  Uiso   1.00
N42    N     0.67083   0.01885   0.84495   0.00000  Uiso   1.00
N43    N     0.75599   0.54192   0.68934   0.00000  Uiso   1.00
N44    N     0.63327   0.05798   0.26688   0.00000  Uiso   1.00
N45    N     0.79991   0.99749   0.81516   0.00000  Uiso   1.00
N46    N     0.88507   0.52056   0.65956   0.00000  Uiso   1.00
C47    C     0.61305   0.63272   0.21538   0.00000  Uiso   1.00
C48    C     0.51823   0.62893   0.17269   0.00000  Uiso   1.00
C49    C     0.45517   0.55401   0.14876   0.00000  Uiso   1.00
C50    C     0.37222   0.56427   0.11056   0.00000  Uiso   1.00
C51    C     0.22790   0.54586   0.04632   0.00000  Uiso   1.00
C52    C     0.66994   0.67489   0.15614   0.00000  Uiso   1.00
C53    C     0.73444   0.63862   0.11830   0.00000  Uiso   1.00
C54    C     0.77920   0.68757   0.06619   0.00000  Uiso   1.00
C55    C     0.87045   0.74054   0.97631   0.00000  Uiso   1.00
C56    C     0.62689   0.69812   0.29998   0.00000  Uiso   1.00
C57    C     0.65522   0.68139   0.38309   0.00000  Uiso   1.00
C58    C     0.66376   0.74991   0.45207   0.00000  Uiso   1.00
C59    C     0.68818   0.83896   0.58553   0.00000  Uiso   1.00
C60    C     0.57787   0.78416   0.19011   0.00000  Uiso   1.00
C61    C     0.49912   0.71119   0.15896   0.00000  Uiso   1.00
C62    C     0.41624   0.72156   0.12080   0.00000  Uiso   1.00
C63    C     0.35307   0.64667   0.09681   0.00000  Uiso   1.00
C64    C     0.65083   0.75714   0.14241   0.00000  Uiso   1.00
C65    C     0.69551   0.80616   0.09034   0.00000  Uiso   1.00
C66    C     0.76006   0.76997   0.05244   0.00000  Uiso   1.00
C67    C     0.60778   0.78038   0.28626   0.00000  Uiso   1.00
C68    C     0.61629   0.84894   0.35513   0.00000  Uiso   1.00
C69    C     0.64462   0.83232   0.43832   0.00000  Uiso   1.00
H70    H     0.62794   0.56869   0.22606   0.00000  Uiso   1.00
H71    H     0.46999   0.49037   0.15938   0.00000  Uiso   1.00
H72    H     0.74922   0.57496   0.12895   0.00000  Uiso   1.00
H73    H     0.67000   0.61773   0.39368   0.00000  Uiso   1.00
H74    H     0.28645   0.43981   0.07937   0.00000  Uiso   1.00
H75    H     0.87524   0.61819   0.01522   0.00000  Uiso   1.00
H76    H     0.70821   0.70838   0.57347   0.00000  Uiso   1.00
H77    H     0.56300   0.84820   0.17942   0.00000  Uiso   1.00
H78    H     0.40147   0.78522   0.11018   0.00000  Uiso   1.00
H79    H     0.68071   0.86981   0.07974   0.00000  Uiso   1.00
H80    H     0.60149   0.91258   0.34448   0.00000  Uiso   1.00
H81    H     0.23084   0.67912   0.03943   0.00000  Uiso   1.00
H82    H     0.81964   0.85751   0.97528   0.00000  Uiso   1.00
H83    H     0.65261   0.94770   0.53353   0.00000  Uiso   1.00
O84    O     0.15358   0.51299   0.01467   0.00000  Uiso   1.00
O85    O     0.92606   0.74703   0.93052   0.00000  Uiso   1.00
O86    O     0.70691   0.86535   0.66293   0.00000  Uiso   1.00
N87    N     0.29552   0.50478   0.07949   0.00000  Uiso   1.00
N88    N     0.84600   0.67155   0.01950   0.00000  Uiso   1.00
N89    N     0.68987   0.75588   0.54142   0.00000  Uiso   1.00
N90    N     0.26560   0.63355   0.05800   0.00000  Uiso   1.00
N91    N     0.81608   0.80032   0.99801   0.00000  Uiso   1.00
N92    N     0.65994   0.88465   0.51993   0.00000  Uiso   1.00
C93    C     0.21528   0.61308   0.63312   0.00000  Uiso   1.00
C94    C     0.17242   0.51844   0.62939   0.00000  Uiso   1.00
C95    C     0.14838   0.45558   0.55465   0.00000  Uiso   1.00
C96    C     0.11004   0.37278   0.56493   0.00000  Uiso   1.00
C97    C     0.04555   0.22876   0.54664   0.00000  Uiso   1.00
C98    C     0.15580   0.66974   0.67510   0.00000  Uiso   1.00
C99    C     0.11780   0.73409   0.63878   0.00000  Uiso   1.00
C100   C     0.06547   0.77866   0.68754   0.00000  Uiso   1.00
C101   C     0.97524   0.86957   0.74023   0.00000  Uiso   1.00
C102   C     0.30023   0.62689   0.69849   0.00000  Uiso   1.00
C103   C     0.38367   0.65524   0.68184   0.00000  Uiso   1.00
C104   C     0.45295   0.66376   0.75030   0.00000  Uiso   1.00
C105   C     0.58696   0.68814   0.83931   0.00000  Uiso   1.00
C106   C     0.18994   0.57781   0.78431   0.00000  Uiso   1.00
C107   C     0.15866   0.49929   0.71152   0.00000  Uiso   1.00
C108   C     0.12034   0.41656   0.72192   0.00000  Uiso   1.00
C109   C     0.09625   0.35359   0.64719   0.00000  Uiso   1.00
C110   C     0.14204   0.65058   0.75721   0.00000  Uiso   1.00
C111   C     0.08976   0.69507   0.80605   0.00000  Uiso   1.00
C112   C     0.05169   0.75947   0.76981   0.00000  Uiso   1.00
C113   C     0.28647   0.60773   0.78061   0.00000  Uiso   1.00
C114   C     0.35563   0.61622   0.84911   0.00000  Uiso   1.00
C115   C     0.43916   0.64457   0.83257   0.00000  Uiso   1.00
H116   H     0.22599   0.62799   0.56919   0.00000  Uiso   1.00
H117   H     0.15903   0.47043   0.49110   0.00000  Uiso   1.00
H118   H     0.12847   0.74890   0.57523   0.00000  Uiso   1.00
H119   H     0.39429   0.67006   0.61828   0.00000  Uiso   1.00
H120   H     0.07870   0.28730   0.44074   0.00000  Uiso   1.00
H121   H     0.01428   0.87450   0.61813   0.00000  Uiso   1.00
H122   H     0.57483   0.70825   0.70892   0.00000  Uiso   1.00
H123   H     0.17922   0.56290   0.84825   0.00000  Uiso   1.00
H124   H     0.10970   0.40176   0.78547   0.00000  Uiso   1.00
H125   H     0.07913   0.68023   0.86960   0.00000  Uiso   1.00
H126   H     0.34496   0.60139   0.91265   0.00000  Uiso   1.00
H127   H     0.03866   0.23157   0.67966   0.00000  Uiso   1.00
H128   H     0.97423   0.81877   0.85706   0.00000  Uiso   1.00
H129   H     0.53478   0.65251   0.94784   0.00000  Uiso   1.00
O130   O     0.01377   0.15461   0.51386   0.00000  Uiso   1.00
O131   O     0.92926   0.92500   0.74661   0.00000  Uiso   1.00
O132   O     0.66468   0.70688   0.86572   0.00000  Uiso   1.00
N133   N     0.07884   0.29629   0.50559   0.00000  Uiso   1.00
N134   N     0.01859   0.84528   0.67143   0.00000  Uiso   1.00
N135   N     0.54265   0.68987   0.75632   0.00000  Uiso   1.00
N136   N     0.05729   0.26630   0.63415   0.00000  Uiso   1.00
N137   N     0.99704   0.81529   0.80000   0.00000  Uiso   1.00
N138   N     0.52111   0.65988   0.88488   0.00000  Uiso   1.00
C139   C     0.36770   0.78473   0.38710   0.00000  Uiso   1.00
C140   C     0.37146   0.82740   0.48154   0.00000  Uiso   1.00
C141   C     0.44652   0.85139   0.54434   0.00000  Uiso   1.00
C142   C     0.43621   0.88955   0.62695   0.00000  Uiso   1.00
C143   C     0.45460   0.95377   0.77068   0.00000  Uiso   1.00
C144   C     0.32554   0.84408   0.33043   0.00000  Uiso   1.00
C145   C     0.36199   0.88209   0.26619   0.00000  Uiso   1.00
C146   C     0.31301   0.93429   0.22159   0.00000  Uiso   1.00
C147   C     0.26008   0.02436   0.13068   0.00000  Uiso   1.00
C148   C     0.30208   0.69993   0.37333   0.00000  Uiso   1.00
C149   C     0.31879   0.61673   0.34513   0.00000  Uiso   1.00
C150   C     0.25005   0.54756   0.33664   0.00000  Uiso   1.00
C151   C     0.16069   0.41381   0.31234   0.00000  Uiso   1.00
C152   C     0.21590   0.80985   0.42212   0.00000  Uiso   1.00
C153   C     0.28901   0.84104   0.50055   0.00000  Uiso   1.00
C154   C     0.27858   0.87918   0.58309   0.00000  Uiso   1.00
C155   C     0.35361   0.90322   0.64601   0.00000  Uiso   1.00
C156   C     0.24309   0.85773   0.34945   0.00000  Uiso   1.00
C157   C     0.19404   0.90988   0.30494   0.00000  Uiso   1.00
C158   C     0.23041   0.94796   0.24065   0.00000  Uiso   1.00
C159   C     0.21962   0.71357   0.39236   0.00000  Uiso   1.00
C160   C     0.15085   0.64452   0.38389   0.00000  Uiso   1.00
C161   C     0.16745   0.56123   0.35569   0.00000  Uiso   1.00
H162   H     0.43189   0.77411   0.37229   0.00000  Uiso   1.00
H163   H     0.51032   0.84082   0.52959   0.00000  Uiso   1.00
H164   H     0.42579   0.87151   0.25148   0.00000  Uiso   1.00
H165   H     0.38260   0.60619   0.33042   0.00000  Uiso   1.00
H166   H     0.56092   0.92084   0.71237   0.00000  Uiso   1.00
H167   H     0.38268   0.98552   0.12593   0.00000  Uiso   1.00
H168   H     0.29160   0.42604   0.29239   0.00000  Uiso   1.00
H169   H     0.15171   0.82047   0.43693   0.00000  Uiso   1.00
H170   H     0.21476   0.88973   0.59779   0.00000  Uiso   1.00
H171   H     0.13024   0.92042   0.31967   0.00000  Uiso   1.00
H172   H     0.08705   0.65510   0.39862   0.00000  Uiso   1.00
H173   H     0.32104   0.96053   0.76773   0.00000  Uiso   1.00
H174   H     0.14279   0.02522   0.18128   0.00000  Uiso   1.00
H175   H     0.05172   0.46574   0.34775   0.00000  Uiso   1.00
O176   O     0.48752   0.98543   0.84469   0.00000  Uiso   1.00
O177   O     0.25367   0.07028   0.07529   0.00000  Uiso   1.00
O178   O     0.13418   0.33626   0.29369   0.00000  Uiso   1.00
N179   N     0.49580   0.92066   0.70333   0.00000  Uiso   1.00
N180   N     0.32917   0.98115   0.15505   0.00000  Uiso   1.00
N181   N     0.24401   0.45808   0.31066   0.00000  Uiso   1.00
N182   N     0.36673   0.94202   0.73312   0.00000  Uiso   1.00
N183   N     0.20009   0.00251   0.18484   0.00000  Uiso   1.00
N184   N     0.11493   0.47944   0.34044   0.00000  Uiso   1.00
C185   C     0.38695   0.36728   0.78462   0.00000  Uiso   1.00
C186   C     0.48177   0.37107   0.82731   0.00000  Uiso   1.00
C187   C     0.54483   0.44599   0.85124   0.00000  Uiso   1.00
C188   C     0.62778   0.43573   0.88944   0.00000  Uiso   1.00
C189   C     0.77210   0.45414   0.95368   0.00000  Uiso   1.00
C190   C     0.33006   0.32511   0.84386   0.00000  Uiso   1.00
C191   C     0.26556   0.36138   0.88170   0.00000  Uiso   1.00
C192   C     0.22080   0.31243   0.93381   0.00000  Uiso   1.00
C193   C     0.12955   0.25946   0.02369   0.00000  Uiso   1.00
C194   C     0.37311   0.30188   0.70002   0.00000  Uiso   1.00
C195   C     0.34478   0.31861   0.61691   0.00000  Uiso   1.00
C196   C     0.33624   0.25009   0.54793   0.00000  Uiso   1.00
C197   C     0.31182   0.16104   0.41447   0.00000  Uiso   1.00
C198   C     0.42213   0.21584   0.80989   0.00000  Uiso   1.00
C199   C     0.50088   0.28881   0.84104   0.00000  Uiso   1.00
C200   C     0.58376   0.27844   0.87920   0.00000  Uiso   1.00
C201   C     0.64693   0.35333   0.90319   0.00000  Uiso   1.00
C202   C     0.34917   0.24286   0.85759   0.00000  Uiso   1.00
C203   C     0.30449   0.19384   0.90966   0.00000  Uiso   1.00
C204   C     0.23994   0.23003   0.94757   0.00000  Uiso   1.00
C205   C     0.39222   0.21962   0.71374   0.00000  Uiso   1.00
C206   C     0.38371   0.15106   0.64488   0.00000  Uiso   1.00
C207   C     0.35538   0.16768   0.56168   0.00000  Uiso   1.00
H208   H     0.37206   0.43131   0.77394   0.00000  Uiso   1.00
H209   H     0.53001   0.50963   0.84062   0.00000  Uiso   1.00
H210   H     0.25078   0.42504   0.87105   0.00000  Uiso   1.00
H211   H     0.33000   0.38227   0.60632   0.00000  Uiso   1.00
H212   H     0.71355   0.56019   0.92063   0.00000  Uiso   1.00
H213   H     0.12476   0.38181   0.98478   0.00000  Uiso   1.00
H214   H     0.29179   0.29162   0.42653   0.00000  Uiso   1.00
H215   H     0.43700   0.15180   0.82058   0.00000  Uiso   1.00
H216   H     0.59853   0.21478   0.88982   0.00000  Uiso   1.00
H217   H     0.31929   0.13019   0.92026   0.00000  Uiso   1.00
H218   H     0.39851   0.08742   0.65552   0.00000  Uiso   1.00
H219   H     0.76916   0.32088   0.96057   0.00000  Uiso   1.00
H220   H     0.18036   0.14249   0.02472   0.00000  Uiso   1.00
H221   H     0.34739   0.05230   0.46647   0.00000  Uiso   1.00
O222   O     0.84643   0.48701   0.98533   0.00000  Uiso   1.00
O223   O     0.07394   0.25297   0.06948   0.00000  Uiso   1.00
O224   O     0.29309   0.13465   0.33707   0.00000  Uiso   1.00
N225   N     0.70448   0.49522   0.92051   0.00000  Uiso   1.00
N226   N     0.15400   0.32845   0.98050   0.00000  Uiso   1.00
N227   N     0.31013   0.24412   0.45858   0.00000  Uiso   1.00
N228   N     0.73440   0.36645   0.94200   0.00000  Uiso   1.00
N229   N     0.18392   0.19968   0.00199   0.00000  Uiso   1.00
N230   N     0.34006   0.11535   0.48007   0.00000  Uiso   1.00
C231   C     0.78472   0.38692   0.36688   0.00000  Uiso   1.00
C232   C     0.82758   0.48156   0.37061   0.00000  Uiso   1.00
C233   C     0.85162   0.54442   0.44535   0.00000  Uiso   1.00
C234   C     0.88996   0.62722   0.43507   0.00000  Uiso   1.00
C235   C     0.95445   0.77124   0.45336   0.00000  Uiso   1.00
C236   C     0.84420   0.33026   0.32490   0.00000  Uiso   1.00
C237   C     0.88220   0.26591   0.36122   0.00000  Uiso   1.00
C238   C     0.93453   0.22134   0.31246   0.00000  Uiso   1.00
C239   C     0.02476   0.13043   0.25977   0.00000  Uiso   1.00
C240   C     0.69977   0.37311   0.30152   0.00000  Uiso   1.00
C241   C     0.61633   0.34476   0.31816   0.00000  Uiso   1.00
C242   C     0.54705   0.33624   0.24970   0.00000  Uiso   1.00
C243   C     0.41304   0.31186   0.16069   0.00000  Uiso   1.00
C244   C     0.81006   0.42219   0.21569   0.00000  Uiso   1.00
C245   C     0.84134   0.50071   0.28848   0.00000  Uiso   1.00
C246   C     0.87966   0.58344   0.27808   0.00000  Uiso   1.00
C247   C     0.90375   0.64642   0.35281   0.00000  Uiso   1.00
C248   C     0.85796   0.34942   0.24279   0.00000  Uiso   1.00
C249   C     0.91024   0.30493   0.19395   0.00000  Uiso   1.00
C250   C     0.94831   0.24053   0.23019   0.00000  Uiso   1.00
C251   C     0.71353   0.39227   0.21939   0.00000  Uiso   1.00
C252   C     0.64437   0.38378   0.15089   0.00000  Uiso   1.00
C253   C     0.56084   0.35543   0.16743   0.00000  Uiso   1.00
H254   H     0.77401   0.37201   0.43081   0.00000  Uiso   1.00
H255   H     0.84097   0.52957   0.50890   0.00000  Uiso   1.00
H256   H     0.87153   0.25110   0.42477   0.00000  Uiso   1.00
H257   H     0.60571   0.32994   0.38172   0.00000  Uiso   1.00
H258   H     0.92130   0.71270   0.55926   0.00000  Uiso   1.00
H259   H     0.98572   0.12550   0.38187   0.00000  Uiso   1.00
H260   H     0.42517   0.29175   0.29108   0.00000  Uiso   1.00
H261   H     0.82078   0.43710   0.15175   0.00000  Uiso   1.00
H262   H     0.89030   0.59824   0.21453   0.00000  Uiso   1.00
H263   H     0.92087   0.31977   0.13040   0.00000  Uiso   1.00
H264   H     0.65504   0.39861   0.08735   0.00000  Uiso   1.00
H265   H     0.96134   0.76844   0.32034   0.00000  Uiso   1.00
H266   H     0.02577   0.18123   0.14294   0.00000  Uiso   1.00
H267   H     0.46522   0.34749   0.05216   0.00000  Uiso   1.00
O268   O     0.98623   0.84539   0.48614   0.00000  Uiso   1.00
O269   O     0.07074   0.07500   0.25339   0.00000  Uiso   1.00
O270   O     0.33532   0.29312   0.13428   0.00000  Uiso   1.00
N271   N     0.92116   0.70371   0.49441   0.00000  Uiso   1.00
N272   N     0.98141   0.15472   0.32857   0.00000  Uiso   1.00
N273   N     0.45735   0.31013   0.24368   0.00000  Uiso   1.00
N274   N     0.94271   0.73370   0.36585   0.00000  Uiso   1.00
N275   N     0.00296   0.18471   0.20000   0.00000  Uiso   1.00
N276   N     0.47889   0.34012   0.11512   0.00000  Uiso   1.00
