data_job_03383
_audit_creation_date              2018-12-19
_audit_creation_method            'Materials Studio'
_symmetry_space_group_name_H-M    'P1'
_symmetry_Int_Tables_number       1
_symmetry_cell_setting            triclinic
loop_
_symmetry_equiv_pos_as_xyz
  x,y,z
_cell_length_a                    14.9309
_cell_length_b                    10.1301
_cell_length_c                    39.0612
_cell_angle_alpha                 90.0000
_cell_angle_beta                  102.8226
_cell_angle_gamma                 90.0000
loop_
_atom_site_label
_atom_site_type_symbol
_atom_site_fract_x
_atom_site_fract_y
_atom_site_fract_z
_atom_site_U_iso_or_equiv
_atom_site_adp_type
_atom_site_occupancy
C1     C     0.47379   0.41189   0.90639   0.00000  Uiso   1.00
C2     C     0.51027   0.32692   0.93870   0.00000  Uiso   1.00
C3     C     0.46518   0.30168   0.96549   0.00000  Uiso   1.00
C4     C     0.51011   0.22151   0.99276   0.00000  Uiso   1.00
C5     C     0.55357   0.09768   0.04288   0.00000  Uiso   1.00
C6     C     0.54626   0.51786   0.90628   0.00000  Uiso   1.00
C7     C     0.53143   0.65316   0.90581   0.00000  Uiso   1.00
C8     C     0.60665   0.73372   0.90579   0.00000  Uiso   1.00
C9     C     0.70597   0.90633   0.90555   0.00000  Uiso   1.00
C10    C     0.47445   0.32407   0.87474   0.00000  Uiso   1.00
C11    C     0.39924   0.29646   0.84773   0.00000  Uiso   1.00
C12    C     0.41401   0.21389   0.82116   0.00000  Uiso   1.00
C13    C     0.40183   0.08562   0.77194   0.00000  Uiso   1.00
C14    C     0.63375   0.31438   0.90720   0.00000  Uiso   1.00
C15    C     0.59716   0.27396   0.93914   0.00000  Uiso   1.00
C16    C     0.64217   0.19379   0.96638   0.00000  Uiso   1.00
C17    C     0.59715   0.16844   0.99320   0.00000  Uiso   1.00
C18    C     0.63315   0.46490   0.90672   0.00000  Uiso   1.00
C19    C     0.70841   0.54528   0.90671   0.00000  Uiso   1.00
C20    C     0.69370   0.68066   0.90623   0.00000  Uiso   1.00
C21    C     0.56134   0.27110   0.87518   0.00000  Uiso   1.00
C22    C     0.57623   0.18857   0.84863   0.00000  Uiso   1.00
C23    C     0.50106   0.16083   0.82160   0.00000  Uiso   1.00
H24    H     0.40615   0.45313   0.90605   0.00000  Uiso   1.00
H25    H     0.39795   0.34270   0.96514   0.00000  Uiso   1.00
H26    H     0.46418   0.69412   0.90547   0.00000  Uiso   1.00
H27    H     0.33202   0.33747   0.84740   0.00000  Uiso   1.00
H28    H     0.42719   0.19695   0.03085   0.00000  Uiso   1.00
H29    H     0.56684   0.93793   0.90502   0.00000  Uiso   1.00
H30    H     0.28815   0.18587   0.78258   0.00000  Uiso   1.00
H31    H     0.70140   0.27314   0.90754   0.00000  Uiso   1.00
H32    H     0.70940   0.15282   0.96672   0.00000  Uiso   1.00
H33    H     0.77564   0.50425   0.90705   0.00000  Uiso   1.00
H34    H     0.64347   0.14760   0.84898   0.00000  Uiso   1.00
H35    H     0.67998   0.04284   0.03214   0.00000  Uiso   1.00
H36    H     0.81963   0.78384   0.90630   0.00000  Uiso   1.00
H37    H     0.54094   0.03177   0.78386   0.00000  Uiso   1.00
O38    O     0.55354   0.04403   0.07040   0.00000  Uiso   1.00
O39    O     0.73675   0.01618   0.90530   0.00000  Uiso   1.00
O40    O     0.37111   0.02948   0.74467   0.00000  Uiso   1.00
N41    N     0.48558   0.17717   0.02303   0.00000  Uiso   1.00
N42    N     0.61615   0.86995   0.90539   0.00000  Uiso   1.00
N43    N     0.35560   0.16686   0.79092   0.00000  Uiso   1.00
N44    N     0.62160   0.09424   0.02372   0.00000  Uiso   1.00
N45    N     0.75217   0.78703   0.90608   0.00000  Uiso   1.00
N46    N     0.49162   0.08394   0.79161   0.00000  Uiso   1.00
C47    C     0.97379   0.91189   0.90639   0.00000  Uiso   1.00
C48    C     0.01027   0.82692   0.93870   0.00000  Uiso   1.00
C49    C     0.96518   0.80168   0.96549   0.00000  Uiso   1.00
C50    C     0.01011   0.72151   0.99276   0.00000  Uiso   1.00
C51    C     0.05357   0.59768   0.04288   0.00000  Uiso   1.00
C52    C     0.04626   0.01786   0.90628   0.00000  Uiso   1.00
C53    C     0.03143   0.15316   0.90581   0.00000  Uiso   1.00
C54    C     0.10665   0.23372   0.90579   0.00000  Uiso   1.00
C55    C     0.20597   0.40633   0.90555   0.00000  Uiso   1.00
C56    C     0.97445   0.82407   0.87474   0.00000  Uiso   1.00
C57    C     0.89924   0.79646   0.84773   0.00000  Uiso   1.00
C58    C     0.91401   0.71389   0.82116   0.00000  Uiso   1.00
C59    C     0.90183   0.58562   0.77194   0.00000  Uiso   1.00
C60    C     0.13375   0.81438   0.90720   0.00000  Uiso   1.00
C61    C     0.09716   0.77396   0.93914   0.00000  Uiso   1.00
C62    C     0.14217   0.69379   0.96638   0.00000  Uiso   1.00
C63    C     0.09715   0.66844   0.99320   0.00000  Uiso   1.00
C64    C     0.13315   0.96490   0.90672   0.00000  Uiso   1.00
C65    C     0.20841   0.04528   0.90671   0.00000  Uiso   1.00
C66    C     0.19370   0.18066   0.90623   0.00000  Uiso   1.00
C67    C     0.06134   0.77110   0.87518   0.00000  Uiso   1.00
C68    C     0.07623   0.68857   0.84863   0.00000  Uiso   1.00
C69    C     0.00106   0.66083   0.82160   0.00000  Uiso   1.00
H70    H     0.90615   0.95313   0.90605   0.00000  Uiso   1.00
H71    H     0.89795   0.84270   0.96514   0.00000  Uiso   1.00
H72    H     0.96418   0.19412   0.90547   0.00000  Uiso   1.00
H73    H     0.83202   0.83747   0.84740   0.00000  Uiso   1.00
H74    H     0.92719   0.69695   0.03085   0.00000  Uiso   1.00
H75    H     0.06684   0.43793   0.90502   0.00000  Uiso   1.00
H76    H     0.78815   0.68587   0.78258   0.00000  Uiso   1.00
H77    H     0.20140   0.77314   0.90754   0.00000  Uiso   1.00
H78    H     0.20940   0.65282   0.96672   0.00000  Uiso   1.00
H79    H     0.27564   0.00425   0.90705   0.00000  Uiso   1.00
H80    H     0.14347   0.64760   0.84898   0.00000  Uiso   1.00
H81    H     0.17998   0.54284   0.03214   0.00000  Uiso   1.00
H82    H     0.31963   0.28384   0.90630   0.00000  Uiso   1.00
H83    H     0.04094   0.53177   0.78386   0.00000  Uiso   1.00
O84    O     0.05354   0.54403   0.07040   0.00000  Uiso   1.00
O85    O     0.23675   0.51618   0.90530   0.00000  Uiso   1.00
O86    O     0.87111   0.52948   0.74467   0.00000  Uiso   1.00
N87    N     0.98558   0.67717   0.02303   0.00000  Uiso   1.00
N88    N     0.11615   0.36995   0.90539   0.00000  Uiso   1.00
N89    N     0.85560   0.66686   0.79092   0.00000  Uiso   1.00
N90    N     0.12160   0.59424   0.02372   0.00000  Uiso   1.00
N91    N     0.25217   0.28703   0.90608   0.00000  Uiso   1.00
N92    N     0.99162   0.58394   0.79161   0.00000  Uiso   1.00
C93    C     0.52621   0.41189   0.59361   0.00000  Uiso   1.00
C94    C     0.48973   0.32692   0.56130   0.00000  Uiso   1.00
C95    C     0.53482   0.30168   0.53451   0.00000  Uiso   1.00
C96    C     0.48989   0.22151   0.50724   0.00000  Uiso   1.00
C97    C     0.44643   0.09768   0.45712   0.00000  Uiso   1.00
C98    C     0.45374   0.51786   0.59372   0.00000  Uiso   1.00
C99    C     0.46857   0.65316   0.59419   0.00000  Uiso   1.00
C100   C     0.39335   0.73372   0.59421   0.00000  Uiso   1.00
C101   C     0.29403   0.90633   0.59445   0.00000  Uiso   1.00
C102   C     0.52555   0.32407   0.62526   0.00000  Uiso   1.00
C103   C     0.60076   0.29646   0.65227   0.00000  Uiso   1.00
C104   C     0.58599   0.21389   0.67884   0.00000  Uiso   1.00
C105   C     0.59817   0.08562   0.72806   0.00000  Uiso   1.00
C106   C     0.36625   0.31438   0.59280   0.00000  Uiso   1.00
C107   C     0.40284   0.27396   0.56086   0.00000  Uiso   1.00
C108   C     0.35783   0.19379   0.53362   0.00000  Uiso   1.00
C109   C     0.40285   0.16844   0.50680   0.00000  Uiso   1.00
C110   C     0.36685   0.46490   0.59328   0.00000  Uiso   1.00
C111   C     0.29159   0.54528   0.59329   0.00000  Uiso   1.00
C112   C     0.30630   0.68066   0.59377   0.00000  Uiso   1.00
C113   C     0.43866   0.27110   0.62482   0.00000  Uiso   1.00
C114   C     0.42377   0.18857   0.65137   0.00000  Uiso   1.00
C115   C     0.49894   0.16083   0.67840   0.00000  Uiso   1.00
H116   H     0.59385   0.45313   0.59395   0.00000  Uiso   1.00
H117   H     0.60205   0.34270   0.53486   0.00000  Uiso   1.00
H118   H     0.53582   0.69412   0.59453   0.00000  Uiso   1.00
H119   H     0.66798   0.33747   0.65260   0.00000  Uiso   1.00
H120   H     0.57281   0.19695   0.46915   0.00000  Uiso   1.00
H121   H     0.43316   0.93793   0.59498   0.00000  Uiso   1.00
H122   H     0.71185   0.18587   0.71742   0.00000  Uiso   1.00
H123   H     0.29860   0.27314   0.59246   0.00000  Uiso   1.00
H124   H     0.29060   0.15282   0.53328   0.00000  Uiso   1.00
H125   H     0.22436   0.50425   0.59295   0.00000  Uiso   1.00
H126   H     0.35653   0.14760   0.65102   0.00000  Uiso   1.00
H127   H     0.32002   0.04284   0.46786   0.00000  Uiso   1.00
H128   H     0.18037   0.78384   0.59370   0.00000  Uiso   1.00
H129   H     0.45906   0.03177   0.71614   0.00000  Uiso   1.00
O130   O     0.44646   0.04403   0.42960   0.00000  Uiso   1.00
O131   O     0.26325   0.01618   0.59470   0.00000  Uiso   1.00
O132   O     0.62889   0.02948   0.75533   0.00000  Uiso   1.00
N133   N     0.51442   0.17717   0.47697   0.00000  Uiso   1.00
N134   N     0.38385   0.86995   0.59461   0.00000  Uiso   1.00
N135   N     0.64440   0.16686   0.70908   0.00000  Uiso   1.00
N136   N     0.37840   0.09424   0.47628   0.00000  Uiso   1.00
N137   N     0.24783   0.78703   0.59392   0.00000  Uiso   1.00
N138   N     0.50838   0.08394   0.70839   0.00000  Uiso   1.00
C139   C     0.02621   0.91189   0.59361   0.00000  Uiso   1.00
C140   C     0.98973   0.82692   0.56130   0.00000  Uiso   1.00
C141   C     0.03482   0.80168   0.53451   0.00000  Uiso   1.00
C142   C     0.98989   0.72151   0.50724   0.00000  Uiso   1.00
C143   C     0.94643   0.59768   0.45712   0.00000  Uiso   1.00
C144   C     0.95374   0.01786   0.59372   0.00000  Uiso   1.00
C145   C     0.96857   0.15316   0.59419   0.00000  Uiso   1.00
C146   C     0.89335   0.23372   0.59421   0.00000  Uiso   1.00
C147   C     0.79403   0.40633   0.59445   0.00000  Uiso   1.00
C148   C     0.02555   0.82407   0.62526   0.00000  Uiso   1.00
C149   C     0.10076   0.79646   0.65227   0.00000  Uiso   1.00
C150   C     0.08599   0.71389   0.67884   0.00000  Uiso   1.00
C151   C     0.09817   0.58562   0.72806   0.00000  Uiso   1.00
C152   C     0.86625   0.81438   0.59280   0.00000  Uiso   1.00
C153   C     0.90284   0.77396   0.56086   0.00000  Uiso   1.00
C154   C     0.85783   0.69379   0.53362   0.00000  Uiso   1.00
C155   C     0.90285   0.66844   0.50680   0.00000  Uiso   1.00
C156   C     0.86685   0.96490   0.59328   0.00000  Uiso   1.00
C157   C     0.79159   0.04528   0.59329   0.00000  Uiso   1.00
C158   C     0.80630   0.18066   0.59377   0.00000  Uiso   1.00
C159   C     0.93866   0.77110   0.62482   0.00000  Uiso   1.00
C160   C     0.92377   0.68857   0.65137   0.00000  Uiso   1.00
C161   C     0.99894   0.66083   0.67840   0.00000  Uiso   1.00
H162   H     0.09385   0.95313   0.59395   0.00000  Uiso   1.00
H163   H     0.10205   0.84270   0.53486   0.00000  Uiso   1.00
H164   H     0.03582   0.19412   0.59453   0.00000  Uiso   1.00
H165   H     0.16798   0.83747   0.65260   0.00000  Uiso   1.00
H166   H     0.07281   0.69695   0.46915   0.00000  Uiso   1.00
H167   H     0.93316   0.43793   0.59498   0.00000  Uiso   1.00
H168   H     0.21185   0.68587   0.71742   0.00000  Uiso   1.00
H169   H     0.79860   0.77314   0.59246   0.00000  Uiso   1.00
H170   H     0.79060   0.65282   0.53328   0.00000  Uiso   1.00
H171   H     0.72436   0.00425   0.59295   0.00000  Uiso   1.00
H172   H     0.85653   0.64760   0.65102   0.00000  Uiso   1.00
H173   H     0.82002   0.54284   0.46786   0.00000  Uiso   1.00
H174   H     0.68037   0.28384   0.59370   0.00000  Uiso   1.00
H175   H     0.95906   0.53177   0.71614   0.00000  Uiso   1.00
O176   O     0.94646   0.54403   0.42960   0.00000  Uiso   1.00
O177   O     0.76325   0.51618   0.59470   0.00000  Uiso   1.00
O178   O     0.12889   0.52948   0.75533   0.00000  Uiso   1.00
N179   N     0.01442   0.67717   0.47697   0.00000  Uiso   1.00
N180   N     0.88385   0.36995   0.59461   0.00000  Uiso   1.00
N181   N     0.14440   0.66686   0.70908   0.00000  Uiso   1.00
N182   N     0.87840   0.59424   0.47628   0.00000  Uiso   1.00
N183   N     0.74783   0.28703   0.59392   0.00000  Uiso   1.00
N184   N     0.00838   0.58394   0.70839   0.00000  Uiso   1.00
C185   C     0.52621   0.58811   0.09361   0.00000  Uiso   1.00
C186   C     0.48973   0.67308   0.06130   0.00000  Uiso   1.00
C187   C     0.53482   0.69832   0.03451   0.00000  Uiso   1.00
C188   C     0.48989   0.77849   0.00724   0.00000  Uiso   1.00
C189   C     0.44643   0.90232   0.95712   0.00000  Uiso   1.00
C190   C     0.45374   0.48214   0.09372   0.00000  Uiso   1.00
C191   C     0.46857   0.34684   0.09419   0.00000  Uiso   1.00
C192   C     0.39335   0.26628   0.09421   0.00000  Uiso   1.00
C193   C     0.29403   0.09367   0.09445   0.00000  Uiso   1.00
C194   C     0.52555   0.67593   0.12526   0.00000  Uiso   1.00
C195   C     0.60076   0.70354   0.15227   0.00000  Uiso   1.00
C196   C     0.58599   0.78611   0.17884   0.00000  Uiso   1.00
C197   C     0.59817   0.91438   0.22806   0.00000  Uiso   1.00
C198   C     0.36625   0.68562   0.09280   0.00000  Uiso   1.00
C199   C     0.40284   0.72604   0.06086   0.00000  Uiso   1.00
C200   C     0.35783   0.80621   0.03362   0.00000  Uiso   1.00
C201   C     0.40285   0.83156   0.00680   0.00000  Uiso   1.00
C202   C     0.36685   0.53510   0.09328   0.00000  Uiso   1.00
C203   C     0.29159   0.45472   0.09329   0.00000  Uiso   1.00
C204   C     0.30630   0.31934   0.09377   0.00000  Uiso   1.00
C205   C     0.43866   0.72890   0.12482   0.00000  Uiso   1.00
C206   C     0.42377   0.81143   0.15137   0.00000  Uiso   1.00
C207   C     0.49894   0.83917   0.17840   0.00000  Uiso   1.00
H208   H     0.59385   0.54687   0.09395   0.00000  Uiso   1.00
H209   H     0.60205   0.65730   0.03486   0.00000  Uiso   1.00
H210   H     0.53582   0.30588   0.09453   0.00000  Uiso   1.00
H211   H     0.66798   0.66253   0.15260   0.00000  Uiso   1.00
H212   H     0.57281   0.80305   0.96915   0.00000  Uiso   1.00
H213   H     0.43316   0.06207   0.09498   0.00000  Uiso   1.00
H214   H     0.71185   0.81413   0.21742   0.00000  Uiso   1.00
H215   H     0.29860   0.72686   0.09246   0.00000  Uiso   1.00
H216   H     0.29060   0.84718   0.03328   0.00000  Uiso   1.00
H217   H     0.22436   0.49575   0.09295   0.00000  Uiso   1.00
H218   H     0.35653   0.85240   0.15102   0.00000  Uiso   1.00
H219   H     0.32002   0.95716   0.96786   0.00000  Uiso   1.00
H220   H     0.18037   0.21616   0.09370   0.00000  Uiso   1.00
H221   H     0.45906   0.96823   0.21614   0.00000  Uiso   1.00
O222   O     0.44646   0.95597   0.92960   0.00000  Uiso   1.00
O223   O     0.26325   0.98382   0.09470   0.00000  Uiso   1.00
O224   O     0.62889   0.97052   0.25533   0.00000  Uiso   1.00
N225   N     0.51442   0.82283   0.97697   0.00000  Uiso   1.00
N226   N     0.38385   0.13005   0.09461   0.00000  Uiso   1.00
N227   N     0.64440   0.83314   0.20908   0.00000  Uiso   1.00
N228   N     0.37840   0.90576   0.97628   0.00000  Uiso   1.00
N229   N     0.24783   0.21297   0.09392   0.00000  Uiso   1.00
N230   N     0.50838   0.91606   0.20839   0.00000  Uiso   1.00
C231   C     0.02621   0.08811   0.09361   0.00000  Uiso   1.00
C232   C     0.98973   0.17308   0.06130   0.00000  Uiso   1.00
C233   C     0.03482   0.19832   0.03451   0.00000  Uiso   1.00
C234   C     0.98989   0.27849   0.00724   0.00000  Uiso   1.00
C235   C     0.94643   0.40232   0.95712   0.00000  Uiso   1.00
C236   C     0.95374   0.98214   0.09372   0.00000  Uiso   1.00
C237   C     0.96857   0.84684   0.09419   0.00000  Uiso   1.00
C238   C     0.89335   0.76628   0.09421   0.00000  Uiso   1.00
C239   C     0.79403   0.59367   0.09445   0.00000  Uiso   1.00
C240   C     0.02555   0.17593   0.12526   0.00000  Uiso   1.00
C241   C     0.10076   0.20354   0.15227   0.00000  Uiso   1.00
C242   C     0.08599   0.28611   0.17884   0.00000  Uiso   1.00
C243   C     0.09817   0.41438   0.22806   0.00000  Uiso   1.00
C244   C     0.86625   0.18562   0.09280   0.00000  Uiso   1.00
C245   C     0.90284   0.22604   0.06086   0.00000  Uiso   1.00
C246   C     0.85783   0.30621   0.03362   0.00000  Uiso   1.00
C247   C     0.90285   0.33156   0.00680   0.00000  Uiso   1.00
C248   C     0.86685   0.03510   0.09328   0.00000  Uiso   1.00
C249   C     0.79159   0.95472   0.09329   0.00000  Uiso   1.00
C250   C     0.80630   0.81934   0.09377   0.00000  Uiso   1.00
C251   C     0.93866   0.22890   0.12482   0.00000  Uiso   1.00
C252   C     0.92377   0.31143   0.15137   0.00000  Uiso   1.00
C253   C     0.99894   0.33917   0.17840   0.00000  Uiso   1.00
H254   H     0.09385   0.04687   0.09395   0.00000  Uiso   1.00
H255   H     0.10205   0.15730   0.03486   0.00000  Uiso   1.00
H256   H     0.03582   0.80588   0.09453   0.00000  Uiso   1.00
H257   H     0.16798   0.16253   0.15260   0.00000  Uiso   1.00
H258   H     0.07281   0.30305   0.96915   0.00000  Uiso   1.00
H259   H     0.93316   0.56207   0.09498   0.00000  Uiso   1.00
H260   H     0.21185   0.31413   0.21742   0.00000  Uiso   1.00
H261   H     0.79860   0.22686   0.09246   0.00000  Uiso   1.00
H262   H     0.79060   0.34718   0.03328   0.00000  Uiso   1.00
H263   H     0.72436   0.99575   0.09295   0.00000  Uiso   1.00
H264   H     0.85653   0.35240   0.15102   0.00000  Uiso   1.00
H265   H     0.82002   0.45716   0.96786   0.00000  Uiso   1.00
H266   H     0.68037   0.71616   0.09370   0.00000  Uiso   1.00
H267   H     0.95906   0.46823   0.21614   0.00000  Uiso   1.00
O268   O     0.94646   0.45597   0.92960   0.00000  Uiso   1.00
O269   O     0.76325   0.48382   0.09470   0.00000  Uiso   1.00
O270   O     0.12889   0.47052   0.25533   0.00000  Uiso   1.00
N271   N     0.01442   0.32283   0.97697   0.00000  Uiso   1.00
N272   N     0.88385   0.63005   0.09461   0.00000  Uiso   1.00
N273   N     0.14440   0.33314   0.20908   0.00000  Uiso   1.00
N274   N     0.87840   0.40576   0.97628   0.00000  Uiso   1.00
N275   N     0.74783   0.71297   0.09392   0.00000  Uiso   1.00
N276   N     0.00838   0.41606   0.20839   0.00000  Uiso   1.00
C277   C     0.47379   0.58811   0.40639   0.00000  Uiso   1.00
C278   C     0.51027   0.67308   0.43870   0.00000  Uiso   1.00
C279   C     0.46518   0.69832   0.46549   0.00000  Uiso   1.00
C280   C     0.51011   0.77849   0.49276   0.00000  Uiso   1.00
C281   C     0.55357   0.90232   0.54288   0.00000  Uiso   1.00
C282   C     0.54626   0.48214   0.40628   0.00000  Uiso   1.00
C283   C     0.53143   0.34684   0.40581   0.00000  Uiso   1.00
C284   C     0.60665   0.26628   0.40579   0.00000  Uiso   1.00
C285   C     0.70597   0.09367   0.40555   0.00000  Uiso   1.00
C286   C     0.47445   0.67593   0.37474   0.00000  Uiso   1.00
C287   C     0.39924   0.70354   0.34773   0.00000  Uiso   1.00
C288   C     0.41401   0.78611   0.32116   0.00000  Uiso   1.00
C289   C     0.40183   0.91438   0.27194   0.00000  Uiso   1.00
C290   C     0.63375   0.68562   0.40720   0.00000  Uiso   1.00
C291   C     0.59716   0.72604   0.43914   0.00000  Uiso   1.00
C292   C     0.64217   0.80621   0.46638   0.00000  Uiso   1.00
C293   C     0.59715   0.83156   0.49320   0.00000  Uiso   1.00
C294   C     0.63315   0.53510   0.40672   0.00000  Uiso   1.00
C295   C     0.70841   0.45472   0.40671   0.00000  Uiso   1.00
C296   C     0.69370   0.31934   0.40623   0.00000  Uiso   1.00
C297   C     0.56134   0.72890   0.37518   0.00000  Uiso   1.00
C298   C     0.57623   0.81143   0.34863   0.00000  Uiso   1.00
C299   C     0.50106   0.83917   0.32160   0.00000  Uiso   1.00
H300   H     0.40615   0.54687   0.40605   0.00000  Uiso   1.00
H301   H     0.39795   0.65730   0.46514   0.00000  Uiso   1.00
H302   H     0.46418   0.30588   0.40547   0.00000  Uiso   1.00
H303   H     0.33202   0.66253   0.34740   0.00000  Uiso   1.00
H304   H     0.42719   0.80305   0.53085   0.00000  Uiso   1.00
H305   H     0.56684   0.06207   0.40502   0.00000  Uiso   1.00
H306   H     0.28815   0.81413   0.28258   0.00000  Uiso   1.00
H307   H     0.70140   0.72686   0.40754   0.00000  Uiso   1.00
H308   H     0.70940   0.84718   0.46672   0.00000  Uiso   1.00
H309   H     0.77564   0.49575   0.40705   0.00000  Uiso   1.00
H310   H     0.64347   0.85240   0.34898   0.00000  Uiso   1.00
H311   H     0.67998   0.95716   0.53214   0.00000  Uiso   1.00
H312   H     0.81963   0.21616   0.40630   0.00000  Uiso   1.00
H313   H     0.54094   0.96823   0.28386   0.00000  Uiso   1.00
O314   O     0.55354   0.95597   0.57040   0.00000  Uiso   1.00
O315   O     0.73675   0.98382   0.40530   0.00000  Uiso   1.00
O316   O     0.37111   0.97052   0.24467   0.00000  Uiso   1.00
N317   N     0.48558   0.82283   0.52303   0.00000  Uiso   1.00
N318   N     0.61615   0.13005   0.40539   0.00000  Uiso   1.00
N319   N     0.35560   0.83314   0.29092   0.00000  Uiso   1.00
N320   N     0.62160   0.90576   0.52372   0.00000  Uiso   1.00
N321   N     0.75217   0.21297   0.40608   0.00000  Uiso   1.00
N322   N     0.49162   0.91606   0.29161   0.00000  Uiso   1.00
C323   C     0.97379   0.08811   0.40639   0.00000  Uiso   1.00
C324   C     0.01027   0.17308   0.43870   0.00000  Uiso   1.00
C325   C     0.96518   0.19832   0.46549   0.00000  Uiso   1.00
C326   C     0.01011   0.27849   0.49276   0.00000  Uiso   1.00
C327   C     0.05357   0.40232   0.54288   0.00000  Uiso   1.00
C328   C     0.04626   0.98214   0.40628   0.00000  Uiso   1.00
C329   C     0.03143   0.84684   0.40581   0.00000  Uiso   1.00
C330   C     0.10665   0.76628   0.40579   0.00000  Uiso   1.00
C331   C     0.20597   0.59367   0.40555   0.00000  Uiso   1.00
C332   C     0.97445   0.17593   0.37474   0.00000  Uiso   1.00
C333   C     0.89924   0.20354   0.34773   0.00000  Uiso   1.00
C334   C     0.91401   0.28611   0.32116   0.00000  Uiso   1.00
C335   C     0.90183   0.41438   0.27194   0.00000  Uiso   1.00
C336   C     0.13375   0.18562   0.40720   0.00000  Uiso   1.00
C337   C     0.09716   0.22604   0.43914   0.00000  Uiso   1.00
C338   C     0.14217   0.30621   0.46638   0.00000  Uiso   1.00
C339   C     0.09715   0.33156   0.49320   0.00000  Uiso   1.00
C340   C     0.13315   0.03510   0.40672   0.00000  Uiso   1.00
C341   C     0.20841   0.95472   0.40671   0.00000  Uiso   1.00
C342   C     0.19370   0.81934   0.40623   0.00000  Uiso   1.00
C343   C     0.06134   0.22890   0.37518   0.00000  Uiso   1.00
C344   C     0.07623   0.31143   0.34863   0.00000  Uiso   1.00
C345   C     0.00106   0.33917   0.32160   0.00000  Uiso   1.00
H346   H     0.90615   0.04687   0.40605   0.00000  Uiso   1.00
H347   H     0.89795   0.15730   0.46514   0.00000  Uiso   1.00
H348   H     0.96418   0.80588   0.40547   0.00000  Uiso   1.00
H349   H     0.83202   0.16253   0.34740   0.00000  Uiso   1.00
H350   H     0.92719   0.30305   0.53085   0.00000  Uiso   1.00
H351   H     0.06684   0.56207   0.40502   0.00000  Uiso   1.00
H352   H     0.78815   0.31413   0.28258   0.00000  Uiso   1.00
H353   H     0.20140   0.22686   0.40754   0.00000  Uiso   1.00
H354   H     0.20940   0.34718   0.46672   0.00000  Uiso   1.00
H355   H     0.27564   0.99575   0.40705   0.00000  Uiso   1.00
H356   H     0.14347   0.35240   0.34898   0.00000  Uiso   1.00
H357   H     0.17998   0.45716   0.53214   0.00000  Uiso   1.00
H358   H     0.31963   0.71616   0.40630   0.00000  Uiso   1.00
H359   H     0.04094   0.46823   0.28386   0.00000  Uiso   1.00
O360   O     0.05354   0.45597   0.57040   0.00000  Uiso   1.00
O361   O     0.23675   0.48382   0.40530   0.00000  Uiso   1.00
O362   O     0.87111   0.47052   0.24467   0.00000  Uiso   1.00
N363   N     0.98558   0.32283   0.52303   0.00000  Uiso   1.00
N364   N     0.11615   0.63005   0.40539   0.00000  Uiso   1.00
N365   N     0.85560   0.33314   0.29092   0.00000  Uiso   1.00
N366   N     0.12160   0.40576   0.52372   0.00000  Uiso   1.00
N367   N     0.25217   0.71297   0.40608   0.00000  Uiso   1.00
N368   N     0.99162   0.41606   0.29161   0.00000  Uiso   1.00
