data_job_05279
_audit_creation_date              2018-12-19
_audit_creation_method            'Materials Studio'
_symmetry_space_group_name_H-M    'P1'
_symmetry_Int_Tables_number       1
_symmetry_cell_setting            triclinic
loop_
_symmetry_equiv_pos_as_xyz
  x,y,z
_cell_length_a                    8.8287
_cell_length_b                    19.2948
_cell_length_c                    39.4842
_cell_angle_alpha                 90.0000
_cell_angle_beta                  90.0000
_cell_angle_gamma                 90.0000
loop_
_atom_site_label
_atom_site_type_symbol
_atom_site_fract_x
_atom_site_fract_y
_atom_site_fract_z
_atom_site_U_iso_or_equiv
_atom_site_adp_type
_atom_site_occupancy
C1     C     0.54348   0.06713   0.89121   0.00000  Uiso   1.00
C2     C     0.52448   0.10250   0.92548   0.00000  Uiso   1.00
C3     C     0.39314   0.13381   0.93726   0.00000  Uiso   1.00
C4     C     0.39879   0.16331   0.96930   0.00000  Uiso   1.00
C5     C     0.34919   0.21855   0.01954   0.00000  Uiso   1.00
C6     C     0.67660   0.10313   0.87400   0.00000  Uiso   1.00
C7     C     0.67314   0.13495   0.84249   0.00000  Uiso   1.00
C8     C     0.80685   0.16497   0.83120   0.00000  Uiso   1.00
C9     C     0.99345   0.22113   0.80150   0.00000  Uiso   1.00
C10    C     0.59629   0.99350   0.89879   0.00000  Uiso   1.00
C11    C     0.52534   0.93315   0.88812   0.00000  Uiso   1.00
C12    C     0.59146   0.87087   0.89770   0.00000  Uiso   1.00
C13    C     0.65337   0.75681   0.90649   0.00000  Uiso   1.00
C14    C     0.78709   0.06384   0.92719   0.00000  Uiso   1.00
C15    C     0.65681   0.10072   0.94502   0.00000  Uiso   1.00
C16    C     0.66266   0.13017   0.97706   0.00000  Uiso   1.00
C17    C     0.53134   0.16152   0.98888   0.00000  Uiso   1.00
C18    C     0.80892   0.10134   0.89354   0.00000  Uiso   1.00
C19    C     0.94267   0.13131   0.88229   0.00000  Uiso   1.00
C20    C     0.93941   0.16318   0.85078   0.00000  Uiso   1.00
C21    C     0.72861   0.99171   0.91834   0.00000  Uiso   1.00
C22    C     0.79486   0.92951   0.92793   0.00000  Uiso   1.00
C23    C     0.72402   0.86908   0.91727   0.00000  Uiso   1.00
H24    H     0.44047   0.06852   0.87599   0.00000  Uiso   1.00
H25    H     0.29076   0.13519   0.92213   0.00000  Uiso   1.00
H26    H     0.57073   0.13632   0.82737   0.00000  Uiso   1.00
H27    H     0.42295   0.93455   0.87300   0.00000  Uiso   1.00
H28    H     0.18316   0.20834   0.98188   0.00000  Uiso   1.00
H29    H     0.77350   0.21071   0.78209   0.00000  Uiso   1.00
H30    H     0.46187   0.78523   0.87829   0.00000  Uiso   1.00
H31    H     0.89011   0.06245   0.94240   0.00000  Uiso   1.00
H32    H     0.76507   0.12878   0.99218   0.00000  Uiso   1.00
H33    H     0.04504   0.12992   0.89742   0.00000  Uiso   1.00
H34    H     0.89726   0.92815   0.94305   0.00000  Uiso   1.00
H35    H     0.56813   0.20315   0.03874   0.00000  Uiso   1.00
H36    H     0.15847   0.20551   0.83894   0.00000  Uiso   1.00
H37    H     0.84684   0.78004   0.93515   0.00000  Uiso   1.00
O38    O     0.28529   0.24952   0.04185   0.00000  Uiso   1.00
O39    O     0.05980   0.25261   0.77973   0.00000  Uiso   1.00
O40    O     0.65095   0.69440   0.90595   0.00000  Uiso   1.00
N41    N     0.29091   0.19800   0.98844   0.00000  Uiso   1.00
N42    N     0.84284   0.20023   0.80164   0.00000  Uiso   1.00
N43    N     0.55151   0.80244   0.89158   0.00000  Uiso   1.00
N44    N     0.49806   0.19521   0.01903   0.00000  Uiso   1.00
N45    N     0.04999   0.19743   0.83223   0.00000  Uiso   1.00
N46    N     0.75866   0.79964   0.92217   0.00000  Uiso   1.00
C47    C     0.30138   0.43207   0.61873   0.00000  Uiso   1.00
C48    C     0.28291   0.39687   0.58440   0.00000  Uiso   1.00
C49    C     0.15144   0.36606   0.57239   0.00000  Uiso   1.00
C50    C     0.15763   0.33664   0.54033   0.00000  Uiso   1.00
C51    C     0.10876   0.28175   0.48997   0.00000  Uiso   1.00
C52    C     0.43334   0.39555   0.63613   0.00000  Uiso   1.00
C53    C     0.42834   0.36364   0.66761   0.00000  Uiso   1.00
C54    C     0.56118   0.33312   0.67909   0.00000  Uiso   1.00
C55    C     0.74586   0.27621   0.70904   0.00000  Uiso   1.00
C56    C     0.35566   0.50554   0.61129   0.00000  Uiso   1.00
C57    C     0.28537   0.56610   0.62190   0.00000  Uiso   1.00
C58    C     0.35283   0.62818   0.61248   0.00000  Uiso   1.00
C59    C     0.41691   0.74204   0.60388   0.00000  Uiso   1.00
C60    C     0.54620   0.43463   0.58316   0.00000  Uiso   1.00
C61    C     0.41589   0.39826   0.56508   0.00000  Uiso   1.00
C62    C     0.42229   0.36889   0.53303   0.00000  Uiso   1.00
C63    C     0.29084   0.33804   0.52097   0.00000  Uiso   1.00
C64    C     0.56631   0.39694   0.61680   0.00000  Uiso   1.00
C65    C     0.69920   0.36647   0.62824   0.00000  Uiso   1.00
C66    C     0.69439   0.33451   0.65973   0.00000  Uiso   1.00
C67    C     0.48864   0.50693   0.59197   0.00000  Uiso   1.00
C68    C     0.55623   0.56893   0.58254   0.00000  Uiso   1.00
C69    C     0.48605   0.62957   0.59313   0.00000  Uiso   1.00
H70    H     0.19786   0.43099   0.63378   0.00000  Uiso   1.00
H71    H     0.04855   0.36499   0.58736   0.00000  Uiso   1.00
H72    H     0.32542   0.36257   0.68256   0.00000  Uiso   1.00
H73    H     0.18247   0.56500   0.63686   0.00000  Uiso   1.00
H74    H     0.94168   0.29241   0.52737   0.00000  Uiso   1.00
H75    H     0.52547   0.28733   0.72811   0.00000  Uiso   1.00
H76    H     0.22404   0.71420   0.63174   0.00000  Uiso   1.00
H77    H     0.64973   0.43571   0.56811   0.00000  Uiso   1.00
H78    H     0.52522   0.36997   0.51808   0.00000  Uiso   1.00
H79    H     0.80208   0.36756   0.61328   0.00000  Uiso   1.00
H80    H     0.65913   0.56998   0.56758   0.00000  Uiso   1.00
H81    H     0.32856   0.29645   0.47114   0.00000  Uiso   1.00
H82    H     0.91235   0.29138   0.67188   0.00000  Uiso   1.00
H83    H     0.61092   0.71824   0.57552   0.00000  Uiso   1.00
O84    O     0.04507   0.25108   0.46753   0.00000  Uiso   1.00
O85    O     0.81099   0.24444   0.73090   0.00000  Uiso   1.00
O86    O     0.41551   0.80447   0.60447   0.00000  Uiso   1.00
N87    N     0.04981   0.30239   0.52100   0.00000  Uiso   1.00
N88    N     0.59562   0.29764   0.70868   0.00000  Uiso   1.00
N89    N     0.31382   0.69672   0.61859   0.00000  Uiso   1.00
N90    N     0.25798   0.30457   0.49074   0.00000  Uiso   1.00
N91    N     0.80379   0.29982   0.67842   0.00000  Uiso   1.00
N92    N     0.52200   0.69890   0.58834   0.00000  Uiso   1.00
C93    C     0.45652   0.93287   0.39121   0.00000  Uiso   1.00
C94    C     0.47552   0.89750   0.42548   0.00000  Uiso   1.00
C95    C     0.60686   0.86619   0.43726   0.00000  Uiso   1.00
C96    C     0.60121   0.83669   0.46930   0.00000  Uiso   1.00
C97    C     0.65081   0.78145   0.51954   0.00000  Uiso   1.00
C98    C     0.32340   0.89687   0.37400   0.00000  Uiso   1.00
C99    C     0.32686   0.86505   0.34249   0.00000  Uiso   1.00
C100   C     0.19315   0.83503   0.33120   0.00000  Uiso   1.00
C101   C     0.00655   0.77887   0.30150   0.00000  Uiso   1.00
C102   C     0.40371   0.00650   0.39879   0.00000  Uiso   1.00
C103   C     0.47466   0.06685   0.38812   0.00000  Uiso   1.00
C104   C     0.40854   0.12913   0.39770   0.00000  Uiso   1.00
C105   C     0.34663   0.24319   0.40649   0.00000  Uiso   1.00
C106   C     0.21291   0.93616   0.42719   0.00000  Uiso   1.00
C107   C     0.34319   0.89928   0.44502   0.00000  Uiso   1.00
C108   C     0.33734   0.86983   0.47706   0.00000  Uiso   1.00
C109   C     0.46866   0.83848   0.48888   0.00000  Uiso   1.00
C110   C     0.19108   0.89866   0.39354   0.00000  Uiso   1.00
C111   C     0.05733   0.86869   0.38229   0.00000  Uiso   1.00
C112   C     0.06059   0.83682   0.35078   0.00000  Uiso   1.00
C113   C     0.27139   0.00829   0.41834   0.00000  Uiso   1.00
C114   C     0.20514   0.07049   0.42793   0.00000  Uiso   1.00
C115   C     0.27598   0.13092   0.41727   0.00000  Uiso   1.00
H116   H     0.55953   0.93148   0.37599   0.00000  Uiso   1.00
H117   H     0.70924   0.86481   0.42213   0.00000  Uiso   1.00
H118   H     0.42927   0.86368   0.32737   0.00000  Uiso   1.00
H119   H     0.57705   0.06545   0.37300   0.00000  Uiso   1.00
H120   H     0.81684   0.79166   0.48188   0.00000  Uiso   1.00
H121   H     0.22650   0.78929   0.28209   0.00000  Uiso   1.00
H122   H     0.53813   0.21477   0.37829   0.00000  Uiso   1.00
H123   H     0.10989   0.93755   0.44240   0.00000  Uiso   1.00
H124   H     0.23493   0.87122   0.49218   0.00000  Uiso   1.00
H125   H     0.95496   0.87008   0.39742   0.00000  Uiso   1.00
H126   H     0.10274   0.07185   0.44305   0.00000  Uiso   1.00
H127   H     0.43187   0.79685   0.53874   0.00000  Uiso   1.00
H128   H     0.84153   0.79449   0.33894   0.00000  Uiso   1.00
H129   H     0.15316   0.21996   0.43515   0.00000  Uiso   1.00
O130   O     0.71471   0.75048   0.54185   0.00000  Uiso   1.00
O131   O     0.94020   0.74739   0.27973   0.00000  Uiso   1.00
O132   O     0.34905   0.30560   0.40595   0.00000  Uiso   1.00
N133   N     0.70909   0.80200   0.48844   0.00000  Uiso   1.00
N134   N     0.15716   0.79977   0.30164   0.00000  Uiso   1.00
N135   N     0.44849   0.19756   0.39158   0.00000  Uiso   1.00
N136   N     0.50194   0.80479   0.51903   0.00000  Uiso   1.00
N137   N     0.95001   0.80257   0.33223   0.00000  Uiso   1.00
N138   N     0.24134   0.20036   0.42217   0.00000  Uiso   1.00
C139   C     0.69862   0.56793   0.11873   0.00000  Uiso   1.00
C140   C     0.71709   0.60313   0.08440   0.00000  Uiso   1.00
C141   C     0.84856   0.63394   0.07239   0.00000  Uiso   1.00
C142   C     0.84237   0.66336   0.04033   0.00000  Uiso   1.00
C143   C     0.89124   0.71825   0.98997   0.00000  Uiso   1.00
C144   C     0.56666   0.60445   0.13613   0.00000  Uiso   1.00
C145   C     0.57166   0.63636   0.16761   0.00000  Uiso   1.00
C146   C     0.43882   0.66688   0.17909   0.00000  Uiso   1.00
C147   C     0.25414   0.72379   0.20904   0.00000  Uiso   1.00
C148   C     0.64434   0.49446   0.11129   0.00000  Uiso   1.00
C149   C     0.71463   0.43390   0.12190   0.00000  Uiso   1.00
C150   C     0.64717   0.37182   0.11248   0.00000  Uiso   1.00
C151   C     0.58309   0.25796   0.10388   0.00000  Uiso   1.00
C152   C     0.45380   0.56537   0.08316   0.00000  Uiso   1.00
C153   C     0.58411   0.60174   0.06508   0.00000  Uiso   1.00
C154   C     0.57771   0.63111   0.03303   0.00000  Uiso   1.00
C155   C     0.70916   0.66196   0.02097   0.00000  Uiso   1.00
C156   C     0.43369   0.60306   0.11680   0.00000  Uiso   1.00
C157   C     0.30080   0.63353   0.12824   0.00000  Uiso   1.00
C158   C     0.30561   0.66549   0.15973   0.00000  Uiso   1.00
C159   C     0.51136   0.49307   0.09197   0.00000  Uiso   1.00
C160   C     0.44377   0.43107   0.08254   0.00000  Uiso   1.00
C161   C     0.51395   0.37043   0.09313   0.00000  Uiso   1.00
H162   H     0.80214   0.56901   0.13378   0.00000  Uiso   1.00
H163   H     0.95145   0.63501   0.08736   0.00000  Uiso   1.00
H164   H     0.67458   0.63743   0.18256   0.00000  Uiso   1.00
H165   H     0.81753   0.43500   0.13686   0.00000  Uiso   1.00
H166   H     0.05832   0.70759   0.02737   0.00000  Uiso   1.00
H167   H     0.47453   0.71267   0.22811   0.00000  Uiso   1.00
H168   H     0.77596   0.28580   0.13174   0.00000  Uiso   1.00
H169   H     0.35027   0.56429   0.06811   0.00000  Uiso   1.00
H170   H     0.47478   0.63003   0.01808   0.00000  Uiso   1.00
H171   H     0.19792   0.63244   0.11328   0.00000  Uiso   1.00
H172   H     0.34087   0.43002   0.06758   0.00000  Uiso   1.00
H173   H     0.67144   0.70355   0.97114   0.00000  Uiso   1.00
H174   H     0.08765   0.70862   0.17188   0.00000  Uiso   1.00
H175   H     0.38908   0.28176   0.07552   0.00000  Uiso   1.00
O176   O     0.95493   0.74892   0.96753   0.00000  Uiso   1.00
O177   O     0.18901   0.75556   0.23090   0.00000  Uiso   1.00
O178   O     0.58449   0.19553   0.10447   0.00000  Uiso   1.00
N179   N     0.95019   0.69761   0.02100   0.00000  Uiso   1.00
N180   N     0.40438   0.70236   0.20868   0.00000  Uiso   1.00
N181   N     0.68618   0.30328   0.11859   0.00000  Uiso   1.00
N182   N     0.74202   0.69543   0.99074   0.00000  Uiso   1.00
N183   N     0.19621   0.70018   0.17842   0.00000  Uiso   1.00
N184   N     0.47800   0.30110   0.08834   0.00000  Uiso   1.00
C185   C     0.04348   0.43287   0.89121   0.00000  Uiso   1.00
C186   C     0.02448   0.39750   0.92548   0.00000  Uiso   1.00
C187   C     0.89314   0.36619   0.93726   0.00000  Uiso   1.00
C188   C     0.89879   0.33669   0.96930   0.00000  Uiso   1.00
C189   C     0.84919   0.28145   0.01954   0.00000  Uiso   1.00
C190   C     0.17660   0.39687   0.87400   0.00000  Uiso   1.00
C191   C     0.17314   0.36505   0.84249   0.00000  Uiso   1.00
C192   C     0.30685   0.33503   0.83120   0.00000  Uiso   1.00
C193   C     0.49345   0.27887   0.80150   0.00000  Uiso   1.00
C194   C     0.09629   0.50650   0.89879   0.00000  Uiso   1.00
C195   C     0.02534   0.56685   0.88812   0.00000  Uiso   1.00
C196   C     0.09146   0.62913   0.89770   0.00000  Uiso   1.00
C197   C     0.15337   0.74319   0.90649   0.00000  Uiso   1.00
C198   C     0.28709   0.43616   0.92719   0.00000  Uiso   1.00
C199   C     0.15681   0.39928   0.94502   0.00000  Uiso   1.00
C200   C     0.16266   0.36983   0.97706   0.00000  Uiso   1.00
C201   C     0.03134   0.33848   0.98888   0.00000  Uiso   1.00
C202   C     0.30892   0.39866   0.89354   0.00000  Uiso   1.00
C203   C     0.44267   0.36869   0.88229   0.00000  Uiso   1.00
C204   C     0.43941   0.33682   0.85078   0.00000  Uiso   1.00
C205   C     0.22861   0.50829   0.91834   0.00000  Uiso   1.00
C206   C     0.29486   0.57049   0.92793   0.00000  Uiso   1.00
C207   C     0.22402   0.63092   0.91727   0.00000  Uiso   1.00
H208   H     0.94047   0.43148   0.87599   0.00000  Uiso   1.00
H209   H     0.79076   0.36481   0.92213   0.00000  Uiso   1.00
H210   H     0.07073   0.36368   0.82737   0.00000  Uiso   1.00
H211   H     0.92295   0.56545   0.87300   0.00000  Uiso   1.00
H212   H     0.68316   0.29166   0.98188   0.00000  Uiso   1.00
H213   H     0.27350   0.28929   0.78209   0.00000  Uiso   1.00
H214   H     0.96187   0.71477   0.87829   0.00000  Uiso   1.00
H215   H     0.39011   0.43755   0.94240   0.00000  Uiso   1.00
H216   H     0.26507   0.37122   0.99218   0.00000  Uiso   1.00
H217   H     0.54504   0.37008   0.89742   0.00000  Uiso   1.00
H218   H     0.39726   0.57185   0.94305   0.00000  Uiso   1.00
H219   H     0.06813   0.29685   0.03874   0.00000  Uiso   1.00
H220   H     0.65847   0.29449   0.83894   0.00000  Uiso   1.00
H221   H     0.34684   0.71996   0.93515   0.00000  Uiso   1.00
O222   O     0.78529   0.25048   0.04185   0.00000  Uiso   1.00
O223   O     0.55980   0.24739   0.77973   0.00000  Uiso   1.00
O224   O     0.15095   0.80560   0.90595   0.00000  Uiso   1.00
N225   N     0.79091   0.30200   0.98844   0.00000  Uiso   1.00
N226   N     0.34284   0.29977   0.80164   0.00000  Uiso   1.00
N227   N     0.05151   0.69756   0.89158   0.00000  Uiso   1.00
N228   N     0.99806   0.30479   0.01903   0.00000  Uiso   1.00
N229   N     0.54999   0.30257   0.83223   0.00000  Uiso   1.00
N230   N     0.25866   0.70036   0.92217   0.00000  Uiso   1.00
C231   C     0.80138   0.06793   0.61873   0.00000  Uiso   1.00
C232   C     0.78291   0.10313   0.58440   0.00000  Uiso   1.00
C233   C     0.65144   0.13394   0.57239   0.00000  Uiso   1.00
C234   C     0.65763   0.16336   0.54033   0.00000  Uiso   1.00
C235   C     0.60876   0.21825   0.48997   0.00000  Uiso   1.00
C236   C     0.93334   0.10445   0.63613   0.00000  Uiso   1.00
C237   C     0.92834   0.13636   0.66761   0.00000  Uiso   1.00
C238   C     0.06118   0.16688   0.67909   0.00000  Uiso   1.00
C239   C     0.24586   0.22379   0.70904   0.00000  Uiso   1.00
C240   C     0.85566   0.99446   0.61129   0.00000  Uiso   1.00
C241   C     0.78537   0.93390   0.62190   0.00000  Uiso   1.00
C242   C     0.85283   0.87182   0.61248   0.00000  Uiso   1.00
C243   C     0.91691   0.75796   0.60388   0.00000  Uiso   1.00
C244   C     0.04620   0.06537   0.58316   0.00000  Uiso   1.00
C245   C     0.91589   0.10174   0.56508   0.00000  Uiso   1.00
C246   C     0.92229   0.13111   0.53303   0.00000  Uiso   1.00
C247   C     0.79084   0.16196   0.52097   0.00000  Uiso   1.00
C248   C     0.06631   0.10306   0.61680   0.00000  Uiso   1.00
C249   C     0.19920   0.13353   0.62824   0.00000  Uiso   1.00
C250   C     0.19439   0.16549   0.65973   0.00000  Uiso   1.00
C251   C     0.98864   0.99307   0.59197   0.00000  Uiso   1.00
C252   C     0.05623   0.93107   0.58254   0.00000  Uiso   1.00
C253   C     0.98605   0.87043   0.59313   0.00000  Uiso   1.00
H254   H     0.69786   0.06901   0.63378   0.00000  Uiso   1.00
H255   H     0.54855   0.13501   0.58736   0.00000  Uiso   1.00
H256   H     0.82542   0.13743   0.68256   0.00000  Uiso   1.00
H257   H     0.68247   0.93500   0.63686   0.00000  Uiso   1.00
H258   H     0.44168   0.20759   0.52737   0.00000  Uiso   1.00
H259   H     0.02547   0.21267   0.72811   0.00000  Uiso   1.00
H260   H     0.72404   0.78580   0.63174   0.00000  Uiso   1.00
H261   H     0.14973   0.06429   0.56811   0.00000  Uiso   1.00
H262   H     0.02522   0.13003   0.51808   0.00000  Uiso   1.00
H263   H     0.30208   0.13244   0.61328   0.00000  Uiso   1.00
H264   H     0.15913   0.93002   0.56758   0.00000  Uiso   1.00
H265   H     0.82856   0.20355   0.47114   0.00000  Uiso   1.00
H266   H     0.41235   0.20862   0.67188   0.00000  Uiso   1.00
H267   H     0.11092   0.78176   0.57552   0.00000  Uiso   1.00
O268   O     0.54507   0.24892   0.46753   0.00000  Uiso   1.00
O269   O     0.31099   0.25556   0.73090   0.00000  Uiso   1.00
O270   O     0.91551   0.69553   0.60447   0.00000  Uiso   1.00
N271   N     0.54981   0.19761   0.52100   0.00000  Uiso   1.00
N272   N     0.09562   0.20236   0.70868   0.00000  Uiso   1.00
N273   N     0.81382   0.80328   0.61859   0.00000  Uiso   1.00
N274   N     0.75798   0.19543   0.49074   0.00000  Uiso   1.00
N275   N     0.30379   0.20018   0.67842   0.00000  Uiso   1.00
N276   N     0.02200   0.80110   0.58834   0.00000  Uiso   1.00
C277   C     0.95652   0.56713   0.39121   0.00000  Uiso   1.00
C278   C     0.97552   0.60250   0.42548   0.00000  Uiso   1.00
C279   C     0.10686   0.63381   0.43726   0.00000  Uiso   1.00
C280   C     0.10121   0.66331   0.46930   0.00000  Uiso   1.00
C281   C     0.15081   0.71855   0.51954   0.00000  Uiso   1.00
C282   C     0.82340   0.60313   0.37400   0.00000  Uiso   1.00
C283   C     0.82686   0.63495   0.34249   0.00000  Uiso   1.00
C284   C     0.69315   0.66497   0.33120   0.00000  Uiso   1.00
C285   C     0.50655   0.72113   0.30150   0.00000  Uiso   1.00
C286   C     0.90371   0.49350   0.39879   0.00000  Uiso   1.00
C287   C     0.97466   0.43315   0.38812   0.00000  Uiso   1.00
C288   C     0.90854   0.37087   0.39770   0.00000  Uiso   1.00
C289   C     0.84663   0.25681   0.40649   0.00000  Uiso   1.00
C290   C     0.71291   0.56384   0.42719   0.00000  Uiso   1.00
C291   C     0.84319   0.60072   0.44502   0.00000  Uiso   1.00
C292   C     0.83734   0.63017   0.47706   0.00000  Uiso   1.00
C293   C     0.96866   0.66152   0.48888   0.00000  Uiso   1.00
C294   C     0.69108   0.60134   0.39354   0.00000  Uiso   1.00
C295   C     0.55733   0.63131   0.38229   0.00000  Uiso   1.00
C296   C     0.56059   0.66318   0.35078   0.00000  Uiso   1.00
C297   C     0.77139   0.49171   0.41834   0.00000  Uiso   1.00
C298   C     0.70514   0.42951   0.42793   0.00000  Uiso   1.00
C299   C     0.77598   0.36908   0.41727   0.00000  Uiso   1.00
H300   H     0.05953   0.56852   0.37599   0.00000  Uiso   1.00
H301   H     0.20924   0.63519   0.42213   0.00000  Uiso   1.00
H302   H     0.92927   0.63632   0.32737   0.00000  Uiso   1.00
H303   H     0.07705   0.43455   0.37300   0.00000  Uiso   1.00
H304   H     0.31684   0.70834   0.48188   0.00000  Uiso   1.00
H305   H     0.72650   0.71071   0.28209   0.00000  Uiso   1.00
H306   H     0.03813   0.28523   0.37829   0.00000  Uiso   1.00
H307   H     0.60989   0.56245   0.44240   0.00000  Uiso   1.00
H308   H     0.73493   0.62878   0.49218   0.00000  Uiso   1.00
H309   H     0.45496   0.62992   0.39742   0.00000  Uiso   1.00
H310   H     0.60274   0.42815   0.44305   0.00000  Uiso   1.00
H311   H     0.93187   0.70315   0.53874   0.00000  Uiso   1.00
H312   H     0.34153   0.70551   0.33894   0.00000  Uiso   1.00
H313   H     0.65316   0.28004   0.43515   0.00000  Uiso   1.00
O314   O     0.21471   0.74952   0.54185   0.00000  Uiso   1.00
O315   O     0.44020   0.75261   0.27973   0.00000  Uiso   1.00
O316   O     0.84905   0.19440   0.40595   0.00000  Uiso   1.00
N317   N     0.20909   0.69800   0.48844   0.00000  Uiso   1.00
N318   N     0.65716   0.70023   0.30164   0.00000  Uiso   1.00
N319   N     0.94849   0.30244   0.39158   0.00000  Uiso   1.00
N320   N     0.00194   0.69521   0.51903   0.00000  Uiso   1.00
N321   N     0.45001   0.69743   0.33223   0.00000  Uiso   1.00
N322   N     0.74134   0.29964   0.42217   0.00000  Uiso   1.00
C323   C     0.19862   0.93207   0.11873   0.00000  Uiso   1.00
C324   C     0.21709   0.89687   0.08440   0.00000  Uiso   1.00
C325   C     0.34856   0.86606   0.07239   0.00000  Uiso   1.00
C326   C     0.34237   0.83664   0.04033   0.00000  Uiso   1.00
C327   C     0.39124   0.78175   0.98997   0.00000  Uiso   1.00
C328   C     0.06666   0.89555   0.13613   0.00000  Uiso   1.00
C329   C     0.07166   0.86364   0.16761   0.00000  Uiso   1.00
C330   C     0.93882   0.83312   0.17909   0.00000  Uiso   1.00
C331   C     0.75414   0.77621   0.20904   0.00000  Uiso   1.00
C332   C     0.14434   0.00554   0.11129   0.00000  Uiso   1.00
C333   C     0.21463   0.06610   0.12190   0.00000  Uiso   1.00
C334   C     0.14717   0.12818   0.11248   0.00000  Uiso   1.00
C335   C     0.08309   0.24204   0.10388   0.00000  Uiso   1.00
C336   C     0.95380   0.93463   0.08316   0.00000  Uiso   1.00
C337   C     0.08411   0.89826   0.06508   0.00000  Uiso   1.00
C338   C     0.07771   0.86889   0.03303   0.00000  Uiso   1.00
C339   C     0.20916   0.83804   0.02097   0.00000  Uiso   1.00
C340   C     0.93369   0.89694   0.11680   0.00000  Uiso   1.00
C341   C     0.80080   0.86647   0.12824   0.00000  Uiso   1.00
C342   C     0.80561   0.83451   0.15973   0.00000  Uiso   1.00
C343   C     0.01136   0.00693   0.09197   0.00000  Uiso   1.00
C344   C     0.94377   0.06893   0.08254   0.00000  Uiso   1.00
C345   C     0.01395   0.12957   0.09313   0.00000  Uiso   1.00
H346   H     0.30214   0.93099   0.13378   0.00000  Uiso   1.00
H347   H     0.45145   0.86499   0.08736   0.00000  Uiso   1.00
H348   H     0.17458   0.86257   0.18256   0.00000  Uiso   1.00
H349   H     0.31753   0.06500   0.13686   0.00000  Uiso   1.00
H350   H     0.55832   0.79241   0.02737   0.00000  Uiso   1.00
H351   H     0.97453   0.78733   0.22811   0.00000  Uiso   1.00
H352   H     0.27596   0.21420   0.13174   0.00000  Uiso   1.00
H353   H     0.85027   0.93571   0.06811   0.00000  Uiso   1.00
H354   H     0.97478   0.86997   0.01808   0.00000  Uiso   1.00
H355   H     0.69792   0.86756   0.11328   0.00000  Uiso   1.00
H356   H     0.84087   0.06998   0.06758   0.00000  Uiso   1.00
H357   H     0.17144   0.79645   0.97114   0.00000  Uiso   1.00
H358   H     0.58765   0.79138   0.17188   0.00000  Uiso   1.00
H359   H     0.88908   0.21824   0.07552   0.00000  Uiso   1.00
O360   O     0.45493   0.75108   0.96753   0.00000  Uiso   1.00
O361   O     0.68901   0.74444   0.23090   0.00000  Uiso   1.00
O362   O     0.08449   0.30447   0.10447   0.00000  Uiso   1.00
N363   N     0.45019   0.80239   0.02100   0.00000  Uiso   1.00
N364   N     0.90438   0.79764   0.20868   0.00000  Uiso   1.00
N365   N     0.18618   0.19672   0.11859   0.00000  Uiso   1.00
N366   N     0.24202   0.80457   0.99074   0.00000  Uiso   1.00
N367   N     0.69621   0.79982   0.17842   0.00000  Uiso   1.00
N368   N     0.97800   0.19890   0.08834   0.00000  Uiso   1.00
