data_job_06874
_audit_creation_date              2018-12-19
_audit_creation_method            'Materials Studio'
_symmetry_space_group_name_H-M    'P1'
_symmetry_Int_Tables_number       1
_symmetry_cell_setting            triclinic
loop_
_symmetry_equiv_pos_as_xyz
  x,y,z
_cell_length_a                    21.4387
_cell_length_b                    19.7985
_cell_length_c                    22.7636
_cell_angle_alpha                 85.8066
_cell_angle_beta                  81.4655
_cell_angle_gamma                 73.6962
loop_
_atom_site_label
_atom_site_type_symbol
_atom_site_fract_x
_atom_site_fract_y
_atom_site_fract_z
_atom_site_U_iso_or_equiv
_atom_site_adp_type
_atom_site_occupancy
C1     C     0.47694   0.52050   0.88959   0.00000  Uiso   1.00
C2     C     0.44397   0.48099   0.93907   0.00000  Uiso   1.00
C3     C     0.45126   0.47856   0.99882   0.00000  Uiso   1.00
C4     C     0.41695   0.43952   0.03708   0.00000  Uiso   1.00
C5     C     0.37189   0.38352   0.11707   0.00000  Uiso   1.00
C6     C     0.51452   0.46587   0.84394   0.00000  Uiso   1.00
C7     C     0.58113   0.45074   0.82370   0.00000  Uiso   1.00
C8     C     0.60621   0.39897   0.78187   0.00000  Uiso   1.00
C9     C     0.67067   0.31953   0.71413   0.00000  Uiso   1.00
C10    C     0.42169   0.57007   0.85951   0.00000  Uiso   1.00
C11    C     0.41025   0.64255   0.85234   0.00000  Uiso   1.00
C12    C     0.35717   0.67851   0.82359   0.00000  Uiso   1.00
C13    C     0.27749   0.76086   0.78003   0.00000  Uiso   1.00
C14    C     0.40303   0.45548   0.85128   0.00000  Uiso   1.00
C15    C     0.40383   0.44567   0.91826   0.00000  Uiso   1.00
C16    C     0.36949   0.40663   0.95644   0.00000  Uiso   1.00
C17    C     0.37673   0.40414   0.01623   0.00000  Uiso   1.00
C18    C     0.47438   0.43055   0.82313   0.00000  Uiso   1.00
C19    C     0.49936   0.37880   0.78132   0.00000  Uiso   1.00
C20    C     0.56600   0.36359   0.76102   0.00000  Uiso   1.00
C21    C     0.38154   0.53476   0.83870   0.00000  Uiso   1.00
C22    C     0.32848   0.57061   0.80996   0.00000  Uiso   1.00
C23    C     0.31696   0.64313   0.80275   0.00000  Uiso   1.00
H24    H     0.50820   0.54799   0.90579   0.00000  Uiso   1.00
H25    H     0.48234   0.50589   0.01491   0.00000  Uiso   1.00
H26    H     0.61219   0.47808   0.83981   0.00000  Uiso   1.00
H27    H     0.44132   0.66986   0.86844   0.00000  Uiso   1.00
H28    H     0.43598   0.44363   0.12670   0.00000  Uiso   1.00
H29    H     0.70977   0.38499   0.75748   0.00000  Uiso   1.00
H30    H     0.34948   0.78941   0.81787   0.00000  Uiso   1.00
H31    H     0.37178   0.42798   0.83508   0.00000  Uiso   1.00
H32    H     0.33843   0.37930   0.94032   0.00000  Uiso   1.00
H33    H     0.46828   0.35148   0.76522   0.00000  Uiso   1.00
H34    H     0.29742   0.54327   0.79386   0.00000  Uiso   1.00
H35    H     0.31919   0.34088   0.06617   0.00000  Uiso   1.00
H36    H     0.59298   0.28225   0.69694   0.00000  Uiso   1.00
H37    H     0.23268   0.68665   0.75733   0.00000  Uiso   1.00
O38    O     0.35813   0.36238   0.16694   0.00000  Uiso   1.00
O39    O     0.71733   0.28546   0.68253   0.00000  Uiso   1.00
O40    O     0.24463   0.81604   0.76175   0.00000  Uiso   1.00
N41    N     0.41306   0.42614   0.09802   0.00000  Uiso   1.00
N42    N     0.66904   0.37131   0.75282   0.00000  Uiso   1.00
N43    N     0.33221   0.74940   0.80926   0.00000  Uiso   1.00
N44    N     0.35021   0.37085   0.06544   0.00000  Uiso   1.00
N45    N     0.60619   0.31602   0.72025   0.00000  Uiso   1.00
N46    N     0.26936   0.69411   0.77669   0.00000  Uiso   1.00
C47    C     0.88967   0.46155   0.51469   0.00000  Uiso   1.00
C48    C     0.96222   0.43251   0.49160   0.00000  Uiso   1.00
C49    C     0.01394   0.42606   0.52368   0.00000  Uiso   1.00
C50    C     0.07676   0.39825   0.49459   0.00000  Uiso   1.00
C51    C     0.18779   0.35632   0.46773   0.00000  Uiso   1.00
C52    C     0.86279   0.52208   0.47189   0.00000  Uiso   1.00
C53    C     0.83090   0.59094   0.48740   0.00000  Uiso   1.00
C54    C     0.81001   0.63854   0.44172   0.00000  Uiso   1.00
C55    C     0.76664   0.73567   0.38426   0.00000  Uiso   1.00
C56    C     0.85743   0.40408   0.50607   0.00000  Uiso   1.00
C57    C     0.82101   0.37374   0.55031   0.00000  Uiso   1.00
C58    C     0.79559   0.32199   0.53340   0.00000  Uiso   1.00
C59    C     0.74389   0.23590   0.52901   0.00000  Uiso   1.00
C60    C     0.90927   0.42363   0.40599   0.00000  Uiso   1.00
C61    C     0.97286   0.41191   0.43257   0.00000  Uiso   1.00
C62    C     0.03562   0.38411   0.40343   0.00000  Uiso   1.00
C63    C     0.08742   0.37762   0.43545   0.00000  Uiso   1.00
C64    C     0.87343   0.50149   0.41286   0.00000  Uiso   1.00
C65    C     0.85258   0.54899   0.36715   0.00000  Uiso   1.00
C66    C     0.82068   0.61791   0.38258   0.00000  Uiso   1.00
C67    C     0.86807   0.38348   0.44703   0.00000  Uiso   1.00
C68    C     0.84270   0.33178   0.43006   0.00000  Uiso   1.00
C69    C     0.80626   0.30136   0.47426   0.00000  Uiso   1.00
H70    H     0.88138   0.47758   0.56065   0.00000  Uiso   1.00
H71    H     0.00568   0.44201   0.56936   0.00000  Uiso   1.00
H72    H     0.82267   0.60686   0.53309   0.00000  Uiso   1.00
H73    H     0.81278   0.38969   0.59599   0.00000  Uiso   1.00
H74    H     0.14819   0.39350   0.55299   0.00000  Uiso   1.00
H75    H     0.76227   0.74111   0.47650   0.00000  Uiso   1.00
H76    H     0.74143   0.28315   0.60914   0.00000  Uiso   1.00
H77    H     0.91755   0.40760   0.36003   0.00000  Uiso   1.00
H78    H     0.04384   0.36818   0.35774   0.00000  Uiso   1.00
H79    H     0.86083   0.53304   0.32147   0.00000  Uiso   1.00
H80    H     0.85095   0.31586   0.38437   0.00000  Uiso   1.00
H81    H     0.17916   0.33358   0.38122   0.00000  Uiso   1.00
H82    H     0.79324   0.68119   0.30474   0.00000  Uiso   1.00
H83    H     0.77240   0.22323   0.43738   0.00000  Uiso   1.00
O84    O     0.24610   0.33889   0.46921   0.00000  Uiso   1.00
O85    O     0.73978   0.79493   0.36887   0.00000  Uiso   1.00
O86    O     0.71244   0.19410   0.54289   0.00000  Uiso   1.00
N87    N     0.13815   0.38480   0.51288   0.00000  Uiso   1.00
N88    N     0.77735   0.70979   0.44137   0.00000  Uiso   1.00
N89    N     0.75784   0.28165   0.56537   0.00000  Uiso   1.00
N90    N     0.15481   0.35255   0.42046   0.00000  Uiso   1.00
N91    N     0.79401   0.67755   0.34895   0.00000  Uiso   1.00
N92    N     0.77451   0.24941   0.47295   0.00000  Uiso   1.00
C93    C     0.46760   0.95367   0.49396   0.00000  Uiso   1.00
C94    C     0.41355   0.00692   0.46508   0.00000  Uiso   1.00
C95    C     0.41485   0.07426   0.44436   0.00000  Uiso   1.00
C96    C     0.36057   0.11486   0.41938   0.00000  Uiso   1.00
C97    C     0.28478   0.20149   0.37518   0.00000  Uiso   1.00
C98    C     0.43532   0.93359   0.55446   0.00000  Uiso   1.00
C99    C     0.45493   0.93927   0.60890   0.00000  Uiso   1.00
C100   C     0.41899   0.91813   0.65916   0.00000  Uiso   1.00
C101   C     0.37703   0.89086   0.75373   0.00000  Uiso   1.00
C102   C     0.48630   0.88786   0.45721   0.00000  Uiso   1.00
C103   C     0.54878   0.85508   0.42987   0.00000  Uiso   1.00
C104   C     0.55576   0.79542   0.39827   0.00000  Uiso   1.00
C105   C     0.59296   0.69715   0.34183   0.00000  Uiso   1.00
C106   C     0.36891   0.90602   0.48645   0.00000  Uiso   1.00
C107   C     0.35995   0.98104   0.46100   0.00000  Uiso   1.00
C108   C     0.30566   0.02154   0.43605   0.00000  Uiso   1.00
C109   C     0.30687   0.08894   0.41529   0.00000  Uiso   1.00
C110   C     0.38172   0.90771   0.55039   0.00000  Uiso   1.00
C111   C     0.34574   0.88655   0.60059   0.00000  Uiso   1.00
C112   C     0.36529   0.89220   0.65508   0.00000  Uiso   1.00
C113   C     0.43270   0.86198   0.45313   0.00000  Uiso   1.00
C114   C     0.43959   0.80236   0.42156   0.00000  Uiso   1.00
C115   C     0.50206   0.76949   0.39419   0.00000  Uiso   1.00
H116   H     0.50934   0.97382   0.49714   0.00000  Uiso   1.00
H117   H     0.45634   0.09428   0.44752   0.00000  Uiso   1.00
H118   H     0.49642   0.95929   0.61204   0.00000  Uiso   1.00
H119   H     0.59025   0.87512   0.43304   0.00000  Uiso   1.00
H120   H     0.37393   0.21642   0.39074   0.00000  Uiso   1.00
H121   H     0.45846   0.93178   0.73762   0.00000  Uiso   1.00
H122   H     0.65632   0.75428   0.36017   0.00000  Uiso   1.00
H123   H     0.32718   0.88587   0.48328   0.00000  Uiso   1.00
H124   H     0.26418   0.00150   0.43290   0.00000  Uiso   1.00
H125   H     0.30426   0.86652   0.59741   0.00000  Uiso   1.00
H126   H     0.39809   0.78234   0.41842   0.00000  Uiso   1.00
H127   H     0.21797   0.14112   0.37887   0.00000  Uiso   1.00
H128   H     0.30250   0.85647   0.72575   0.00000  Uiso   1.00
H129   H     0.50035   0.67898   0.34830   0.00000  Uiso   1.00
O130   O     0.25778   0.25643   0.35193   0.00000  Uiso   1.00
O131   O     0.36869   0.88298   0.80702   0.00000  Uiso   1.00
O132   O     0.62828   0.65011   0.31182   0.00000  Uiso   1.00
N133   N     0.34587   0.18282   0.39485   0.00000  Uiso   1.00
N134   N     0.42490   0.91671   0.71916   0.00000  Uiso   1.00
N135   N     0.60988   0.75075   0.36629   0.00000  Uiso   1.00
N136   N     0.26195   0.14230   0.38846   0.00000  Uiso   1.00
N137   N     0.34097   0.87619   0.71278   0.00000  Uiso   1.00
N138   N     0.52596   0.71023   0.35991   0.00000  Uiso   1.00
C139   C     0.79317   0.67417   0.88176   0.00000  Uiso   1.00
C140   C     0.74262   0.71276   0.84150   0.00000  Uiso   1.00
C141   C     0.71165   0.78444   0.84102   0.00000  Uiso   1.00
C142   C     0.66694   0.80956   0.80086   0.00000  Uiso   1.00
C143   C     0.59049   0.87632   0.74415   0.00000  Uiso   1.00
C144   C     0.85390   0.63659   0.84053   0.00000  Uiso   1.00
C145   C     0.91650   0.64423   0.83924   0.00000  Uiso   1.00
C146   C     0.96547   0.60523   0.79826   0.00000  Uiso   1.00
C147   C     0.06179   0.55371   0.74007   0.00000  Uiso   1.00
C148   C     0.76632   0.61640   0.91497   0.00000  Uiso   1.00
C149   C     0.75529   0.60705   0.97627   0.00000  Uiso   1.00
C150   C     0.73053   0.55104   0.99797   0.00000  Uiso   1.00
C151   C     0.69087   0.46817   0.05536   0.00000  Uiso   1.00
C152   C     0.76884   0.59133   0.81131   0.00000  Uiso   1.00
C153   C     0.72941   0.66775   0.80324   0.00000  Uiso   1.00
C154   C     0.68474   0.69278   0.76307   0.00000  Uiso   1.00
C155   C     0.65370   0.76448   0.76253   0.00000  Uiso   1.00
C156   C     0.84069   0.59159   0.80226   0.00000  Uiso   1.00
C157   C     0.88958   0.55257   0.76129   0.00000  Uiso   1.00
C158   C     0.95223   0.56015   0.75993   0.00000  Uiso   1.00
C159   C     0.75310   0.57140   0.87671   0.00000  Uiso   1.00
C160   C     0.72837   0.51539   0.89832   0.00000  Uiso   1.00
C161   C     0.71730   0.50596   0.95964   0.00000  Uiso   1.00
H162   H     0.80346   0.70920   0.91155   0.00000  Uiso   1.00
H163   H     0.72190   0.81924   0.87064   0.00000  Uiso   1.00
H164   H     0.92671   0.67905   0.86886   0.00000  Uiso   1.00
H165   H     0.76552   0.64188   0.00587   0.00000  Uiso   1.00
H166   H     0.62565   0.92140   0.80838   0.00000  Uiso   1.00
H167   H     0.05752   0.62579   0.80464   0.00000  Uiso   1.00
H168   H     0.71762   0.54740   0.09356   0.00000  Uiso   1.00
H169   H     0.75856   0.55629   0.78152   0.00000  Uiso   1.00
H170   H     0.67452   0.65794   0.73346   0.00000  Uiso   1.00
H171   H     0.87934   0.51775   0.73168   0.00000  Uiso   1.00
H172   H     0.71815   0.48058   0.86869   0.00000  Uiso   1.00
H173   H     0.58721   0.79049   0.69704   0.00000  Uiso   1.00
H174   H     0.01908   0.49487   0.69331   0.00000  Uiso   1.00
H175   H     0.67917   0.41648   0.98222   0.00000  Uiso   1.00
O176   O     0.55198   0.92558   0.72343   0.00000  Uiso   1.00
O177   O     0.11857   0.53773   0.71854   0.00000  Uiso   1.00
O178   O     0.67263   0.43489   0.09759   0.00000  Uiso   1.00
N179   N     0.62813   0.87664   0.78878   0.00000  Uiso   1.00
N180   N     0.03190   0.60026   0.78528   0.00000  Uiso   1.00
N181   N     0.71414   0.52697   0.05539   0.00000  Uiso   1.00
N182   N     0.60744   0.80619   0.72887   0.00000  Uiso   1.00
N183   N     0.01121   0.52982   0.72537   0.00000  Uiso   1.00
N184   N     0.69345   0.45652   0.99548   0.00000  Uiso   1.00
C185   C     0.32218   0.23718   0.85618   0.00000  Uiso   1.00
C186   C     0.38863   0.19602   0.82517   0.00000  Uiso   1.00
C187   C     0.44727   0.21345   0.82315   0.00000  Uiso   1.00
C188   C     0.50269   0.16903   0.79255   0.00000  Uiso   1.00
C189   C     0.60635   0.11417   0.74862   0.00000  Uiso   1.00
C190   C     0.29768   0.18510   0.89982   0.00000  Uiso   1.00
C191   C     0.27985   0.19336   0.96057   0.00000  Uiso   1.00
C192   C     0.25870   0.13976   0.99280   0.00000  Uiso   1.00
C193   C     0.22112   0.06798   0.06477   0.00000  Uiso   1.00
C194   C     0.27622   0.25512   0.80876   0.00000  Uiso   1.00
C195   C     0.24034   0.32225   0.79295   0.00000  Uiso   1.00
C196   C     0.20111   0.32760   0.74852   0.00000  Uiso   1.00
C197   C     0.13022   0.36453   0.67910   0.00000  Uiso   1.00
C198   C     0.31632   0.12731   0.80541   0.00000  Uiso   1.00
C199   C     0.38544   0.13634   0.79760   0.00000  Uiso   1.00
C200   C     0.44078   0.09188   0.76698   0.00000  Uiso   1.00
C201   C     0.49950   0.10924   0.76492   0.00000  Uiso   1.00
C202   C     0.29450   0.12542   0.87225   0.00000  Uiso   1.00
C203   C     0.27337   0.07180   0.90440   0.00000  Uiso   1.00
C204   C     0.25551   0.07997   0.96518   0.00000  Uiso   1.00
C205   C     0.27304   0.19544   0.78118   0.00000  Uiso   1.00
C206   C     0.23386   0.20069   0.73678   0.00000  Uiso   1.00
C207   C     0.19792   0.26781   0.72090   0.00000  Uiso   1.00
H208   H     0.32466   0.28364   0.87765   0.00000  Uiso   1.00
H209   H     0.44971   0.25963   0.84450   0.00000  Uiso   1.00
H210   H     0.28231   0.23956   0.98189   0.00000  Uiso   1.00
H211   H     0.24281   0.36842   0.81429   0.00000  Uiso   1.00
H212   H     0.58696   0.20668   0.79561   0.00000  Uiso   1.00
H213   H     0.23397   0.16436   0.08531   0.00000  Uiso   1.00
H214   H     0.15067   0.43610   0.73189   0.00000  Uiso   1.00
H215   H     0.31384   0.08084   0.78394   0.00000  Uiso   1.00
H216   H     0.43831   0.04570   0.74565   0.00000  Uiso   1.00
H217   H     0.27091   0.02563   0.88305   0.00000  Uiso   1.00
H218   H     0.23140   0.15449   0.71545   0.00000  Uiso   1.00
H219   H     0.57770   0.03304   0.71538   0.00000  Uiso   1.00
H220   H     0.22471   0.99073   0.00508   0.00000  Uiso   1.00
H221   H     0.14141   0.26246   0.65167   0.00000  Uiso   1.00
O222   O     0.66441   0.10039   0.73201   0.00000  Uiso   1.00
O223   O     0.20128   0.04488   0.11208   0.00000  Uiso   1.00
O224   O     0.09200   0.40139   0.64841   0.00000  Uiso   1.00
N225   N     0.56770   0.17064   0.78197   0.00000  Uiso   1.00
N226   N     0.23768   0.13107   0.05282   0.00000  Uiso   1.00
N227   N     0.15979   0.38513   0.72242   0.00000  Uiso   1.00
N228   N     0.56272   0.07721   0.73880   0.00000  Uiso   1.00
N229   N     0.23270   0.03764   0.00966   0.00000  Uiso   1.00
N230   N     0.15481   0.29169   0.67925   0.00000  Uiso   1.00
C231   C     0.94866   0.18065   0.26619   0.00000  Uiso   1.00
C232   C     0.91038   0.14928   0.31764   0.00000  Uiso   1.00
C233   C     0.92563   0.13700   0.37532   0.00000  Uiso   1.00
C234   C     0.88450   0.10796   0.41594   0.00000  Uiso   1.00
C235   C     0.83332   0.06175   0.49835   0.00000  Uiso   1.00
C236   C     0.89955   0.24500   0.24294   0.00000  Uiso   1.00
C237   C     0.90570   0.31319   0.23781   0.00000  Uiso   1.00
C238   C     0.85545   0.36473   0.21554   0.00000  Uiso   1.00
C239   C     0.78748   0.46711   0.18194   0.00000  Uiso   1.00
C240   C     0.96741   0.12730   0.21713   0.00000  Uiso   1.00
C241   C     0.03062   0.09654   0.19028   0.00000  Uiso   1.00
C242   C     0.03751   0.04900   0.14626   0.00000  Uiso   1.00
C243   C     0.07490   0.96863   0.07258   0.00000  Uiso   1.00
C244   C     0.84850   0.15092   0.23576   0.00000  Uiso   1.00
C245   C     0.85597   0.13314   0.30111   0.00000  Uiso   1.00
C246   C     0.81481   0.10411   0.34165   0.00000  Uiso   1.00
C247   C     0.83000   0.09179   0.39938   0.00000  Uiso   1.00
C248   C     0.84514   0.22886   0.22641   0.00000  Uiso   1.00
C249   C     0.79488   0.28030   0.20414   0.00000  Uiso   1.00
C250   C     0.80095   0.34856   0.19898   0.00000  Uiso   1.00
C251   C     0.91301   0.11115   0.20060   0.00000  Uiso   1.00
C252   C     0.91980   0.06365   0.15661   0.00000  Uiso   1.00
C253   C     0.98301   0.03282   0.12970   0.00000  Uiso   1.00
H254   H     0.99101   0.19322   0.27906   0.00000  Uiso   1.00
H255   H     0.96773   0.14951   0.38809   0.00000  Uiso   1.00
H256   H     0.94780   0.32567   0.25060   0.00000  Uiso   1.00
H257   H     0.07270   0.10905   0.20308   0.00000  Uiso   1.00
H258   H     0.91791   0.09395   0.50170   0.00000  Uiso   1.00
H259   H     0.87591   0.46539   0.21176   0.00000  Uiso   1.00
H260   H     0.13928   0.00861   0.11156   0.00000  Uiso   1.00
H261   H     0.80614   0.13835   0.22289   0.00000  Uiso   1.00
H262   H     0.77272   0.09162   0.32885   0.00000  Uiso   1.00
H263   H     0.75279   0.26779   0.19135   0.00000  Uiso   1.00
H264   H     0.87769   0.05117   0.14383   0.00000  Uiso   1.00
H265   H     0.75964   0.04697   0.45361   0.00000  Uiso   1.00
H266   H     0.71763   0.41841   0.16367   0.00000  Uiso   1.00
H267   H     0.98101   0.96163   0.06347   0.00000  Uiso   1.00
O268   O     0.82011   0.04073   0.54837   0.00000  Uiso   1.00
O269   O     0.76501   0.52804   0.16798   0.00000  Uiso   1.00
O270   O     0.11055   0.92875   0.03652   0.00000  Uiso   1.00
N271   N     0.88526   0.08929   0.47584   0.00000  Uiso   1.00
N272   N     0.84598   0.43657   0.20477   0.00000  Uiso   1.00
N273   N     0.09221   0.00953   0.11108   0.00000  Uiso   1.00
N274   N     0.80009   0.06401   0.44996   0.00000  Uiso   1.00
N275   N     0.76081   0.41129   0.17890   0.00000  Uiso   1.00
N276   N     0.00704   0.98425   0.08520   0.00000  Uiso   1.00
C277   C     0.42540   0.78123   0.08399   0.00000  Uiso   1.00
C278   C     0.46703   0.82691   0.05131   0.00000  Uiso   1.00
C279   C     0.47747   0.83819   0.99019   0.00000  Uiso   1.00
C280   C     0.51711   0.88174   0.96900   0.00000  Uiso   1.00
C281   C     0.57744   0.94796   0.91240   0.00000  Uiso   1.00
C282   C     0.37437   0.82886   0.12804   0.00000  Uiso   1.00
C283   C     0.30689   0.84178   0.13143   0.00000  Uiso   1.00
C284   C     0.26853   0.88697   0.17483   0.00000  Uiso   1.00
C285   C     0.18500   0.95618   0.23737   0.00000  Uiso   1.00
C286   C     0.47033   0.72718   0.12129   0.00000  Uiso   1.00
C287   C     0.48353   0.65460   0.11902   0.00000  Uiso   1.00
C288   C     0.52596   0.61418   0.15675   0.00000  Uiso   1.00
C289   C     0.59143   0.52552   0.20882   0.00000  Uiso   1.00
C290   C     0.47726   0.83852   0.15503   0.00000  Uiso   1.00
C291   C     0.49520   0.85803   0.08990   0.00000  Uiso   1.00
C292   C     0.53484   0.90157   0.06880   0.00000  Uiso   1.00
C293   C     0.54533   0.91291   0.00765   0.00000  Uiso   1.00
C294   C     0.40253   0.85998   0.16663   0.00000  Uiso   1.00
C295   C     0.36426   0.90516   0.21003   0.00000  Uiso   1.00
C296   C     0.29675   0.91814   0.21349   0.00000  Uiso   1.00
C297   C     0.49850   0.75830   0.15988   0.00000  Uiso   1.00
C298   C     0.54091   0.71798   0.19762   0.00000  Uiso   1.00
C299   C     0.55417   0.64535   0.19541   0.00000  Uiso   1.00
H300   H     0.40347   0.75701   0.05395   0.00000  Uiso   1.00
H301   H     0.45566   0.81410   0.96035   0.00000  Uiso   1.00
H302   H     0.28511   0.81768   0.10157   0.00000  Uiso   1.00
H303   H     0.46173   0.63054   0.08916   0.00000  Uiso   1.00
H304   H     0.52592   0.89114   0.87359   0.00000  Uiso   1.00
H305   H     0.16631   0.89868   0.17138   0.00000  Uiso   1.00
H306   H     0.53874   0.50404   0.14521   0.00000  Uiso   1.00
H307   H     0.49918   0.86275   0.18508   0.00000  Uiso   1.00
H308   H     0.55663   0.92564   0.09867   0.00000  Uiso   1.00
H309   H     0.38608   0.92923   0.23989   0.00000  Uiso   1.00
H310   H     0.56270   0.74208   0.22748   0.00000  Uiso   1.00
H311   H     0.60787   0.98168   0.98586   0.00000  Uiso   1.00
H312   H     0.24825   0.98921   0.28364   0.00000  Uiso   1.00
H313   H     0.62069   0.59458   0.25748   0.00000  Uiso   1.00
O314   O     0.60293   0.97590   0.87052   0.00000  Uiso   1.00
O315   O     0.13114   0.98577   0.26121   0.00000  Uiso   1.00
O316   O     0.61977   0.46802   0.22687   0.00000  Uiso   1.00
N317   N     0.53733   0.90381   0.91187   0.00000  Uiso   1.00
N318   N     0.20112   0.91086   0.19028   0.00000  Uiso   1.00
N319   N     0.54930   0.54191   0.16582   0.00000  Uiso   1.00
N320   N     0.58143   0.95252   0.97228   0.00000  Uiso   1.00
N321   N     0.24521   0.95958   0.25069   0.00000  Uiso   1.00
N322   N     0.59339   0.59063   0.22623   0.00000  Uiso   1.00
C323   C     0.97880   0.82373   0.44192   0.00000  Uiso   1.00
C324   C     0.90762   0.84978   0.47026   0.00000  Uiso   1.00
C325   C     0.85289   0.85306   0.44320   0.00000  Uiso   1.00
C326   C     0.79201   0.87847   0.47660   0.00000  Uiso   1.00
C327   C     0.68237   0.91563   0.51174   0.00000  Uiso   1.00
C328   C     0.01192   0.76458   0.48311   0.00000  Uiso   1.00
C329   C     0.04489   0.69623   0.46686   0.00000  Uiso   1.00
C330   C     0.07182   0.64992   0.51109   0.00000  Uiso   1.00
C331   C     0.12416   0.55482   0.56618   0.00000  Uiso   1.00
C332   C     0.00945   0.88375   0.44601   0.00000  Uiso   1.00
C333   C     0.04037   0.91560   0.39856   0.00000  Uiso   1.00
C334   C     0.06523   0.96961   0.41154   0.00000  Uiso   1.00
C335   C     0.11373   0.05955   0.40901   0.00000  Uiso   1.00
C336   C     0.96799   0.86301   0.54935   0.00000  Uiso   1.00
C337   C     0.90175   0.87111   0.52861   0.00000  Uiso   1.00
C338   C     0.84093   0.89652   0.56206   0.00000  Uiso   1.00
C339   C     0.78612   0.89984   0.53506   0.00000  Uiso   1.00
C340   C     0.00605   0.78591   0.54146   0.00000  Uiso   1.00
C341   C     0.03293   0.73968   0.58572   0.00000  Uiso   1.00
C342   C     0.06594   0.67129   0.56955   0.00000  Uiso   1.00
C343   C     0.00358   0.90509   0.50436   0.00000  Uiso   1.00
C344   C     0.02840   0.95905   0.51742   0.00000  Uiso   1.00
C345   C     0.05934   0.99098   0.47000   0.00000  Uiso   1.00
H346   H     0.98337   0.80712   0.39649   0.00000  Uiso   1.00
H347   H     0.85745   0.83654   0.39804   0.00000  Uiso   1.00
H348   H     0.04943   0.67974   0.42170   0.00000  Uiso   1.00
H349   H     0.04490   0.89907   0.35341   0.00000  Uiso   1.00
H350   H     0.71526   0.87855   0.42551   0.00000  Uiso   1.00
H351   H     0.12008   0.54792   0.47539   0.00000  Uiso   1.00
H352   H     0.11053   0.01043   0.33137   0.00000  Uiso   1.00
H353   H     0.96342   0.87962   0.59478   0.00000  Uiso   1.00
H354   H     0.83640   0.91302   0.60722   0.00000  Uiso   1.00
H355   H     0.02838   0.75621   0.63087   0.00000  Uiso   1.00
H356   H     0.02385   0.97555   0.56258   0.00000  Uiso   1.00
H357   H     0.69818   0.94061   0.59528   0.00000  Uiso   1.00
H358   H     0.10300   0.60999   0.64516   0.00000  Uiso   1.00
H359   H     0.09344   0.07250   0.50115   0.00000  Uiso   1.00
O360   O     0.62353   0.93022   0.51500   0.00000  Uiso   1.00
O361   O     0.15464   0.49647   0.58044   0.00000  Uiso   1.00
O362   O     0.14210   0.10327   0.39150   0.00000  Uiso   1.00
N363   N     0.72867   0.88858   0.46375   0.00000  Uiso   1.00
N364   N     0.10715   0.57947   0.51039   0.00000  Uiso   1.00
N365   N     0.09823   0.01186   0.37575   0.00000  Uiso   1.00
N366   N     0.71948   0.92198   0.55511   0.00000  Uiso   1.00
N367   N     0.09795   0.61287   0.60174   0.00000  Uiso   1.00
N368   N     0.08903   0.04526   0.46710   0.00000  Uiso   1.00
C369   C     0.39579   0.32784   0.49551   0.00000  Uiso   1.00
C370   C     0.45132   0.27310   0.52126   0.00000  Uiso   1.00
C371   C     0.45146   0.20443   0.53874   0.00000  Uiso   1.00
C372   C     0.50694   0.16258   0.56119   0.00000  Uiso   1.00
C373   C     0.58505   0.07361   0.60043   0.00000  Uiso   1.00
C374   C     0.42603   0.35236   0.43574   0.00000  Uiso   1.00
C375   C     0.40490   0.35033   0.38130   0.00000  Uiso   1.00
C376   C     0.43909   0.37521   0.33176   0.00000  Uiso   1.00
C377   C     0.47792   0.40934   0.23822   0.00000  Uiso   1.00
C378   C     0.37737   0.39084   0.53555   0.00000  Uiso   1.00
C379   C     0.31532   0.42118   0.56504   0.00000  Uiso   1.00
C380   C     0.30853   0.47847   0.59953   0.00000  Uiso   1.00
C381   C     0.27180   0.57234   0.66097   0.00000  Uiso   1.00
C382   C     0.49406   0.37565   0.50432   0.00000  Uiso   1.00
C383   C     0.50469   0.29907   0.52605   0.00000  Uiso   1.00
C384   C     0.56019   0.25732   0.54848   0.00000  Uiso   1.00
C385   C     0.56041   0.18859   0.56599   0.00000  Uiso   1.00
C386   C     0.47941   0.37832   0.44052   0.00000  Uiso   1.00
C387   C     0.51363   0.40322   0.39105   0.00000  Uiso   1.00
C388   C     0.49257   0.40122   0.33656   0.00000  Uiso   1.00
C389   C     0.43074   0.41680   0.54034   0.00000  Uiso   1.00
C390   C     0.42405   0.47406   0.57479   0.00000  Uiso   1.00
C391   C     0.36201   0.50448   0.60432   0.00000  Uiso   1.00
H392   H     0.35423   0.30763   0.49178   0.00000  Uiso   1.00
H393   H     0.41014   0.18435   0.53502   0.00000  Uiso   1.00
H394   H     0.36359   0.33023   0.37762   0.00000  Uiso   1.00
H395   H     0.27403   0.40107   0.56133   0.00000  Uiso   1.00
H396   H     0.49568   0.05911   0.58506   0.00000  Uiso   1.00
H397   H     0.39751   0.36674   0.25316   0.00000  Uiso   1.00
H398   H     0.20864   0.51611   0.64054   0.00000  Uiso   1.00
H399   H     0.53562   0.39587   0.50804   0.00000  Uiso   1.00
H400   H     0.60149   0.27743   0.55218   0.00000  Uiso   1.00
H401   H     0.55493   0.42331   0.39477   0.00000  Uiso   1.00
H402   H     0.46537   0.49415   0.57848   0.00000  Uiso   1.00
H403   H     0.65098   0.13465   0.59898   0.00000  Uiso   1.00
H404   H     0.55281   0.44229   0.26708   0.00000  Uiso   1.00
H405   H     0.36394   0.59166   0.65446   0.00000  Uiso   1.00
O406   O     0.61340   0.01737   0.62074   0.00000  Uiso   1.00
O407   O     0.48459   0.42098   0.18531   0.00000  Uiso   1.00
O408   O     0.23680   0.61695   0.69355   0.00000  Uiso   1.00
N409   N     0.52319   0.09315   0.58229   0.00000  Uiso   1.00
N410   N     0.43141   0.38075   0.27198   0.00000  Uiso   1.00
N411   N     0.25483   0.52042   0.63414   0.00000  Uiso   1.00
N412   N     0.60675   0.13380   0.58978   0.00000  Uiso   1.00
N413   N     0.51498   0.42140   0.27947   0.00000  Uiso   1.00
N414   N     0.33839   0.56107   0.64163   0.00000  Uiso   1.00
C415   C     0.95101   0.63312   0.10502   0.00000  Uiso   1.00
C416   C     0.99451   0.59123   0.14988   0.00000  Uiso   1.00
C417   C     0.01666   0.51838   0.15471   0.00000  Uiso   1.00
C418   C     0.05598   0.49017   0.19866   0.00000  Uiso   1.00
C419   C     0.12100   0.41856   0.26260   0.00000  Uiso   1.00
C420   C     0.89111   0.68011   0.14137   0.00000  Uiso   1.00
C421   C     0.82633   0.68199   0.13903   0.00000  Uiso   1.00
C422   C     0.77861   0.72861   0.17580   0.00000  Uiso   1.00
C423   C     0.68309   0.79502   0.22650   0.00000  Uiso   1.00
C424   C     0.98825   0.68247   0.07140   0.00000  Uiso   1.00
C425   C     0.00512   0.68634   0.01023   0.00000  Uiso   1.00
C426   C     0.03918   0.73496   0.98809   0.00000  Uiso   1.00
C427   C     0.09448   0.80503   0.93015   0.00000  Uiso   1.00
C428   C     0.98146   0.71258   0.17447   0.00000  Uiso   1.00
C429   C     0.01105   0.63439   0.18761   0.00000  Uiso   1.00
C430   C     0.05036   0.60629   0.23155   0.00000  Uiso   1.00
C431   C     0.07256   0.53340   0.23645   0.00000  Uiso   1.00
C432   C     0.90766   0.72327   0.17909   0.00000  Uiso   1.00
C433   C     0.86002   0.76990   0.21587   0.00000  Uiso   1.00
C434   C     0.79518   0.77184   0.21360   0.00000  Uiso   1.00
C435   C     0.00480   0.72563   0.10912   0.00000  Uiso   1.00
C436   C     0.03883   0.77425   0.08707   0.00000  Uiso   1.00
C437   C     0.05575   0.77820   0.02588   0.00000  Uiso   1.00
H438   H     0.93812   0.59952   0.07565   0.00000  Uiso   1.00
H439   H     0.00384   0.48499   0.12551   0.00000  Uiso   1.00
H440   H     0.81354   0.64859   0.10983   0.00000  Uiso   1.00
H441   H     0.99231   0.65294   0.98105   0.00000  Uiso   1.00
H442   H     0.08398   0.37705   0.19745   0.00000  Uiso   1.00
H443   H     0.68272   0.72201   0.16437   0.00000  Uiso   1.00
H444   H     0.05970   0.73119   0.89280   0.00000  Uiso   1.00
H445   H     0.99434   0.74618   0.20384   0.00000  Uiso   1.00
H446   H     0.06315   0.63970   0.26074   0.00000  Uiso   1.00
H447   H     0.87285   0.80329   0.24505   0.00000  Uiso   1.00
H448   H     0.05162   0.80764   0.11627   0.00000  Uiso   1.00
H449   H     0.13212   0.50262   0.30721   0.00000  Uiso   1.00
H450   H     0.73085   0.84758   0.27412   0.00000  Uiso   1.00
H451   H     0.10783   0.85675   0.00256   0.00000  Uiso   1.00
O452   O     0.15228   0.36714   0.28746   0.00000  Uiso   1.00
O453   O     0.62584   0.81973   0.24404   0.00000  Uiso   1.00
O454   O     0.12043   0.83176   0.88776   0.00000  Uiso   1.00
N455   N     0.08588   0.42122   0.21547   0.00000  Uiso   1.00
N456   N     0.71072   0.74373   0.18454   0.00000  Uiso   1.00
N457   N     0.06315   0.75232   0.93065   0.00000  Uiso   1.00
N458   N     0.11178   0.48879   0.27452   0.00000  Uiso   1.00
N459   N     0.73662   0.81129   0.24360   0.00000  Uiso   1.00
N460   N     0.08905   0.81988   0.98971   0.00000  Uiso   1.00
C461   C     0.44688   0.07802   0.14033   0.00000  Uiso   1.00
C462   C     0.37863   0.12023   0.16667   0.00000  Uiso   1.00
C463   C     0.32110   0.10078   0.16775   0.00000  Uiso   1.00
C464   C     0.26367   0.14662   0.19387   0.00000  Uiso   1.00
C465   C     0.15766   0.20259   0.23108   0.00000  Uiso   1.00
C466   C     0.47286   0.12709   0.09450   0.00000  Uiso   1.00
C467   C     0.49458   0.11340   0.03490   0.00000  Uiso   1.00
C468   C     0.51648   0.16502   0.00027   0.00000  Uiso   1.00
C469   C     0.55682   0.23161   0.92544   0.00000  Uiso   1.00
C470   C     0.48935   0.06624   0.19028   0.00000  Uiso   1.00
C471   C     0.52494   0.00139   0.21120   0.00000  Uiso   1.00
C472   C     0.56073   0.00176   0.25719   0.00000  Uiso   1.00
C473   C     0.62667   0.97388   0.33106   0.00000  Uiso   1.00
C474   C     0.44717   0.19401   0.18479   0.00000  Uiso   1.00
C475   C     0.37878   0.18323   0.19082   0.00000  Uiso   1.00
C476   C     0.32142   0.22911   0.21695   0.00000  Uiso   1.00
C477   C     0.26382   0.20973   0.21807   0.00000  Uiso   1.00
C478   C     0.47302   0.19009   0.11865   0.00000  Uiso   1.00
C479   C     0.49489   0.24173   0.08410   0.00000  Uiso   1.00
C480   C     0.51663   0.22813   0.02446   0.00000  Uiso   1.00
C481   C     0.48950   0.12924   0.21443   0.00000  Uiso   1.00
C482   C     0.52525   0.12972   0.26039   0.00000  Uiso   1.00
C483   C     0.56089   0.06488   0.28139   0.00000  Uiso   1.00
H484   H     0.44676   0.02898   0.12152   0.00000  Uiso   1.00
H485   H     0.32100   0.05202   0.14905   0.00000  Uiso   1.00
H486   H     0.49446   0.06464   0.01623   0.00000  Uiso   1.00
H487   H     0.52481   0.95264   0.19250   0.00000  Uiso   1.00
H488   H     0.18164   0.10538   0.19021   0.00000  Uiso   1.00
H489   H     0.54740   0.13197   0.91014   0.00000  Uiso   1.00
H490   H     0.61141   0.89580   0.28184   0.00000  Uiso   1.00
H491   H     0.44729   0.24306   0.20359   0.00000  Uiso   1.00
H492   H     0.32155   0.27786   0.23563   0.00000  Uiso   1.00
H493   H     0.49501   0.29048   0.10280   0.00000  Uiso   1.00
H494   H     0.52536   0.17848   0.27907   0.00000  Uiso   1.00
H495   H     0.18209   0.28867   0.26048   0.00000  Uiso   1.00
H496   H     0.54785   0.31527   0.98041   0.00000  Uiso   1.00
H497   H     0.61185   0.07909   0.35211   0.00000  Uiso   1.00
O498   O     0.09914   0.21606   0.24492   0.00000  Uiso   1.00
O499   O     0.57902   0.25095   0.87749   0.00000  Uiso   1.00
O500   O     0.66299   0.94109   0.36515   0.00000  Uiso   1.00
N501   N     0.19900   0.14373   0.20236   0.00000  Uiso   1.00
N502   N     0.54096   0.16860   0.94051   0.00000  Uiso   1.00
N503   N     0.60081   0.94780   0.28801   0.00000  Uiso   1.00
N504   N     0.19924   0.24236   0.24017   0.00000  Uiso   1.00
N505   N     0.54120   0.26723   0.97832   0.00000  Uiso   1.00
N506   N     0.60105   0.04643   0.32582   0.00000  Uiso   1.00
C507   C     0.85551   0.10054   0.72109   0.00000  Uiso   1.00
C508   C     0.89843   0.13330   0.67478   0.00000  Uiso   1.00
C509   C     0.88898   0.14908   0.61579   0.00000  Uiso   1.00
C510   C     0.93365   0.17885   0.58057   0.00000  Uiso   1.00
C511   C     0.99236   0.22763   0.50516   0.00000  Uiso   1.00
C512   C     0.90129   0.03414   0.74530   0.00000  Uiso   1.00
C513   C     0.89424   0.96654   0.74560   0.00000  Uiso   1.00
C514   C     0.94132   0.91284   0.76974   0.00000  Uiso   1.00
C515   C     0.00444   0.80768   0.80385   0.00000  Uiso   1.00
C516   C     0.83271   0.15120   0.77220   0.00000  Uiso   1.00
C517   C     0.76799   0.18201   0.79514   0.00000  Uiso   1.00
C518   C     0.75733   0.22685   0.84195   0.00000  Uiso   1.00
C519   C     0.71397   0.30344   0.91783   0.00000  Uiso   1.00
C520   C     0.95165   0.12538   0.76344   0.00000  Uiso   1.00
C521   C     0.95065   0.14679   0.69779   0.00000  Uiso   1.00
C522   C     0.99534   0.17655   0.66265   0.00000  Uiso   1.00
C523   C     0.98596   0.19237   0.60361   0.00000  Uiso   1.00
C524   C     0.95351   0.04763   0.76830   0.00000  Uiso   1.00
C525   C     0.00061   0.99402   0.79245   0.00000  Uiso   1.00
C526   C     0.99363   0.92635   0.79279   0.00000  Uiso   1.00
C527   C     0.88492   0.16469   0.79521   0.00000  Uiso   1.00
C528   C     0.87436   0.20949   0.84199   0.00000  Uiso   1.00
C529   C     0.80964   0.24036   0.86499   0.00000  Uiso   1.00
H530   H     0.81486   0.09004   0.70318   0.00000  Uiso   1.00
H531   H     0.84856   0.13862   0.59800   0.00000  Uiso   1.00
H532   H     0.85382   0.95612   0.72780   0.00000  Uiso   1.00
H533   H     0.72759   0.17156   0.77733   0.00000  Uiso   1.00
H534   H     0.90897   0.19841   0.49153   0.00000  Uiso   1.00
H535   H     0.92004   0.81360   0.76523   0.00000  Uiso   1.00
H536   H     0.65387   0.26789   0.86968   0.00000  Uiso   1.00
H537   H     0.99231   0.13588   0.78135   0.00000  Uiso   1.00
H538   H     0.03575   0.18698   0.68046   0.00000  Uiso   1.00
H539   H     0.04101   0.00448   0.81025   0.00000  Uiso   1.00
H540   H     0.91478   0.21991   0.85978   0.00000  Uiso   1.00
H541   H     0.06090   0.23766   0.55846   0.00000  Uiso   1.00
H542   H     0.07197   0.85285   0.83216   0.00000  Uiso   1.00
H543   H     0.80580   0.30714   0.93660   0.00000  Uiso   1.00
O544   O     0.01033   0.25080   0.45721   0.00000  Uiso   1.00
O545   O     0.02484   0.74595   0.81630   0.00000  Uiso   1.00
O546   O     0.67563   0.34196   0.95333   0.00000  Uiso   1.00
N547   N     0.93876   0.20065   0.52113   0.00000  Uiso   1.00
N548   N     0.94912   0.84087   0.77701   0.00000  Uiso   1.00
N549   N     0.70027   0.26558   0.87467   0.00000  Uiso   1.00
N550   N     0.02051   0.22177   0.55715   0.00000  Uiso   1.00
N551   N     0.03087   0.86199   0.81303   0.00000  Uiso   1.00
N552   N     0.78202   0.28670   0.91068   0.00000  Uiso   1.00
