data_job_04920
_audit_creation_date              2018-12-19
_audit_creation_method            'Materials Studio'
_symmetry_space_group_name_H-M    'P1'
_symmetry_Int_Tables_number       1
_symmetry_cell_setting            triclinic
loop_
_symmetry_equiv_pos_as_xyz
  x,y,z
_cell_length_a                    19.7278
_cell_length_b                    12.6114
_cell_length_c                    23.8332
_cell_angle_alpha                 90.0000
_cell_angle_beta                  90.0000
_cell_angle_gamma                 90.0000
loop_
_atom_site_label
_atom_site_type_symbol
_atom_site_fract_x
_atom_site_fract_y
_atom_site_fract_z
_atom_site_U_iso_or_equiv
_atom_site_adp_type
_atom_site_occupancy
C1     C     0.50575   0.06868   0.05122   0.00000  Uiso   1.00
C2     C     0.48088   0.96640   0.07844   0.00000  Uiso   1.00
C3     C     0.42662   0.90540   0.06022   0.00000  Uiso   1.00
C4     C     0.41192   0.81462   0.09085   0.00000  Uiso   1.00
C5     C     0.36747   0.66018   0.12596   0.00000  Uiso   1.00
C6     C     0.50423   0.15276   0.09719   0.00000  Uiso   1.00
C7     C     0.46961   0.24845   0.09474   0.00000  Uiso   1.00
C8     C     0.47458   0.31454   0.14114   0.00000  Uiso   1.00
C9     C     0.46641   0.44947   0.20535   0.00000  Uiso   1.00
C10    C     0.58037   0.05074   0.03751   0.00000  Uiso   1.00
C11    C     0.60979   0.06069   0.98487   0.00000  Uiso   1.00
C12    C     0.67887   0.04092   0.98103   0.00000  Uiso   1.00
C13    C     0.78893   0.01745   0.95257   0.00000  Uiso   1.00
C14    C     0.57613   0.01593   0.13800   0.00000  Uiso   1.00
C15    C     0.51911   0.93775   0.12557   0.00000  Uiso   1.00
C16    C     0.50449   0.84703   0.15623   0.00000  Uiso   1.00
C17    C     0.45022   0.78590   0.13806   0.00000  Uiso   1.00
C18    C     0.54245   0.12410   0.14432   0.00000  Uiso   1.00
C19    C     0.54748   0.19008   0.19074   0.00000  Uiso   1.00
C20    C     0.51288   0.28584   0.18836   0.00000  Uiso   1.00
C21    C     0.61860   0.02209   0.08464   0.00000  Uiso   1.00
C22    C     0.68765   0.00231   0.08088   0.00000  Uiso   1.00
C23    C     0.71717   0.01222   0.02825   0.00000  Uiso   1.00
H24    H     0.47599   0.09100   0.01453   0.00000  Uiso   1.00
H25    H     0.39705   0.92761   0.02375   0.00000  Uiso   1.00
H26    H     0.44004   0.27060   0.05826   0.00000  Uiso   1.00
H27    H     0.58019   0.08286   0.94841   0.00000  Uiso   1.00
H28    H     0.32637   0.73384   0.05477   0.00000  Uiso   1.00
H29    H     0.41703   0.45709   0.12752   0.00000  Uiso   1.00
H30    H     0.71257   0.06121   0.89588   0.00000  Uiso   1.00
H31    H     0.60590   0.99362   0.17469   0.00000  Uiso   1.00
H32    H     0.53408   0.82487   0.19270   0.00000  Uiso   1.00
H33    H     0.57707   0.16788   0.22721   0.00000  Uiso   1.00
H34    H     0.71722   0.98014   0.11736   0.00000  Uiso   1.00
H35    H     0.43759   0.65046   0.19190   0.00000  Uiso   1.00
H36    H     0.52826   0.37371   0.26465   0.00000  Uiso   1.00
H37    H     0.82379   0.97783   0.03301   0.00000  Uiso   1.00
O38    O     0.33238   0.58293   0.13231   0.00000  Uiso   1.00
O39    O     0.45134   0.53180   0.22774   0.00000  Uiso   1.00
O40    O     0.83908   0.01241   0.92384   0.00000  Uiso   1.00
N41    N     0.36241   0.73737   0.08457   0.00000  Uiso   1.00
N42    N     0.44717   0.41355   0.15258   0.00000  Uiso   1.00
N43    N     0.72347   0.04346   0.93603   0.00000  Uiso   1.00
N44    N     0.42226   0.69250   0.15835   0.00000  Uiso   1.00
N45    N     0.50701   0.36868   0.22637   0.00000  Uiso   1.00
N46    N     0.78332   0.99860   0.00982   0.00000  Uiso   1.00
C47    C     0.74528   0.92604   0.41257   0.00000  Uiso   1.00
C48    C     0.72006   0.02830   0.38554   0.00000  Uiso   1.00
C49    C     0.66556   0.08867   0.40383   0.00000  Uiso   1.00
C50    C     0.65057   0.17955   0.37338   0.00000  Uiso   1.00
C51    C     0.60559   0.33383   0.33856   0.00000  Uiso   1.00
C52    C     0.74412   0.84229   0.36642   0.00000  Uiso   1.00
C53    C     0.70986   0.74627   0.36865   0.00000  Uiso   1.00
C54    C     0.71512   0.68057   0.32211   0.00000  Uiso   1.00
C55    C     0.70753   0.54604   0.25762   0.00000  Uiso   1.00
C56    C     0.81982   0.94455   0.42638   0.00000  Uiso   1.00
C57    C     0.84921   0.93448   0.47902   0.00000  Uiso   1.00
C58    C     0.91821   0.95484   0.48296   0.00000  Uiso   1.00
C59    C     0.02815   0.97909   0.51156   0.00000  Uiso   1.00
C60    C     0.81557   0.98007   0.32596   0.00000  Uiso   1.00
C61    C     0.75824   0.05764   0.33850   0.00000  Uiso   1.00
C62    C     0.74333   0.14845   0.30801   0.00000  Uiso   1.00
C63    C     0.68882   0.20895   0.32626   0.00000  Uiso   1.00
C64    C     0.78230   0.87164   0.31938   0.00000  Uiso   1.00
C65    C     0.78762   0.80605   0.27283   0.00000  Uiso   1.00
C66    C     0.75337   0.70996   0.27498   0.00000  Uiso   1.00
C67    C     0.85800   0.97390   0.37934   0.00000  Uiso   1.00
C68    C     0.92697   0.99427   0.38320   0.00000  Uiso   1.00
C69    C     0.95646   0.98424   0.43583   0.00000  Uiso   1.00
H70    H     0.71556   0.90319   0.44919   0.00000  Uiso   1.00
H71    H     0.63603   0.06593   0.44024   0.00000  Uiso   1.00
H72    H     0.68032   0.72358   0.40506   0.00000  Uiso   1.00
H73    H     0.81965   0.91177   0.51541   0.00000  Uiso   1.00
H74    H     0.56467   0.25928   0.40955   0.00000  Uiso   1.00
H75    H     0.65809   0.53741   0.33539   0.00000  Uiso   1.00
H76    H     0.95188   0.93423   0.56809   0.00000  Uiso   1.00
H77    H     0.84530   0.00291   0.28933   0.00000  Uiso   1.00
H78    H     0.77288   0.17114   0.27161   0.00000  Uiso   1.00
H79    H     0.81718   0.82879   0.23644   0.00000  Uiso   1.00
H80    H     0.95650   0.01698   0.34679   0.00000  Uiso   1.00
H81    H     0.67575   0.34467   0.27269   0.00000  Uiso   1.00
H82    H     0.76917   0.62279   0.19853   0.00000  Uiso   1.00
H83    H     0.06296   0.01962   0.43123   0.00000  Uiso   1.00
O84    O     0.57022   0.41082   0.33234   0.00000  Uiso   1.00
O85    O     0.69279   0.46374   0.23505   0.00000  Uiso   1.00
O86    O     0.07824   0.98437   0.54034   0.00000  Uiso   1.00
N87    N     0.60076   0.25630   0.37978   0.00000  Uiso   1.00
N88    N     0.68809   0.58140   0.31044   0.00000  Uiso   1.00
N89    N     0.96277   0.95237   0.52799   0.00000  Uiso   1.00
N90    N     0.66053   0.30225   0.30614   0.00000  Uiso   1.00
N91    N     0.74786   0.62735   0.23680   0.00000  Uiso   1.00
N92    N     0.02254   0.99832   0.45435   0.00000  Uiso   1.00
C93    C     0.49425   0.93132   0.55122   0.00000  Uiso   1.00
C94    C     0.51912   0.03360   0.57844   0.00000  Uiso   1.00
C95    C     0.57338   0.09460   0.56022   0.00000  Uiso   1.00
C96    C     0.58808   0.18538   0.59085   0.00000  Uiso   1.00
C97    C     0.63253   0.33982   0.62596   0.00000  Uiso   1.00
C98    C     0.49577   0.84724   0.59719   0.00000  Uiso   1.00
C99    C     0.53039   0.75155   0.59474   0.00000  Uiso   1.00
C100   C     0.52542   0.68546   0.64114   0.00000  Uiso   1.00
C101   C     0.53359   0.55053   0.70535   0.00000  Uiso   1.00
C102   C     0.41963   0.94926   0.53751   0.00000  Uiso   1.00
C103   C     0.39021   0.93931   0.48487   0.00000  Uiso   1.00
C104   C     0.32113   0.95908   0.48103   0.00000  Uiso   1.00
C105   C     0.21107   0.98255   0.45257   0.00000  Uiso   1.00
C106   C     0.42387   0.98407   0.63800   0.00000  Uiso   1.00
C107   C     0.48089   0.06225   0.62557   0.00000  Uiso   1.00
C108   C     0.49551   0.15297   0.65623   0.00000  Uiso   1.00
C109   C     0.54978   0.21410   0.63806   0.00000  Uiso   1.00
C110   C     0.45755   0.87590   0.64432   0.00000  Uiso   1.00
C111   C     0.45252   0.80992   0.69074   0.00000  Uiso   1.00
C112   C     0.48712   0.71416   0.68836   0.00000  Uiso   1.00
C113   C     0.38140   0.97791   0.58464   0.00000  Uiso   1.00
C114   C     0.31235   0.99769   0.58088   0.00000  Uiso   1.00
C115   C     0.28283   0.98778   0.52825   0.00000  Uiso   1.00
H116   H     0.52401   0.90900   0.51453   0.00000  Uiso   1.00
H117   H     0.60295   0.07239   0.52375   0.00000  Uiso   1.00
H118   H     0.55996   0.72940   0.55826   0.00000  Uiso   1.00
H119   H     0.41981   0.91714   0.44841   0.00000  Uiso   1.00
H120   H     0.67363   0.26616   0.55477   0.00000  Uiso   1.00
H121   H     0.58297   0.54291   0.62752   0.00000  Uiso   1.00
H122   H     0.28743   0.93879   0.39588   0.00000  Uiso   1.00
H123   H     0.39410   0.00638   0.67469   0.00000  Uiso   1.00
H124   H     0.46592   0.17513   0.69270   0.00000  Uiso   1.00
H125   H     0.42293   0.83212   0.72721   0.00000  Uiso   1.00
H126   H     0.28278   0.01986   0.61736   0.00000  Uiso   1.00
H127   H     0.56241   0.34954   0.69190   0.00000  Uiso   1.00
H128   H     0.47174   0.62629   0.76465   0.00000  Uiso   1.00
H129   H     0.17621   0.02217   0.53301   0.00000  Uiso   1.00
O130   O     0.66762   0.41707   0.63231   0.00000  Uiso   1.00
O131   O     0.54866   0.46820   0.72774   0.00000  Uiso   1.00
O132   O     0.16092   0.98759   0.42384   0.00000  Uiso   1.00
N133   N     0.63759   0.26263   0.58457   0.00000  Uiso   1.00
N134   N     0.55283   0.58645   0.65258   0.00000  Uiso   1.00
N135   N     0.27653   0.95654   0.43603   0.00000  Uiso   1.00
N136   N     0.57774   0.30750   0.65835   0.00000  Uiso   1.00
N137   N     0.49299   0.63132   0.72637   0.00000  Uiso   1.00
N138   N     0.21668   0.00140   0.50982   0.00000  Uiso   1.00
C139   C     0.25472   0.07396   0.91257   0.00000  Uiso   1.00
C140   C     0.27994   0.97170   0.88554   0.00000  Uiso   1.00
C141   C     0.33444   0.91133   0.90383   0.00000  Uiso   1.00
C142   C     0.34943   0.82045   0.87338   0.00000  Uiso   1.00
C143   C     0.39441   0.66617   0.83856   0.00000  Uiso   1.00
C144   C     0.25588   0.15771   0.86642   0.00000  Uiso   1.00
C145   C     0.29014   0.25373   0.86865   0.00000  Uiso   1.00
C146   C     0.28488   0.31943   0.82211   0.00000  Uiso   1.00
C147   C     0.29247   0.45396   0.75762   0.00000  Uiso   1.00
C148   C     0.18018   0.05545   0.92638   0.00000  Uiso   1.00
C149   C     0.15079   0.06552   0.97902   0.00000  Uiso   1.00
C150   C     0.08179   0.04516   0.98296   0.00000  Uiso   1.00
C151   C     0.97185   0.02091   0.01156   0.00000  Uiso   1.00
C152   C     0.18443   0.01993   0.82596   0.00000  Uiso   1.00
C153   C     0.24176   0.94236   0.83850   0.00000  Uiso   1.00
C154   C     0.25667   0.85155   0.80801   0.00000  Uiso   1.00
C155   C     0.31118   0.79105   0.82626   0.00000  Uiso   1.00
C156   C     0.21770   0.12836   0.81938   0.00000  Uiso   1.00
C157   C     0.21238   0.19395   0.77283   0.00000  Uiso   1.00
C158   C     0.24663   0.29004   0.77498   0.00000  Uiso   1.00
C159   C     0.14200   0.02610   0.87934   0.00000  Uiso   1.00
C160   C     0.07303   0.00573   0.88320   0.00000  Uiso   1.00
C161   C     0.04354   0.01576   0.93583   0.00000  Uiso   1.00
H162   H     0.28444   0.09681   0.94919   0.00000  Uiso   1.00
H163   H     0.36397   0.93407   0.94024   0.00000  Uiso   1.00
H164   H     0.31968   0.27642   0.90506   0.00000  Uiso   1.00
H165   H     0.18035   0.08823   0.01541   0.00000  Uiso   1.00
H166   H     0.43533   0.74072   0.90955   0.00000  Uiso   1.00
H167   H     0.34191   0.46259   0.83539   0.00000  Uiso   1.00
H168   H     0.04812   0.06577   0.06809   0.00000  Uiso   1.00
H169   H     0.15470   0.99709   0.78933   0.00000  Uiso   1.00
H170   H     0.22712   0.82886   0.77161   0.00000  Uiso   1.00
H171   H     0.18282   0.17121   0.73644   0.00000  Uiso   1.00
H172   H     0.04350   0.98302   0.84679   0.00000  Uiso   1.00
H173   H     0.32425   0.65533   0.77269   0.00000  Uiso   1.00
H174   H     0.23083   0.37721   0.69853   0.00000  Uiso   1.00
H175   H     0.93704   0.98038   0.93123   0.00000  Uiso   1.00
O176   O     0.42978   0.58918   0.83234   0.00000  Uiso   1.00
O177   O     0.30721   0.53626   0.73505   0.00000  Uiso   1.00
O178   O     0.92176   0.01563   0.04034   0.00000  Uiso   1.00
N179   N     0.39924   0.74370   0.87978   0.00000  Uiso   1.00
N180   N     0.31191   0.41860   0.81044   0.00000  Uiso   1.00
N181   N     0.03723   0.04763   0.02799   0.00000  Uiso   1.00
N182   N     0.33947   0.69775   0.80614   0.00000  Uiso   1.00
N183   N     0.25214   0.37265   0.73680   0.00000  Uiso   1.00
N184   N     0.97746   0.00168   0.95435   0.00000  Uiso   1.00
C185   C     0.00575   0.43132   0.05122   0.00000  Uiso   1.00
C186   C     0.98088   0.53360   0.07844   0.00000  Uiso   1.00
C187   C     0.92662   0.59460   0.06022   0.00000  Uiso   1.00
C188   C     0.91192   0.68538   0.09085   0.00000  Uiso   1.00
C189   C     0.86747   0.83982   0.12596   0.00000  Uiso   1.00
C190   C     0.00423   0.34724   0.09719   0.00000  Uiso   1.00
C191   C     0.96961   0.25155   0.09474   0.00000  Uiso   1.00
C192   C     0.97458   0.18546   0.14114   0.00000  Uiso   1.00
C193   C     0.96641   0.05053   0.20535   0.00000  Uiso   1.00
C194   C     0.08037   0.44926   0.03751   0.00000  Uiso   1.00
C195   C     0.10979   0.43931   0.98487   0.00000  Uiso   1.00
C196   C     0.17887   0.45908   0.98103   0.00000  Uiso   1.00
C197   C     0.28893   0.48255   0.95257   0.00000  Uiso   1.00
C198   C     0.07613   0.48407   0.13800   0.00000  Uiso   1.00
C199   C     0.01911   0.56225   0.12557   0.00000  Uiso   1.00
C200   C     0.00449   0.65297   0.15623   0.00000  Uiso   1.00
C201   C     0.95022   0.71410   0.13806   0.00000  Uiso   1.00
C202   C     0.04245   0.37590   0.14432   0.00000  Uiso   1.00
C203   C     0.04748   0.30992   0.19074   0.00000  Uiso   1.00
C204   C     0.01288   0.21416   0.18836   0.00000  Uiso   1.00
C205   C     0.11860   0.47791   0.08464   0.00000  Uiso   1.00
C206   C     0.18765   0.49769   0.08088   0.00000  Uiso   1.00
C207   C     0.21717   0.48778   0.02825   0.00000  Uiso   1.00
H208   H     0.97599   0.40900   0.01453   0.00000  Uiso   1.00
H209   H     0.89705   0.57239   0.02375   0.00000  Uiso   1.00
H210   H     0.94004   0.22940   0.05826   0.00000  Uiso   1.00
H211   H     0.08019   0.41714   0.94841   0.00000  Uiso   1.00
H212   H     0.82637   0.76616   0.05477   0.00000  Uiso   1.00
H213   H     0.91703   0.04291   0.12752   0.00000  Uiso   1.00
H214   H     0.21257   0.43879   0.89588   0.00000  Uiso   1.00
H215   H     0.10590   0.50638   0.17469   0.00000  Uiso   1.00
H216   H     0.03408   0.67513   0.19270   0.00000  Uiso   1.00
H217   H     0.07707   0.33212   0.22721   0.00000  Uiso   1.00
H218   H     0.21722   0.51986   0.11736   0.00000  Uiso   1.00
H219   H     0.93759   0.84954   0.19190   0.00000  Uiso   1.00
H220   H     0.02826   0.12629   0.26465   0.00000  Uiso   1.00
H221   H     0.32379   0.52217   0.03301   0.00000  Uiso   1.00
O222   O     0.83238   0.91707   0.13231   0.00000  Uiso   1.00
O223   O     0.95134   0.96820   0.22774   0.00000  Uiso   1.00
O224   O     0.33908   0.48759   0.92384   0.00000  Uiso   1.00
N225   N     0.86241   0.76263   0.08457   0.00000  Uiso   1.00
N226   N     0.94717   0.08645   0.15258   0.00000  Uiso   1.00
N227   N     0.22347   0.45654   0.93603   0.00000  Uiso   1.00
N228   N     0.92226   0.80750   0.15835   0.00000  Uiso   1.00
N229   N     0.00701   0.13132   0.22637   0.00000  Uiso   1.00
N230   N     0.28332   0.50140   0.00982   0.00000  Uiso   1.00
C231   C     0.24528   0.57396   0.41257   0.00000  Uiso   1.00
C232   C     0.22006   0.47170   0.38554   0.00000  Uiso   1.00
C233   C     0.16556   0.41133   0.40383   0.00000  Uiso   1.00
C234   C     0.15057   0.32045   0.37338   0.00000  Uiso   1.00
C235   C     0.10559   0.16617   0.33856   0.00000  Uiso   1.00
C236   C     0.24412   0.65771   0.36642   0.00000  Uiso   1.00
C237   C     0.20986   0.75373   0.36865   0.00000  Uiso   1.00
C238   C     0.21512   0.81943   0.32211   0.00000  Uiso   1.00
C239   C     0.20753   0.95396   0.25762   0.00000  Uiso   1.00
C240   C     0.31982   0.55545   0.42638   0.00000  Uiso   1.00
C241   C     0.34921   0.56552   0.47902   0.00000  Uiso   1.00
C242   C     0.41821   0.54516   0.48296   0.00000  Uiso   1.00
C243   C     0.52815   0.52091   0.51156   0.00000  Uiso   1.00
C244   C     0.31557   0.51993   0.32596   0.00000  Uiso   1.00
C245   C     0.25824   0.44236   0.33850   0.00000  Uiso   1.00
C246   C     0.24333   0.35155   0.30801   0.00000  Uiso   1.00
C247   C     0.18882   0.29105   0.32626   0.00000  Uiso   1.00
C248   C     0.28230   0.62836   0.31938   0.00000  Uiso   1.00
C249   C     0.28762   0.69395   0.27283   0.00000  Uiso   1.00
C250   C     0.25337   0.79004   0.27498   0.00000  Uiso   1.00
C251   C     0.35800   0.52610   0.37934   0.00000  Uiso   1.00
C252   C     0.42697   0.50573   0.38320   0.00000  Uiso   1.00
C253   C     0.45646   0.51576   0.43583   0.00000  Uiso   1.00
H254   H     0.21556   0.59681   0.44919   0.00000  Uiso   1.00
H255   H     0.13603   0.43407   0.44024   0.00000  Uiso   1.00
H256   H     0.18032   0.77642   0.40506   0.00000  Uiso   1.00
H257   H     0.31965   0.58823   0.51541   0.00000  Uiso   1.00
H258   H     0.06467   0.24072   0.40955   0.00000  Uiso   1.00
H259   H     0.15809   0.96259   0.33539   0.00000  Uiso   1.00
H260   H     0.45188   0.56577   0.56809   0.00000  Uiso   1.00
H261   H     0.34530   0.49709   0.28933   0.00000  Uiso   1.00
H262   H     0.27288   0.32886   0.27161   0.00000  Uiso   1.00
H263   H     0.31718   0.67121   0.23644   0.00000  Uiso   1.00
H264   H     0.45650   0.48302   0.34679   0.00000  Uiso   1.00
H265   H     0.17575   0.15533   0.27269   0.00000  Uiso   1.00
H266   H     0.26917   0.87721   0.19853   0.00000  Uiso   1.00
H267   H     0.56296   0.48038   0.43123   0.00000  Uiso   1.00
O268   O     0.07022   0.08918   0.33234   0.00000  Uiso   1.00
O269   O     0.19279   0.03626   0.23505   0.00000  Uiso   1.00
O270   O     0.57824   0.51563   0.54034   0.00000  Uiso   1.00
N271   N     0.10076   0.24370   0.37978   0.00000  Uiso   1.00
N272   N     0.18809   0.91860   0.31044   0.00000  Uiso   1.00
N273   N     0.46277   0.54763   0.52799   0.00000  Uiso   1.00
N274   N     0.16053   0.19775   0.30614   0.00000  Uiso   1.00
N275   N     0.24786   0.87265   0.23680   0.00000  Uiso   1.00
N276   N     0.52254   0.50168   0.45435   0.00000  Uiso   1.00
C277   C     0.99425   0.56868   0.55122   0.00000  Uiso   1.00
C278   C     0.01912   0.46640   0.57844   0.00000  Uiso   1.00
C279   C     0.07338   0.40540   0.56022   0.00000  Uiso   1.00
C280   C     0.08808   0.31462   0.59085   0.00000  Uiso   1.00
C281   C     0.13253   0.16018   0.62596   0.00000  Uiso   1.00
C282   C     0.99577   0.65276   0.59719   0.00000  Uiso   1.00
C283   C     0.03039   0.74845   0.59474   0.00000  Uiso   1.00
C284   C     0.02542   0.81454   0.64114   0.00000  Uiso   1.00
C285   C     0.03359   0.94947   0.70535   0.00000  Uiso   1.00
C286   C     0.91963   0.55074   0.53751   0.00000  Uiso   1.00
C287   C     0.89021   0.56069   0.48487   0.00000  Uiso   1.00
C288   C     0.82113   0.54092   0.48103   0.00000  Uiso   1.00
C289   C     0.71107   0.51745   0.45257   0.00000  Uiso   1.00
C290   C     0.92387   0.51593   0.63800   0.00000  Uiso   1.00
C291   C     0.98089   0.43775   0.62557   0.00000  Uiso   1.00
C292   C     0.99551   0.34703   0.65623   0.00000  Uiso   1.00
C293   C     0.04978   0.28590   0.63806   0.00000  Uiso   1.00
C294   C     0.95755   0.62410   0.64432   0.00000  Uiso   1.00
C295   C     0.95252   0.69008   0.69074   0.00000  Uiso   1.00
C296   C     0.98712   0.78584   0.68836   0.00000  Uiso   1.00
C297   C     0.88140   0.52209   0.58464   0.00000  Uiso   1.00
C298   C     0.81235   0.50231   0.58088   0.00000  Uiso   1.00
C299   C     0.78283   0.51222   0.52825   0.00000  Uiso   1.00
H300   H     0.02401   0.59100   0.51453   0.00000  Uiso   1.00
H301   H     0.10295   0.42761   0.52375   0.00000  Uiso   1.00
H302   H     0.05996   0.77060   0.55826   0.00000  Uiso   1.00
H303   H     0.91981   0.58286   0.44841   0.00000  Uiso   1.00
H304   H     0.17363   0.23384   0.55477   0.00000  Uiso   1.00
H305   H     0.08297   0.95709   0.62752   0.00000  Uiso   1.00
H306   H     0.78743   0.56121   0.39588   0.00000  Uiso   1.00
H307   H     0.89410   0.49362   0.67469   0.00000  Uiso   1.00
H308   H     0.96592   0.32487   0.69270   0.00000  Uiso   1.00
H309   H     0.92293   0.66788   0.72721   0.00000  Uiso   1.00
H310   H     0.78278   0.48014   0.61736   0.00000  Uiso   1.00
H311   H     0.06241   0.15046   0.69190   0.00000  Uiso   1.00
H312   H     0.97174   0.87371   0.76465   0.00000  Uiso   1.00
H313   H     0.67621   0.47783   0.53301   0.00000  Uiso   1.00
O314   O     0.16762   0.08293   0.63231   0.00000  Uiso   1.00
O315   O     0.04866   0.03180   0.72774   0.00000  Uiso   1.00
O316   O     0.66092   0.51241   0.42384   0.00000  Uiso   1.00
N317   N     0.13759   0.23737   0.58457   0.00000  Uiso   1.00
N318   N     0.05283   0.91355   0.65258   0.00000  Uiso   1.00
N319   N     0.77653   0.54346   0.43603   0.00000  Uiso   1.00
N320   N     0.07774   0.19250   0.65835   0.00000  Uiso   1.00
N321   N     0.99299   0.86868   0.72637   0.00000  Uiso   1.00
N322   N     0.71668   0.49860   0.50982   0.00000  Uiso   1.00
C323   C     0.75472   0.42604   0.91257   0.00000  Uiso   1.00
C324   C     0.77994   0.52830   0.88554   0.00000  Uiso   1.00
C325   C     0.83444   0.58867   0.90383   0.00000  Uiso   1.00
C326   C     0.84943   0.67955   0.87338   0.00000  Uiso   1.00
C327   C     0.89441   0.83383   0.83856   0.00000  Uiso   1.00
C328   C     0.75588   0.34229   0.86642   0.00000  Uiso   1.00
C329   C     0.79014   0.24627   0.86865   0.00000  Uiso   1.00
C330   C     0.78488   0.18057   0.82211   0.00000  Uiso   1.00
C331   C     0.79247   0.04604   0.75762   0.00000  Uiso   1.00
C332   C     0.68018   0.44455   0.92638   0.00000  Uiso   1.00
C333   C     0.65079   0.43448   0.97902   0.00000  Uiso   1.00
C334   C     0.58179   0.45484   0.98296   0.00000  Uiso   1.00
C335   C     0.47185   0.47909   0.01156   0.00000  Uiso   1.00
C336   C     0.68443   0.48007   0.82596   0.00000  Uiso   1.00
C337   C     0.74176   0.55764   0.83850   0.00000  Uiso   1.00
C338   C     0.75667   0.64845   0.80801   0.00000  Uiso   1.00
C339   C     0.81118   0.70895   0.82626   0.00000  Uiso   1.00
C340   C     0.71770   0.37164   0.81938   0.00000  Uiso   1.00
C341   C     0.71238   0.30605   0.77283   0.00000  Uiso   1.00
C342   C     0.74663   0.20996   0.77498   0.00000  Uiso   1.00
C343   C     0.64200   0.47390   0.87934   0.00000  Uiso   1.00
C344   C     0.57303   0.49427   0.88320   0.00000  Uiso   1.00
C345   C     0.54354   0.48424   0.93583   0.00000  Uiso   1.00
H346   H     0.78444   0.40319   0.94919   0.00000  Uiso   1.00
H347   H     0.86397   0.56593   0.94024   0.00000  Uiso   1.00
H348   H     0.81968   0.22358   0.90506   0.00000  Uiso   1.00
H349   H     0.68035   0.41177   0.01541   0.00000  Uiso   1.00
H350   H     0.93533   0.75928   0.90955   0.00000  Uiso   1.00
H351   H     0.84191   0.03741   0.83539   0.00000  Uiso   1.00
H352   H     0.54812   0.43423   0.06809   0.00000  Uiso   1.00
H353   H     0.65470   0.50291   0.78933   0.00000  Uiso   1.00
H354   H     0.72712   0.67114   0.77161   0.00000  Uiso   1.00
H355   H     0.68282   0.32879   0.73644   0.00000  Uiso   1.00
H356   H     0.54350   0.51698   0.84679   0.00000  Uiso   1.00
H357   H     0.82425   0.84467   0.77269   0.00000  Uiso   1.00
H358   H     0.73083   0.12279   0.69853   0.00000  Uiso   1.00
H359   H     0.43704   0.51962   0.93123   0.00000  Uiso   1.00
O360   O     0.92978   0.91082   0.83234   0.00000  Uiso   1.00
O361   O     0.80721   0.96374   0.73505   0.00000  Uiso   1.00
O362   O     0.42176   0.48437   0.04034   0.00000  Uiso   1.00
N363   N     0.89924   0.75630   0.87978   0.00000  Uiso   1.00
N364   N     0.81191   0.08140   0.81044   0.00000  Uiso   1.00
N365   N     0.53723   0.45237   0.02799   0.00000  Uiso   1.00
N366   N     0.83947   0.80225   0.80614   0.00000  Uiso   1.00
N367   N     0.75214   0.12735   0.73680   0.00000  Uiso   1.00
N368   N     0.47746   0.49832   0.95435   0.00000  Uiso   1.00
