data_job_01826
_audit_creation_date              2018-12-19
_audit_creation_method            'Materials Studio'
_symmetry_space_group_name_H-M    'P1'
_symmetry_Int_Tables_number       1
_symmetry_cell_setting            triclinic
loop_
_symmetry_equiv_pos_as_xyz
  x,y,z
_cell_length_a                    10.8003
_cell_length_b                    18.3881
_cell_length_c                    31.2689
_cell_angle_alpha                 90.0000
_cell_angle_beta                  90.0000
_cell_angle_gamma                 90.0000
loop_
_atom_site_label
_atom_site_type_symbol
_atom_site_fract_x
_atom_site_fract_y
_atom_site_fract_z
_atom_site_U_iso_or_equiv
_atom_site_adp_type
_atom_site_occupancy
C1     C     0.32732   0.79612   0.39199   0.00000  Uiso   1.00
C2     C     0.22971   0.83280   0.36412   0.00000  Uiso   1.00
C3     C     0.19963   0.90616   0.36472   0.00000  Uiso   1.00
C4     C     0.10769   0.92907   0.33676   0.00000  Uiso   1.00
C5     C     0.96516   0.99343   0.29769   0.00000  Uiso   1.00
C6     C     0.26049   0.73535   0.41582   0.00000  Uiso   1.00
C7     C     0.25630   0.72677   0.45989   0.00000  Uiso   1.00
C8     C     0.19028   0.66763   0.47545   0.00000  Uiso   1.00
C9     C     0.09561   0.58066   0.51666   0.00000  Uiso   1.00
C10    C     0.41653   0.75869   0.36126   0.00000  Uiso   1.00
C11    C     0.54354   0.76973   0.35946   0.00000  Uiso   1.00
C12    C     0.60890   0.73023   0.32909   0.00000  Uiso   1.00
C13    C     0.75650   0.67951   0.28557   0.00000  Uiso   1.00
C14    C     0.21756   0.70633   0.34125   0.00000  Uiso   1.00
C15    C     0.17010   0.78403   0.33656   0.00000  Uiso   1.00
C16    C     0.07819   0.80682   0.30859   0.00000  Uiso   1.00
C17    C     0.04797   0.88021   0.30915   0.00000  Uiso   1.00
C18    C     0.20087   0.68658   0.38827   0.00000  Uiso   1.00
C19    C     0.13486   0.62743   0.40377   0.00000  Uiso   1.00
C20    C     0.13056   0.61877   0.44785   0.00000  Uiso   1.00
C21    C     0.35691   0.70992   0.33370   0.00000  Uiso   1.00
C22    C     0.42209   0.67039   0.30333   0.00000  Uiso   1.00
C23    C     0.54918   0.68137   0.30148   0.00000  Uiso   1.00
H24    H     0.37373   0.83409   0.41344   0.00000  Uiso   1.00
H25    H     0.24578   0.94389   0.38605   0.00000  Uiso   1.00
H26    H     0.30245   0.76452   0.48121   0.00000  Uiso   1.00
H27    H     0.58964   0.80747   0.38079   0.00000  Uiso   1.00
H28    H     0.07759   0.04411   0.34355   0.00000  Uiso   1.00
H29    H     0.19713   0.66588   0.54419   0.00000  Uiso   1.00
H30    H     0.80273   0.75646   0.33244   0.00000  Uiso   1.00
H31    H     0.17114   0.66836   0.31980   0.00000  Uiso   1.00
H32    H     0.03207   0.76907   0.28727   0.00000  Uiso   1.00
H33    H     0.08874   0.58970   0.38243   0.00000  Uiso   1.00
H34    H     0.37593   0.63265   0.28201   0.00000  Uiso   1.00
H35    H     0.90413   0.90222   0.26338   0.00000  Uiso   1.00
H36    H     0.02367   0.52399   0.46402   0.00000  Uiso   1.00
H37    H     0.62927   0.61457   0.25226   0.00000  Uiso   1.00
O38    O     0.90300   0.04240   0.28376   0.00000  Uiso   1.00
O39    O     0.05985   0.54617   0.54700   0.00000  Uiso   1.00
O40    O     0.85438   0.66501   0.26918   0.00000  Uiso   1.00
N41    N     0.05587   0.99690   0.32914   0.00000  Uiso   1.00
N42    N     0.16761   0.64328   0.51673   0.00000  Uiso   1.00
N43    N     0.73380   0.72795   0.31876   0.00000  Uiso   1.00
N44    N     0.96254   0.92055   0.28600   0.00000  Uiso   1.00
N45    N     0.07428   0.56693   0.47359   0.00000  Uiso   1.00
N46    N     0.64047   0.65160   0.27562   0.00000  Uiso   1.00
C47    C     0.17268   0.20388   0.39199   0.00000  Uiso   1.00
C48    C     0.27029   0.16720   0.36412   0.00000  Uiso   1.00
C49    C     0.30037   0.09384   0.36472   0.00000  Uiso   1.00
C50    C     0.39231   0.07093   0.33676   0.00000  Uiso   1.00
C51    C     0.53484   0.00657   0.29769   0.00000  Uiso   1.00
C52    C     0.23951   0.26465   0.41582   0.00000  Uiso   1.00
C53    C     0.24370   0.27323   0.45989   0.00000  Uiso   1.00
C54    C     0.30972   0.33237   0.47545   0.00000  Uiso   1.00
C55    C     0.40439   0.41934   0.51666   0.00000  Uiso   1.00
C56    C     0.08347   0.24131   0.36126   0.00000  Uiso   1.00
C57    C     0.95646   0.23027   0.35946   0.00000  Uiso   1.00
C58    C     0.89110   0.26977   0.32909   0.00000  Uiso   1.00
C59    C     0.74350   0.32049   0.28557   0.00000  Uiso   1.00
C60    C     0.28244   0.29367   0.34125   0.00000  Uiso   1.00
C61    C     0.32990   0.21597   0.33656   0.00000  Uiso   1.00
C62    C     0.42181   0.19318   0.30859   0.00000  Uiso   1.00
C63    C     0.45203   0.11979   0.30915   0.00000  Uiso   1.00
C64    C     0.29913   0.31342   0.38827   0.00000  Uiso   1.00
C65    C     0.36514   0.37257   0.40377   0.00000  Uiso   1.00
C66    C     0.36944   0.38123   0.44785   0.00000  Uiso   1.00
C67    C     0.14309   0.29008   0.33370   0.00000  Uiso   1.00
C68    C     0.07791   0.32961   0.30333   0.00000  Uiso   1.00
C69    C     0.95082   0.31863   0.30148   0.00000  Uiso   1.00
H70    H     0.12627   0.16591   0.41344   0.00000  Uiso   1.00
H71    H     0.25422   0.05611   0.38605   0.00000  Uiso   1.00
H72    H     0.19755   0.23548   0.48121   0.00000  Uiso   1.00
H73    H     0.91036   0.19253   0.38079   0.00000  Uiso   1.00
H74    H     0.42241   0.95589   0.34355   0.00000  Uiso   1.00
H75    H     0.30287   0.33412   0.54419   0.00000  Uiso   1.00
H76    H     0.69727   0.24354   0.33244   0.00000  Uiso   1.00
H77    H     0.32886   0.33164   0.31980   0.00000  Uiso   1.00
H78    H     0.46793   0.23093   0.28727   0.00000  Uiso   1.00
H79    H     0.41126   0.41030   0.38243   0.00000  Uiso   1.00
H80    H     0.12407   0.36735   0.28201   0.00000  Uiso   1.00
H81    H     0.59587   0.09778   0.26338   0.00000  Uiso   1.00
H82    H     0.47633   0.47601   0.46402   0.00000  Uiso   1.00
H83    H     0.87073   0.38543   0.25226   0.00000  Uiso   1.00
O84    O     0.59700   0.95760   0.28376   0.00000  Uiso   1.00
O85    O     0.44015   0.45383   0.54700   0.00000  Uiso   1.00
O86    O     0.64562   0.33499   0.26918   0.00000  Uiso   1.00
N87    N     0.44413   0.00310   0.32914   0.00000  Uiso   1.00
N88    N     0.33239   0.35672   0.51673   0.00000  Uiso   1.00
N89    N     0.76620   0.27205   0.31876   0.00000  Uiso   1.00
N90    N     0.53746   0.07945   0.28600   0.00000  Uiso   1.00
N91    N     0.42572   0.43307   0.47359   0.00000  Uiso   1.00
N92    N     0.85953   0.34840   0.27562   0.00000  Uiso   1.00
C93    C     0.17268   0.29612   0.10801   0.00000  Uiso   1.00
C94    C     0.27029   0.33280   0.13588   0.00000  Uiso   1.00
C95    C     0.30037   0.40616   0.13528   0.00000  Uiso   1.00
C96    C     0.39231   0.42907   0.16324   0.00000  Uiso   1.00
C97    C     0.53484   0.49343   0.20231   0.00000  Uiso   1.00
C98    C     0.23951   0.23535   0.08418   0.00000  Uiso   1.00
C99    C     0.24370   0.22677   0.04011   0.00000  Uiso   1.00
C100   C     0.30972   0.16763   0.02455   0.00000  Uiso   1.00
C101   C     0.40439   0.08066   0.98334   0.00000  Uiso   1.00
C102   C     0.08347   0.25869   0.13874   0.00000  Uiso   1.00
C103   C     0.95646   0.26973   0.14054   0.00000  Uiso   1.00
C104   C     0.89110   0.23023   0.17091   0.00000  Uiso   1.00
C105   C     0.74350   0.17951   0.21443   0.00000  Uiso   1.00
C106   C     0.28244   0.20633   0.15875   0.00000  Uiso   1.00
C107   C     0.32990   0.28403   0.16344   0.00000  Uiso   1.00
C108   C     0.42181   0.30682   0.19141   0.00000  Uiso   1.00
C109   C     0.45203   0.38021   0.19085   0.00000  Uiso   1.00
C110   C     0.29913   0.18658   0.11173   0.00000  Uiso   1.00
C111   C     0.36514   0.12743   0.09623   0.00000  Uiso   1.00
C112   C     0.36944   0.11877   0.05215   0.00000  Uiso   1.00
C113   C     0.14309   0.20992   0.16630   0.00000  Uiso   1.00
C114   C     0.07791   0.17039   0.19667   0.00000  Uiso   1.00
C115   C     0.95082   0.18137   0.19852   0.00000  Uiso   1.00
H116   H     0.12627   0.33409   0.08656   0.00000  Uiso   1.00
H117   H     0.25422   0.44389   0.11395   0.00000  Uiso   1.00
H118   H     0.19755   0.26452   0.01879   0.00000  Uiso   1.00
H119   H     0.91036   0.30747   0.11921   0.00000  Uiso   1.00
H120   H     0.42241   0.54411   0.15645   0.00000  Uiso   1.00
H121   H     0.30287   0.16588   0.95581   0.00000  Uiso   1.00
H122   H     0.69727   0.25646   0.16756   0.00000  Uiso   1.00
H123   H     0.32886   0.16836   0.18020   0.00000  Uiso   1.00
H124   H     0.46793   0.26907   0.21273   0.00000  Uiso   1.00
H125   H     0.41126   0.08970   0.11757   0.00000  Uiso   1.00
H126   H     0.12407   0.13265   0.21799   0.00000  Uiso   1.00
H127   H     0.59587   0.40222   0.23662   0.00000  Uiso   1.00
H128   H     0.47633   0.02399   0.03598   0.00000  Uiso   1.00
H129   H     0.87073   0.11457   0.24774   0.00000  Uiso   1.00
O130   O     0.59700   0.54240   0.21624   0.00000  Uiso   1.00
O131   O     0.44015   0.04617   0.95300   0.00000  Uiso   1.00
O132   O     0.64562   0.16501   0.23082   0.00000  Uiso   1.00
N133   N     0.44413   0.49690   0.17086   0.00000  Uiso   1.00
N134   N     0.33239   0.14328   0.98327   0.00000  Uiso   1.00
N135   N     0.76620   0.22795   0.18124   0.00000  Uiso   1.00
N136   N     0.53746   0.42055   0.21400   0.00000  Uiso   1.00
N137   N     0.42572   0.06693   0.02641   0.00000  Uiso   1.00
N138   N     0.85953   0.15160   0.22438   0.00000  Uiso   1.00
C139   C     0.32732   0.70388   0.10801   0.00000  Uiso   1.00
C140   C     0.22971   0.66720   0.13588   0.00000  Uiso   1.00
C141   C     0.19963   0.59384   0.13528   0.00000  Uiso   1.00
C142   C     0.10769   0.57093   0.16324   0.00000  Uiso   1.00
C143   C     0.96516   0.50657   0.20231   0.00000  Uiso   1.00
C144   C     0.26049   0.76465   0.08418   0.00000  Uiso   1.00
C145   C     0.25630   0.77323   0.04011   0.00000  Uiso   1.00
C146   C     0.19028   0.83237   0.02455   0.00000  Uiso   1.00
C147   C     0.09561   0.91934   0.98334   0.00000  Uiso   1.00
C148   C     0.41653   0.74131   0.13874   0.00000  Uiso   1.00
C149   C     0.54354   0.73027   0.14054   0.00000  Uiso   1.00
C150   C     0.60890   0.76977   0.17091   0.00000  Uiso   1.00
C151   C     0.75650   0.82049   0.21443   0.00000  Uiso   1.00
C152   C     0.21756   0.79367   0.15875   0.00000  Uiso   1.00
C153   C     0.17010   0.71597   0.16344   0.00000  Uiso   1.00
C154   C     0.07819   0.69318   0.19141   0.00000  Uiso   1.00
C155   C     0.04797   0.61979   0.19085   0.00000  Uiso   1.00
C156   C     0.20087   0.81342   0.11173   0.00000  Uiso   1.00
C157   C     0.13486   0.87257   0.09623   0.00000  Uiso   1.00
C158   C     0.13056   0.88123   0.05215   0.00000  Uiso   1.00
C159   C     0.35691   0.79008   0.16630   0.00000  Uiso   1.00
C160   C     0.42209   0.82961   0.19667   0.00000  Uiso   1.00
C161   C     0.54918   0.81863   0.19852   0.00000  Uiso   1.00
H162   H     0.37373   0.66591   0.08656   0.00000  Uiso   1.00
H163   H     0.24578   0.55611   0.11395   0.00000  Uiso   1.00
H164   H     0.30245   0.73548   0.01879   0.00000  Uiso   1.00
H165   H     0.58964   0.69253   0.11921   0.00000  Uiso   1.00
H166   H     0.07759   0.45589   0.15645   0.00000  Uiso   1.00
H167   H     0.19713   0.83412   0.95581   0.00000  Uiso   1.00
H168   H     0.80273   0.74354   0.16756   0.00000  Uiso   1.00
H169   H     0.17114   0.83164   0.18020   0.00000  Uiso   1.00
H170   H     0.03207   0.73093   0.21273   0.00000  Uiso   1.00
H171   H     0.08874   0.91030   0.11757   0.00000  Uiso   1.00
H172   H     0.37593   0.86735   0.21799   0.00000  Uiso   1.00
H173   H     0.90413   0.59778   0.23662   0.00000  Uiso   1.00
H174   H     0.02367   0.97601   0.03598   0.00000  Uiso   1.00
H175   H     0.62927   0.88543   0.24774   0.00000  Uiso   1.00
O176   O     0.90300   0.45760   0.21624   0.00000  Uiso   1.00
O177   O     0.05985   0.95383   0.95300   0.00000  Uiso   1.00
O178   O     0.85438   0.83499   0.23082   0.00000  Uiso   1.00
N179   N     0.05587   0.50310   0.17086   0.00000  Uiso   1.00
N180   N     0.16761   0.85672   0.98327   0.00000  Uiso   1.00
N181   N     0.73380   0.77205   0.18124   0.00000  Uiso   1.00
N182   N     0.96254   0.57945   0.21400   0.00000  Uiso   1.00
N183   N     0.07428   0.93307   0.02641   0.00000  Uiso   1.00
N184   N     0.64047   0.84840   0.22438   0.00000  Uiso   1.00
C185   C     0.67268   0.20388   0.60801   0.00000  Uiso   1.00
C186   C     0.77029   0.16720   0.63588   0.00000  Uiso   1.00
C187   C     0.80037   0.09384   0.63528   0.00000  Uiso   1.00
C188   C     0.89231   0.07093   0.66324   0.00000  Uiso   1.00
C189   C     0.03484   0.00657   0.70231   0.00000  Uiso   1.00
C190   C     0.73951   0.26465   0.58418   0.00000  Uiso   1.00
C191   C     0.74370   0.27323   0.54011   0.00000  Uiso   1.00
C192   C     0.80972   0.33237   0.52455   0.00000  Uiso   1.00
C193   C     0.90439   0.41934   0.48334   0.00000  Uiso   1.00
C194   C     0.58347   0.24131   0.63874   0.00000  Uiso   1.00
C195   C     0.45646   0.23027   0.64054   0.00000  Uiso   1.00
C196   C     0.39110   0.26977   0.67091   0.00000  Uiso   1.00
C197   C     0.24350   0.32049   0.71443   0.00000  Uiso   1.00
C198   C     0.78244   0.29367   0.65875   0.00000  Uiso   1.00
C199   C     0.82990   0.21597   0.66344   0.00000  Uiso   1.00
C200   C     0.92181   0.19318   0.69141   0.00000  Uiso   1.00
C201   C     0.95203   0.11979   0.69085   0.00000  Uiso   1.00
C202   C     0.79913   0.31342   0.61173   0.00000  Uiso   1.00
C203   C     0.86514   0.37257   0.59623   0.00000  Uiso   1.00
C204   C     0.86944   0.38123   0.55215   0.00000  Uiso   1.00
C205   C     0.64309   0.29008   0.66630   0.00000  Uiso   1.00
C206   C     0.57791   0.32961   0.69667   0.00000  Uiso   1.00
C207   C     0.45082   0.31863   0.69852   0.00000  Uiso   1.00
H208   H     0.62627   0.16591   0.58656   0.00000  Uiso   1.00
H209   H     0.75422   0.05611   0.61395   0.00000  Uiso   1.00
H210   H     0.69755   0.23548   0.51879   0.00000  Uiso   1.00
H211   H     0.41036   0.19253   0.61921   0.00000  Uiso   1.00
H212   H     0.92241   0.95589   0.65645   0.00000  Uiso   1.00
H213   H     0.80287   0.33412   0.45581   0.00000  Uiso   1.00
H214   H     0.19727   0.24354   0.66756   0.00000  Uiso   1.00
H215   H     0.82886   0.33164   0.68020   0.00000  Uiso   1.00
H216   H     0.96793   0.23093   0.71273   0.00000  Uiso   1.00
H217   H     0.91126   0.41030   0.61757   0.00000  Uiso   1.00
H218   H     0.62407   0.36735   0.71799   0.00000  Uiso   1.00
H219   H     0.09587   0.09778   0.73662   0.00000  Uiso   1.00
H220   H     0.97633   0.47601   0.53598   0.00000  Uiso   1.00
H221   H     0.37073   0.38543   0.74774   0.00000  Uiso   1.00
O222   O     0.09700   0.95760   0.71624   0.00000  Uiso   1.00
O223   O     0.94015   0.45383   0.45300   0.00000  Uiso   1.00
O224   O     0.14562   0.33499   0.73082   0.00000  Uiso   1.00
N225   N     0.94413   0.00310   0.67086   0.00000  Uiso   1.00
N226   N     0.83239   0.35672   0.48327   0.00000  Uiso   1.00
N227   N     0.26620   0.27205   0.68124   0.00000  Uiso   1.00
N228   N     0.03746   0.07945   0.71400   0.00000  Uiso   1.00
N229   N     0.92572   0.43307   0.52641   0.00000  Uiso   1.00
N230   N     0.35953   0.34840   0.72438   0.00000  Uiso   1.00
C231   C     0.82732   0.79612   0.60801   0.00000  Uiso   1.00
C232   C     0.72971   0.83280   0.63588   0.00000  Uiso   1.00
C233   C     0.69963   0.90616   0.63528   0.00000  Uiso   1.00
C234   C     0.60769   0.92907   0.66324   0.00000  Uiso   1.00
C235   C     0.46516   0.99343   0.70231   0.00000  Uiso   1.00
C236   C     0.76049   0.73535   0.58418   0.00000  Uiso   1.00
C237   C     0.75630   0.72677   0.54011   0.00000  Uiso   1.00
C238   C     0.69028   0.66763   0.52455   0.00000  Uiso   1.00
C239   C     0.59561   0.58066   0.48334   0.00000  Uiso   1.00
C240   C     0.91653   0.75869   0.63874   0.00000  Uiso   1.00
C241   C     0.04354   0.76973   0.64054   0.00000  Uiso   1.00
C242   C     0.10890   0.73023   0.67091   0.00000  Uiso   1.00
C243   C     0.25650   0.67951   0.71443   0.00000  Uiso   1.00
C244   C     0.71756   0.70633   0.65875   0.00000  Uiso   1.00
C245   C     0.67010   0.78403   0.66344   0.00000  Uiso   1.00
C246   C     0.57819   0.80682   0.69141   0.00000  Uiso   1.00
C247   C     0.54797   0.88021   0.69085   0.00000  Uiso   1.00
C248   C     0.70087   0.68658   0.61173   0.00000  Uiso   1.00
C249   C     0.63486   0.62743   0.59623   0.00000  Uiso   1.00
C250   C     0.63056   0.61877   0.55215   0.00000  Uiso   1.00
C251   C     0.85691   0.70992   0.66630   0.00000  Uiso   1.00
C252   C     0.92209   0.67039   0.69667   0.00000  Uiso   1.00
C253   C     0.04918   0.68137   0.69852   0.00000  Uiso   1.00
H254   H     0.87373   0.83409   0.58656   0.00000  Uiso   1.00
H255   H     0.74578   0.94389   0.61395   0.00000  Uiso   1.00
H256   H     0.80245   0.76452   0.51879   0.00000  Uiso   1.00
H257   H     0.08964   0.80747   0.61921   0.00000  Uiso   1.00
H258   H     0.57759   0.04411   0.65645   0.00000  Uiso   1.00
H259   H     0.69713   0.66588   0.45581   0.00000  Uiso   1.00
H260   H     0.30273   0.75646   0.66756   0.00000  Uiso   1.00
H261   H     0.67114   0.66836   0.68020   0.00000  Uiso   1.00
H262   H     0.53207   0.76907   0.71273   0.00000  Uiso   1.00
H263   H     0.58874   0.58970   0.61757   0.00000  Uiso   1.00
H264   H     0.87593   0.63265   0.71799   0.00000  Uiso   1.00
H265   H     0.40413   0.90222   0.73662   0.00000  Uiso   1.00
H266   H     0.52367   0.52399   0.53598   0.00000  Uiso   1.00
H267   H     0.12927   0.61457   0.74774   0.00000  Uiso   1.00
O268   O     0.40300   0.04240   0.71624   0.00000  Uiso   1.00
O269   O     0.55985   0.54617   0.45300   0.00000  Uiso   1.00
O270   O     0.35438   0.66501   0.73082   0.00000  Uiso   1.00
N271   N     0.55587   0.99690   0.67086   0.00000  Uiso   1.00
N272   N     0.66761   0.64328   0.48327   0.00000  Uiso   1.00
N273   N     0.23380   0.72795   0.68124   0.00000  Uiso   1.00
N274   N     0.46254   0.92055   0.71400   0.00000  Uiso   1.00
N275   N     0.57428   0.56693   0.52641   0.00000  Uiso   1.00
N276   N     0.14047   0.65160   0.72438   0.00000  Uiso   1.00
C277   C     0.82732   0.70388   0.89199   0.00000  Uiso   1.00
C278   C     0.72971   0.66720   0.86412   0.00000  Uiso   1.00
C279   C     0.69963   0.59384   0.86472   0.00000  Uiso   1.00
C280   C     0.60769   0.57093   0.83676   0.00000  Uiso   1.00
C281   C     0.46516   0.50657   0.79769   0.00000  Uiso   1.00
C282   C     0.76049   0.76465   0.91582   0.00000  Uiso   1.00
C283   C     0.75630   0.77323   0.95989   0.00000  Uiso   1.00
C284   C     0.69028   0.83237   0.97545   0.00000  Uiso   1.00
C285   C     0.59561   0.91934   0.01666   0.00000  Uiso   1.00
C286   C     0.91653   0.74131   0.86126   0.00000  Uiso   1.00
C287   C     0.04354   0.73027   0.85946   0.00000  Uiso   1.00
C288   C     0.10890   0.76977   0.82909   0.00000  Uiso   1.00
C289   C     0.25650   0.82049   0.78557   0.00000  Uiso   1.00
C290   C     0.71756   0.79367   0.84125   0.00000  Uiso   1.00
C291   C     0.67010   0.71597   0.83656   0.00000  Uiso   1.00
C292   C     0.57819   0.69318   0.80859   0.00000  Uiso   1.00
C293   C     0.54797   0.61979   0.80915   0.00000  Uiso   1.00
C294   C     0.70087   0.81342   0.88827   0.00000  Uiso   1.00
C295   C     0.63486   0.87257   0.90377   0.00000  Uiso   1.00
C296   C     0.63056   0.88123   0.94785   0.00000  Uiso   1.00
C297   C     0.85691   0.79008   0.83370   0.00000  Uiso   1.00
C298   C     0.92209   0.82961   0.80333   0.00000  Uiso   1.00
C299   C     0.04918   0.81863   0.80148   0.00000  Uiso   1.00
H300   H     0.87373   0.66591   0.91344   0.00000  Uiso   1.00
H301   H     0.74578   0.55611   0.88605   0.00000  Uiso   1.00
H302   H     0.80245   0.73548   0.98121   0.00000  Uiso   1.00
H303   H     0.08964   0.69253   0.88079   0.00000  Uiso   1.00
H304   H     0.57759   0.45589   0.84355   0.00000  Uiso   1.00
H305   H     0.69713   0.83412   0.04419   0.00000  Uiso   1.00
H306   H     0.30273   0.74354   0.83244   0.00000  Uiso   1.00
H307   H     0.67114   0.83164   0.81980   0.00000  Uiso   1.00
H308   H     0.53207   0.73093   0.78727   0.00000  Uiso   1.00
H309   H     0.58874   0.91030   0.88243   0.00000  Uiso   1.00
H310   H     0.87593   0.86735   0.78201   0.00000  Uiso   1.00
H311   H     0.40413   0.59778   0.76338   0.00000  Uiso   1.00
H312   H     0.52367   0.97601   0.96402   0.00000  Uiso   1.00
H313   H     0.12927   0.88543   0.75226   0.00000  Uiso   1.00
O314   O     0.40300   0.45760   0.78376   0.00000  Uiso   1.00
O315   O     0.55985   0.95383   0.04700   0.00000  Uiso   1.00
O316   O     0.35438   0.83499   0.76918   0.00000  Uiso   1.00
N317   N     0.55587   0.50310   0.82914   0.00000  Uiso   1.00
N318   N     0.66761   0.85672   0.01673   0.00000  Uiso   1.00
N319   N     0.23380   0.77205   0.81876   0.00000  Uiso   1.00
N320   N     0.46254   0.57945   0.78600   0.00000  Uiso   1.00
N321   N     0.57428   0.93307   0.97359   0.00000  Uiso   1.00
N322   N     0.14047   0.84840   0.77562   0.00000  Uiso   1.00
C323   C     0.67268   0.29612   0.89199   0.00000  Uiso   1.00
C324   C     0.77029   0.33280   0.86412   0.00000  Uiso   1.00
C325   C     0.80037   0.40616   0.86472   0.00000  Uiso   1.00
C326   C     0.89231   0.42907   0.83676   0.00000  Uiso   1.00
C327   C     0.03484   0.49343   0.79769   0.00000  Uiso   1.00
C328   C     0.73951   0.23535   0.91582   0.00000  Uiso   1.00
C329   C     0.74370   0.22677   0.95989   0.00000  Uiso   1.00
C330   C     0.80972   0.16763   0.97545   0.00000  Uiso   1.00
C331   C     0.90439   0.08066   0.01666   0.00000  Uiso   1.00
C332   C     0.58347   0.25869   0.86126   0.00000  Uiso   1.00
C333   C     0.45646   0.26973   0.85946   0.00000  Uiso   1.00
C334   C     0.39110   0.23023   0.82909   0.00000  Uiso   1.00
C335   C     0.24350   0.17951   0.78557   0.00000  Uiso   1.00
C336   C     0.78244   0.20633   0.84125   0.00000  Uiso   1.00
C337   C     0.82990   0.28403   0.83656   0.00000  Uiso   1.00
C338   C     0.92181   0.30682   0.80859   0.00000  Uiso   1.00
C339   C     0.95203   0.38021   0.80915   0.00000  Uiso   1.00
C340   C     0.79913   0.18658   0.88827   0.00000  Uiso   1.00
C341   C     0.86514   0.12743   0.90377   0.00000  Uiso   1.00
C342   C     0.86944   0.11877   0.94785   0.00000  Uiso   1.00
C343   C     0.64309   0.20992   0.83370   0.00000  Uiso   1.00
C344   C     0.57791   0.17039   0.80333   0.00000  Uiso   1.00
C345   C     0.45082   0.18137   0.80148   0.00000  Uiso   1.00
H346   H     0.62627   0.33409   0.91344   0.00000  Uiso   1.00
H347   H     0.75422   0.44389   0.88605   0.00000  Uiso   1.00
H348   H     0.69755   0.26452   0.98121   0.00000  Uiso   1.00
H349   H     0.41036   0.30747   0.88079   0.00000  Uiso   1.00
H350   H     0.92241   0.54411   0.84355   0.00000  Uiso   1.00
H351   H     0.80287   0.16588   0.04419   0.00000  Uiso   1.00
H352   H     0.19727   0.25646   0.83244   0.00000  Uiso   1.00
H353   H     0.82886   0.16836   0.81980   0.00000  Uiso   1.00
H354   H     0.96793   0.26907   0.78727   0.00000  Uiso   1.00
H355   H     0.91126   0.08970   0.88243   0.00000  Uiso   1.00
H356   H     0.62407   0.13265   0.78201   0.00000  Uiso   1.00
H357   H     0.09587   0.40222   0.76338   0.00000  Uiso   1.00
H358   H     0.97633   0.02399   0.96402   0.00000  Uiso   1.00
H359   H     0.37073   0.11457   0.75226   0.00000  Uiso   1.00
O360   O     0.09700   0.54240   0.78376   0.00000  Uiso   1.00
O361   O     0.94015   0.04617   0.04700   0.00000  Uiso   1.00
O362   O     0.14562   0.16501   0.76918   0.00000  Uiso   1.00
N363   N     0.94413   0.49690   0.82914   0.00000  Uiso   1.00
N364   N     0.83239   0.14328   0.01673   0.00000  Uiso   1.00
N365   N     0.26620   0.22795   0.81876   0.00000  Uiso   1.00
N366   N     0.03746   0.42055   0.78600   0.00000  Uiso   1.00
N367   N     0.92572   0.06693   0.97359   0.00000  Uiso   1.00
N368   N     0.35953   0.15160   0.77562   0.00000  Uiso   1.00
