data_job_05679
_audit_creation_date              2018-12-19
_audit_creation_method            'Materials Studio'
_symmetry_space_group_name_H-M    'P1'
_symmetry_Int_Tables_number       1
_symmetry_cell_setting            triclinic
loop_
_symmetry_equiv_pos_as_xyz
  x,y,z
_cell_length_a                    12.1010
_cell_length_b                    23.8761
_cell_length_c                    29.8710
_cell_angle_alpha                 90.0000
_cell_angle_beta                  113.8983
_cell_angle_gamma                 90.0000
loop_
_atom_site_label
_atom_site_type_symbol
_atom_site_fract_x
_atom_site_fract_y
_atom_site_fract_z
_atom_site_U_iso_or_equiv
_atom_site_adp_type
_atom_site_occupancy
C1     C     0.89838   0.47258   0.39308   0.00000  Uiso   1.00
C2     C     0.02013   0.48591   0.39164   0.00000  Uiso   1.00
C3     C     0.13229   0.47911   0.43012   0.00000  Uiso   1.00
C4     C     0.23295   0.49373   0.42146   0.00000  Uiso   1.00
C5     C     0.42370   0.51132   0.42615   0.00000  Uiso   1.00
C6     C     0.82485   0.52653   0.37875   0.00000  Uiso   1.00
C7     C     0.77282   0.55387   0.40640   0.00000  Uiso   1.00
C8     C     0.70908   0.60267   0.38689   0.00000  Uiso   1.00
C9     C     0.59659   0.68328   0.37155   0.00000  Uiso   1.00
C10    C     0.83598   0.43137   0.35143   0.00000  Uiso   1.00
C11    C     0.79326   0.37871   0.35610   0.00000  Uiso   1.00
C12    C     0.73886   0.34739   0.31359   0.00000  Uiso   1.00
C13    C     0.64364   0.28026   0.25583   0.00000  Uiso   1.00
C14    C     0.87769   0.51062   0.30927   0.00000  Uiso   1.00
C15    C     0.00888   0.50658   0.34611   0.00000  Uiso   1.00
C16    C     0.10940   0.52120   0.33739   0.00000  Uiso   1.00
C17    C     0.22170   0.51442   0.37586   0.00000  Uiso   1.00
C18    C     0.81361   0.54719   0.33323   0.00000  Uiso   1.00
C19    C     0.74993   0.59595   0.31367   0.00000  Uiso   1.00
C20    C     0.69782   0.62336   0.34128   0.00000  Uiso   1.00
C21    C     0.82474   0.45203   0.30590   0.00000  Uiso   1.00
C22    C     0.77038   0.42079   0.26337   0.00000  Uiso   1.00
C23    C     0.72760   0.36809   0.26798   0.00000  Uiso   1.00
H24    H     0.90712   0.45650   0.42853   0.00000  Uiso   1.00
H25    H     0.14095   0.46313   0.46535   0.00000  Uiso   1.00
H26    H     0.78152   0.53787   0.44163   0.00000  Uiso   1.00
H27    H     0.80197   0.36273   0.39134   0.00000  Uiso   1.00
H28    H     0.39523   0.47961   0.48610   0.00000  Uiso   1.00
H29    H     0.63732   0.63719   0.43608   0.00000  Uiso   1.00
H30    H     0.68045   0.26789   0.33003   0.00000  Uiso   1.00
H31    H     0.86893   0.52670   0.27383   0.00000  Uiso   1.00
H32    H     0.10068   0.53719   0.30216   0.00000  Uiso   1.00
H33    H     0.74124   0.61193   0.27844   0.00000  Uiso   1.00
H34    H     0.76170   0.43679   0.22815   0.00000  Uiso   1.00
H35    H     0.36255   0.53973   0.35365   0.00000  Uiso   1.00
H36    H     0.60463   0.69730   0.30363   0.00000  Uiso   1.00
H37    H     0.64776   0.32800   0.19758   0.00000  Uiso   1.00
O38    O     0.53202   0.51532   0.44131   0.00000  Uiso   1.00
O39    O     0.53765   0.72205   0.37568   0.00000  Uiso   1.00
O40    O     0.59424   0.23753   0.23655   0.00000  Uiso   1.00
N41    N     0.35574   0.49231   0.45104   0.00000  Uiso   1.00
N42    N     0.64715   0.63964   0.40427   0.00000  Uiso   1.00
N43    N     0.68744   0.29438   0.30513   0.00000  Uiso   1.00
N44    N     0.33815   0.52466   0.37977   0.00000  Uiso   1.00
N45    N     0.62956   0.67199   0.33300   0.00000  Uiso   1.00
N46    N     0.66985   0.32672   0.23386   0.00000  Uiso   1.00
C47    C     0.60378   0.02564   0.60486   0.00000  Uiso   1.00
C48    C     0.72265   0.00698   0.60326   0.00000  Uiso   1.00
C49    C     0.75192   0.01065   0.56298   0.00000  Uiso   1.00
C50    C     0.86522   0.99130   0.56892   0.00000  Uiso   1.00
C51    C     0.03744   0.96568   0.55964   0.00000  Uiso   1.00
C52    C     0.55347   0.97443   0.62076   0.00000  Uiso   1.00
C53    C     0.44049   0.95074   0.59520   0.00000  Uiso   1.00
C54    C     0.41139   0.90399   0.61589   0.00000  Uiso   1.00
C55    C     0.32092   0.82786   0.63379   0.00000  Uiso   1.00
C56    C     0.63746   0.06748   0.64688   0.00000  Uiso   1.00
C57    C     0.59507   0.12202   0.64329   0.00000  Uiso   1.00
C58    C     0.63665   0.15362   0.68597   0.00000  Uiso   1.00
C59    C     0.67658   0.22197   0.74443   0.00000  Uiso   1.00
C60    C     0.75296   0.98475   0.68704   0.00000  Uiso   1.00
C61    C     0.80367   0.98477   0.64790   0.00000  Uiso   1.00
C62    C     0.91697   0.96541   0.65391   0.00000  Uiso   1.00
C63    C     0.94640   0.96905   0.61364   0.00000  Uiso   1.00
C64    C     0.63449   0.95222   0.66540   0.00000  Uiso   1.00
C65    C     0.60554   0.90550   0.68613   0.00000  Uiso   1.00
C66    C     0.49256   0.88174   0.66060   0.00000  Uiso   1.00
C67    C     0.71849   0.04527   0.69152   0.00000  Uiso   1.00
C68    C     0.76013   0.07679   0.73421   0.00000  Uiso   1.00
C69    C     0.71782   0.13137   0.73069   0.00000  Uiso   1.00
H70    H     0.54069   0.04292   0.57011   0.00000  Uiso   1.00
H71    H     0.68918   0.02783   0.52844   0.00000  Uiso   1.00
H72    H     0.37781   0.96793   0.56066   0.00000  Uiso   1.00
H73    H     0.53237   0.13919   0.60874   0.00000  Uiso   1.00
H74    H     0.88952   0.00129   0.50192   0.00000  Uiso   1.00
H75    H     0.23296   0.87500   0.56987   0.00000  Uiso   1.00
H76    H     0.55887   0.23614   0.67125   0.00000  Uiso   1.00
H77    H     0.81604   0.96746   0.72180   0.00000  Uiso   1.00
H78    H     0.97965   0.94823   0.68845   0.00000  Uiso   1.00
H79    H     0.66827   0.88833   0.72067   0.00000  Uiso   1.00
H80    H     0.82283   0.05959   0.76875   0.00000  Uiso   1.00
H81    H     0.12527   0.93668   0.63180   0.00000  Uiso   1.00
H82    H     0.46870   0.81039   0.69974   0.00000  Uiso   1.00
H83    H     0.79463   0.17153   0.80113   0.00000  Uiso   1.00
O84    O     0.11004   0.95768   0.54218   0.00000  Uiso   1.00
O85    O     0.24864   0.79200   0.63133   0.00000  Uiso   1.00
O86    O     0.67624   0.26580   0.76434   0.00000  Uiso   1.00
N87    N     0.92256   0.98873   0.53707   0.00000  Uiso   1.00
N88    N     0.30872   0.87066   0.60059   0.00000  Uiso   1.00
N89    N     0.61340   0.20828   0.69538   0.00000  Uiso   1.00
N90    N     0.04942   0.95396   0.60695   0.00000  Uiso   1.00
N91    N     0.43558   0.83589   0.67047   0.00000  Uiso   1.00
N92    N     0.74026   0.17352   0.76526   0.00000  Uiso   1.00
C93    C     0.38186   0.02722   0.89360   0.00000  Uiso   1.00
C94    C     0.25710   0.01384   0.89202   0.00000  Uiso   1.00
C95    C     0.22186   0.02025   0.93052   0.00000  Uiso   1.00
C96    C     0.10378   0.00567   0.92173   0.00000  Uiso   1.00
C97    C     0.92224   0.98795   0.92623   0.00000  Uiso   1.00
C98    C     0.42648   0.97343   0.87890   0.00000  Uiso   1.00
C99    C     0.53365   0.94587   0.90639   0.00000  Uiso   1.00
C100   C     0.55815   0.89728   0.88655   0.00000  Uiso   1.00
C101   C     0.63961   0.81685   0.87067   0.00000  Uiso   1.00
C102   C     0.36124   0.06882   0.85224   0.00000  Uiso   1.00
C103   C     0.41358   0.12146   0.85730   0.00000  Uiso   1.00
C104   C     0.38319   0.15317   0.81501   0.00000  Uiso   1.00
C105   C     0.36336   0.22085   0.75774   0.00000  Uiso   1.00
C106   C     0.23484   0.98993   0.80950   0.00000  Uiso   1.00
C107   C     0.17725   0.99359   0.84634   0.00000  Uiso   1.00
C108   C     0.05919   0.97899   0.83748   0.00000  Uiso   1.00
C109   C     0.02378   0.98538   0.87596   0.00000  Uiso   1.00
C110   C     0.34663   0.95318   0.83323   0.00000  Uiso   1.00
C111   C     0.37098   0.90461   0.81334   0.00000  Uiso   1.00
C112   C     0.47815   0.87698   0.84078   0.00000  Uiso   1.00
C113   C     0.28138   0.04857   0.80656   0.00000  Uiso   1.00
C114   C     0.25091   0.08020   0.76426   0.00000  Uiso   1.00
C115   C     0.30319   0.13288   0.76925   0.00000  Uiso   1.00
H116   H     0.44403   0.04299   0.92916   0.00000  Uiso   1.00
H117   H     0.28369   0.03592   0.96587   0.00000  Uiso   1.00
H118   H     0.59543   0.96156   0.94173   0.00000  Uiso   1.00
H119   H     0.47538   0.13712   0.89266   0.00000  Uiso   1.00
H120   H     0.07071   0.01914   0.98643   0.00000  Uiso   1.00
H121   H     0.72806   0.86235   0.93553   0.00000  Uiso   1.00
H122   H     0.47491   0.23256   0.83204   0.00000  Uiso   1.00
H123   H     0.17266   0.97416   0.77393   0.00000  Uiso   1.00
H124   H     0.99742   0.96332   0.80212   0.00000  Uiso   1.00
H125   H     0.30917   0.88895   0.77799   0.00000  Uiso   1.00
H126   H     0.18912   0.06451   0.72891   0.00000  Uiso   1.00
H127   H     0.83837   0.96021   0.85353   0.00000  Uiso   1.00
H128   H     0.49572   0.80342   0.80262   0.00000  Uiso   1.00
H129   H     0.24257   0.17363   0.69914   0.00000  Uiso   1.00
O130   O     0.84417   0.98377   0.94133   0.00000  Uiso   1.00
O131   O     0.70659   0.77808   0.87454   0.00000  Uiso   1.00
O132   O     0.37446   0.26378   0.73877   0.00000  Uiso   1.00
N133   N     0.04007   0.00677   0.95128   0.00000  Uiso   1.00
N134   N     0.65464   0.86018   0.90369   0.00000  Uiso   1.00
N135   N     0.41800   0.20628   0.80694   0.00000  Uiso   1.00
N136   N     0.91505   0.97506   0.87977   0.00000  Uiso   1.00
N137   N     0.52962   0.82847   0.83218   0.00000  Uiso   1.00
N138   N     0.29297   0.17457   0.73543   0.00000  Uiso   1.00
C139   C     0.09901   0.47456   0.10434   0.00000  Uiso   1.00
C140   C     0.97711   0.49328   0.10289   0.00000  Uiso   1.00
C141   C     0.86724   0.49001   0.06260   0.00000  Uiso   1.00
C142   C     0.76601   0.50934   0.06869   0.00000  Uiso   1.00
C143   C     0.57546   0.53510   0.05962   0.00000  Uiso   1.00
C144   C     0.18155   0.52560   0.12059   0.00000  Uiso   1.00
C145   C     0.24358   0.54950   0.09519   0.00000  Uiso   1.00
C146   C     0.31446   0.59603   0.11619   0.00000  Uiso   1.00
C147   C     0.44137   0.67195   0.13462   0.00000  Uiso   1.00
C148   C     0.14905   0.43233   0.14606   0.00000  Uiso   1.00
C149   C     0.18379   0.37781   0.14208   0.00000  Uiso   1.00
C150   C     0.22733   0.34582   0.18453   0.00000  Uiso   1.00
C151   C     0.30379   0.27692   0.24250   0.00000  Uiso   1.00
C152   C     0.11462   0.51471   0.18682   0.00000  Uiso   1.00
C153   C     0.98560   0.51509   0.14769   0.00000  Uiso   1.00
C154   C     0.88450   0.53442   0.15385   0.00000  Uiso   1.00
C155   C     0.77450   0.53118   0.11358   0.00000  Uiso   1.00
C156   C     0.19003   0.54741   0.16539   0.00000  Uiso   1.00
C157   C     0.26084   0.59391   0.18644   0.00000  Uiso   1.00
C158   C     0.32295   0.61788   0.16107   0.00000  Uiso   1.00
C159   C     0.15753   0.45414   0.19086   0.00000  Uiso   1.00
C160   C     0.20104   0.42223   0.23333   0.00000  Uiso   1.00
C161   C     0.23583   0.36766   0.22941   0.00000  Uiso   1.00
H162   H     0.09241   0.45759   0.06946   0.00000  Uiso   1.00
H163   H     0.86072   0.47313   0.02793   0.00000  Uiso   1.00
H164   H     0.23701   0.53261   0.06052   0.00000  Uiso   1.00
H165   H     0.17721   0.36095   0.10740   0.00000  Uiso   1.00
H166   H     0.60758   0.50000   0.00164   0.00000  Uiso   1.00
H167   H     0.40104   0.62540   0.07036   0.00000  Uiso   1.00
H168   H     0.27497   0.26341   0.16922   0.00000  Uiso   1.00
H169   H     0.12122   0.53169   0.22170   0.00000  Uiso   1.00
H170   H     0.89109   0.55130   0.18852   0.00000  Uiso   1.00
H171   H     0.26739   0.61078   0.22111   0.00000  Uiso   1.00
H172   H     0.20759   0.43911   0.26799   0.00000  Uiso   1.00
H173   H     0.63224   0.56344   0.13198   0.00000  Uiso   1.00
H174   H     0.42571   0.68884   0.20071   0.00000  Uiso   1.00
H175   H     0.29962   0.32686   0.29956   0.00000  Uiso   1.00
O176   O     0.46801   0.54330   0.04223   0.00000  Uiso   1.00
O177   O     0.50902   0.70781   0.13240   0.00000  Uiso   1.00
O178   O     0.34360   0.23290   0.26210   0.00000  Uiso   1.00
N179   N     0.64496   0.51223   0.03687   0.00000  Uiso   1.00
N180   N     0.38679   0.62948   0.10112   0.00000  Uiso   1.00
N181   N     0.26894   0.29106   0.19355   0.00000  Uiso   1.00
N182   N     0.65823   0.54637   0.10701   0.00000  Uiso   1.00
N183   N     0.40005   0.66361   0.17126   0.00000  Uiso   1.00
N184   N     0.28221   0.32519   0.26368   0.00000  Uiso   1.00
C185   C     0.89838   0.52742   0.89308   0.00000  Uiso   1.00
C186   C     0.02013   0.51409   0.89164   0.00000  Uiso   1.00
C187   C     0.13229   0.52089   0.93012   0.00000  Uiso   1.00
C188   C     0.23295   0.50627   0.92146   0.00000  Uiso   1.00
C189   C     0.42370   0.48868   0.92615   0.00000  Uiso   1.00
C190   C     0.82485   0.47347   0.87875   0.00000  Uiso   1.00
C191   C     0.77282   0.44613   0.90640   0.00000  Uiso   1.00
C192   C     0.70908   0.39733   0.88689   0.00000  Uiso   1.00
C193   C     0.59659   0.31672   0.87155   0.00000  Uiso   1.00
C194   C     0.83598   0.56863   0.85143   0.00000  Uiso   1.00
C195   C     0.79326   0.62129   0.85610   0.00000  Uiso   1.00
C196   C     0.73886   0.65261   0.81359   0.00000  Uiso   1.00
C197   C     0.64364   0.71974   0.75583   0.00000  Uiso   1.00
C198   C     0.87769   0.48938   0.80927   0.00000  Uiso   1.00
C199   C     0.00888   0.49342   0.84611   0.00000  Uiso   1.00
C200   C     0.10940   0.47880   0.83739   0.00000  Uiso   1.00
C201   C     0.22170   0.48558   0.87586   0.00000  Uiso   1.00
C202   C     0.81361   0.45281   0.83323   0.00000  Uiso   1.00
C203   C     0.74993   0.40405   0.81367   0.00000  Uiso   1.00
C204   C     0.69782   0.37664   0.84128   0.00000  Uiso   1.00
C205   C     0.82474   0.54797   0.80590   0.00000  Uiso   1.00
C206   C     0.77038   0.57921   0.76337   0.00000  Uiso   1.00
C207   C     0.72760   0.63191   0.76798   0.00000  Uiso   1.00
H208   H     0.90712   0.54350   0.92853   0.00000  Uiso   1.00
H209   H     0.14095   0.53687   0.96535   0.00000  Uiso   1.00
H210   H     0.78152   0.46213   0.94163   0.00000  Uiso   1.00
H211   H     0.80197   0.63727   0.89134   0.00000  Uiso   1.00
H212   H     0.39523   0.52039   0.98610   0.00000  Uiso   1.00
H213   H     0.63732   0.36281   0.93608   0.00000  Uiso   1.00
H214   H     0.68045   0.73211   0.83003   0.00000  Uiso   1.00
H215   H     0.86893   0.47330   0.77383   0.00000  Uiso   1.00
H216   H     0.10068   0.46281   0.80216   0.00000  Uiso   1.00
H217   H     0.74124   0.38807   0.77844   0.00000  Uiso   1.00
H218   H     0.76170   0.56321   0.72815   0.00000  Uiso   1.00
H219   H     0.36255   0.46027   0.85365   0.00000  Uiso   1.00
H220   H     0.60463   0.30270   0.80363   0.00000  Uiso   1.00
H221   H     0.64776   0.67200   0.69758   0.00000  Uiso   1.00
O222   O     0.53202   0.48468   0.94131   0.00000  Uiso   1.00
O223   O     0.53765   0.27795   0.87568   0.00000  Uiso   1.00
O224   O     0.59424   0.76247   0.73655   0.00000  Uiso   1.00
N225   N     0.35574   0.50769   0.95104   0.00000  Uiso   1.00
N226   N     0.64715   0.36036   0.90427   0.00000  Uiso   1.00
N227   N     0.68744   0.70562   0.80513   0.00000  Uiso   1.00
N228   N     0.33815   0.47534   0.87977   0.00000  Uiso   1.00
N229   N     0.62956   0.32801   0.83300   0.00000  Uiso   1.00
N230   N     0.66985   0.67328   0.73386   0.00000  Uiso   1.00
C231   C     0.60378   0.97436   0.10486   0.00000  Uiso   1.00
C232   C     0.72265   0.99302   0.10326   0.00000  Uiso   1.00
C233   C     0.75192   0.98935   0.06298   0.00000  Uiso   1.00
C234   C     0.86522   0.00870   0.06892   0.00000  Uiso   1.00
C235   C     0.03744   0.03432   0.05964   0.00000  Uiso   1.00
C236   C     0.55347   0.02557   0.12076   0.00000  Uiso   1.00
C237   C     0.44049   0.04926   0.09520   0.00000  Uiso   1.00
C238   C     0.41139   0.09601   0.11589   0.00000  Uiso   1.00
C239   C     0.32092   0.17214   0.13379   0.00000  Uiso   1.00
C240   C     0.63746   0.93252   0.14688   0.00000  Uiso   1.00
C241   C     0.59507   0.87798   0.14329   0.00000  Uiso   1.00
C242   C     0.63665   0.84638   0.18597   0.00000  Uiso   1.00
C243   C     0.67658   0.77803   0.24443   0.00000  Uiso   1.00
C244   C     0.75296   0.01525   0.18704   0.00000  Uiso   1.00
C245   C     0.80367   0.01523   0.14790   0.00000  Uiso   1.00
C246   C     0.91697   0.03459   0.15391   0.00000  Uiso   1.00
C247   C     0.94640   0.03095   0.11364   0.00000  Uiso   1.00
C248   C     0.63449   0.04778   0.16540   0.00000  Uiso   1.00
C249   C     0.60554   0.09450   0.18613   0.00000  Uiso   1.00
C250   C     0.49256   0.11826   0.16060   0.00000  Uiso   1.00
C251   C     0.71849   0.95473   0.19152   0.00000  Uiso   1.00
C252   C     0.76013   0.92321   0.23421   0.00000  Uiso   1.00
C253   C     0.71782   0.86863   0.23069   0.00000  Uiso   1.00
H254   H     0.54069   0.95708   0.07011   0.00000  Uiso   1.00
H255   H     0.68918   0.97217   0.02844   0.00000  Uiso   1.00
H256   H     0.37781   0.03207   0.06066   0.00000  Uiso   1.00
H257   H     0.53237   0.86081   0.10874   0.00000  Uiso   1.00
H258   H     0.88952   0.99871   0.00192   0.00000  Uiso   1.00
H259   H     0.23296   0.12500   0.06987   0.00000  Uiso   1.00
H260   H     0.55887   0.76386   0.17125   0.00000  Uiso   1.00
H261   H     0.81604   0.03254   0.22180   0.00000  Uiso   1.00
H262   H     0.97965   0.05177   0.18845   0.00000  Uiso   1.00
H263   H     0.66827   0.11167   0.22067   0.00000  Uiso   1.00
H264   H     0.82283   0.94041   0.26875   0.00000  Uiso   1.00
H265   H     0.12527   0.06332   0.13180   0.00000  Uiso   1.00
H266   H     0.46870   0.18961   0.19974   0.00000  Uiso   1.00
H267   H     0.79463   0.82847   0.30113   0.00000  Uiso   1.00
O268   O     0.11004   0.04232   0.04218   0.00000  Uiso   1.00
O269   O     0.24864   0.20800   0.13133   0.00000  Uiso   1.00
O270   O     0.67624   0.73420   0.26434   0.00000  Uiso   1.00
N271   N     0.92256   0.01127   0.03707   0.00000  Uiso   1.00
N272   N     0.30872   0.12934   0.10059   0.00000  Uiso   1.00
N273   N     0.61340   0.79172   0.19538   0.00000  Uiso   1.00
N274   N     0.04942   0.04604   0.10695   0.00000  Uiso   1.00
N275   N     0.43558   0.16411   0.17047   0.00000  Uiso   1.00
N276   N     0.74026   0.82648   0.26526   0.00000  Uiso   1.00
C277   C     0.38186   0.97278   0.39360   0.00000  Uiso   1.00
C278   C     0.25710   0.98616   0.39202   0.00000  Uiso   1.00
C279   C     0.22186   0.97975   0.43052   0.00000  Uiso   1.00
C280   C     0.10378   0.99433   0.42173   0.00000  Uiso   1.00
C281   C     0.92224   0.01205   0.42623   0.00000  Uiso   1.00
C282   C     0.42648   0.02657   0.37890   0.00000  Uiso   1.00
C283   C     0.53365   0.05413   0.40639   0.00000  Uiso   1.00
C284   C     0.55815   0.10272   0.38655   0.00000  Uiso   1.00
C285   C     0.63961   0.18315   0.37067   0.00000  Uiso   1.00
C286   C     0.36124   0.93118   0.35224   0.00000  Uiso   1.00
C287   C     0.41358   0.87854   0.35730   0.00000  Uiso   1.00
C288   C     0.38319   0.84683   0.31501   0.00000  Uiso   1.00
C289   C     0.36336   0.77915   0.25774   0.00000  Uiso   1.00
C290   C     0.23484   0.01007   0.30950   0.00000  Uiso   1.00
C291   C     0.17725   0.00641   0.34634   0.00000  Uiso   1.00
C292   C     0.05919   0.02101   0.33748   0.00000  Uiso   1.00
C293   C     0.02378   0.01462   0.37596   0.00000  Uiso   1.00
C294   C     0.34663   0.04682   0.33323   0.00000  Uiso   1.00
C295   C     0.37098   0.09539   0.31334   0.00000  Uiso   1.00
C296   C     0.47815   0.12302   0.34078   0.00000  Uiso   1.00
C297   C     0.28138   0.95143   0.30656   0.00000  Uiso   1.00
C298   C     0.25091   0.91980   0.26426   0.00000  Uiso   1.00
C299   C     0.30319   0.86712   0.26925   0.00000  Uiso   1.00
H300   H     0.44403   0.95701   0.42916   0.00000  Uiso   1.00
H301   H     0.28369   0.96408   0.46587   0.00000  Uiso   1.00
H302   H     0.59543   0.03844   0.44173   0.00000  Uiso   1.00
H303   H     0.47538   0.86288   0.39266   0.00000  Uiso   1.00
H304   H     0.07071   0.98086   0.48643   0.00000  Uiso   1.00
H305   H     0.72806   0.13765   0.43553   0.00000  Uiso   1.00
H306   H     0.47491   0.76744   0.33204   0.00000  Uiso   1.00
H307   H     0.17266   0.02584   0.27393   0.00000  Uiso   1.00
H308   H     0.99742   0.03668   0.30212   0.00000  Uiso   1.00
H309   H     0.30917   0.11105   0.27799   0.00000  Uiso   1.00
H310   H     0.18912   0.93549   0.22891   0.00000  Uiso   1.00
H311   H     0.83837   0.03979   0.35353   0.00000  Uiso   1.00
H312   H     0.49572   0.19658   0.30262   0.00000  Uiso   1.00
H313   H     0.24257   0.82637   0.19914   0.00000  Uiso   1.00
O314   O     0.84417   0.01623   0.44133   0.00000  Uiso   1.00
O315   O     0.70659   0.22192   0.37454   0.00000  Uiso   1.00
O316   O     0.37446   0.73622   0.23877   0.00000  Uiso   1.00
N317   N     0.04007   0.99323   0.45128   0.00000  Uiso   1.00
N318   N     0.65464   0.13982   0.40369   0.00000  Uiso   1.00
N319   N     0.41800   0.79372   0.30694   0.00000  Uiso   1.00
N320   N     0.91505   0.02494   0.37977   0.00000  Uiso   1.00
N321   N     0.52962   0.17153   0.33218   0.00000  Uiso   1.00
N322   N     0.29297   0.82543   0.23543   0.00000  Uiso   1.00
C323   C     0.09901   0.52544   0.60434   0.00000  Uiso   1.00
C324   C     0.97711   0.50672   0.60289   0.00000  Uiso   1.00
C325   C     0.86724   0.50999   0.56260   0.00000  Uiso   1.00
C326   C     0.76601   0.49066   0.56869   0.00000  Uiso   1.00
C327   C     0.57546   0.46490   0.55962   0.00000  Uiso   1.00
C328   C     0.18155   0.47440   0.62059   0.00000  Uiso   1.00
C329   C     0.24358   0.45050   0.59519   0.00000  Uiso   1.00
C330   C     0.31446   0.40397   0.61619   0.00000  Uiso   1.00
C331   C     0.44137   0.32805   0.63462   0.00000  Uiso   1.00
C332   C     0.14905   0.56767   0.64606   0.00000  Uiso   1.00
C333   C     0.18379   0.62219   0.64208   0.00000  Uiso   1.00
C334   C     0.22733   0.65418   0.68453   0.00000  Uiso   1.00
C335   C     0.30379   0.72308   0.74250   0.00000  Uiso   1.00
C336   C     0.11462   0.48529   0.68682   0.00000  Uiso   1.00
C337   C     0.98560   0.48491   0.64769   0.00000  Uiso   1.00
C338   C     0.88450   0.46558   0.65385   0.00000  Uiso   1.00
C339   C     0.77450   0.46882   0.61358   0.00000  Uiso   1.00
C340   C     0.19003   0.45259   0.66539   0.00000  Uiso   1.00
C341   C     0.26084   0.40609   0.68644   0.00000  Uiso   1.00
C342   C     0.32295   0.38212   0.66107   0.00000  Uiso   1.00
C343   C     0.15753   0.54586   0.69086   0.00000  Uiso   1.00
C344   C     0.20104   0.57777   0.73333   0.00000  Uiso   1.00
C345   C     0.23583   0.63234   0.72941   0.00000  Uiso   1.00
H346   H     0.09241   0.54241   0.56946   0.00000  Uiso   1.00
H347   H     0.86072   0.52687   0.52793   0.00000  Uiso   1.00
H348   H     0.23701   0.46739   0.56052   0.00000  Uiso   1.00
H349   H     0.17721   0.63905   0.60740   0.00000  Uiso   1.00
H350   H     0.60758   0.50000   0.50164   0.00000  Uiso   1.00
H351   H     0.40104   0.37460   0.57036   0.00000  Uiso   1.00
H352   H     0.27497   0.73659   0.66922   0.00000  Uiso   1.00
H353   H     0.12122   0.46831   0.72170   0.00000  Uiso   1.00
H354   H     0.89109   0.44870   0.68852   0.00000  Uiso   1.00
H355   H     0.26739   0.38922   0.72111   0.00000  Uiso   1.00
H356   H     0.20759   0.56089   0.76799   0.00000  Uiso   1.00
H357   H     0.63224   0.43656   0.63198   0.00000  Uiso   1.00
H358   H     0.42571   0.31116   0.70071   0.00000  Uiso   1.00
H359   H     0.29962   0.67314   0.79956   0.00000  Uiso   1.00
O360   O     0.46801   0.45670   0.54223   0.00000  Uiso   1.00
O361   O     0.50902   0.29219   0.63240   0.00000  Uiso   1.00
O362   O     0.34360   0.76710   0.76210   0.00000  Uiso   1.00
N363   N     0.64496   0.48777   0.53687   0.00000  Uiso   1.00
N364   N     0.38679   0.37052   0.60112   0.00000  Uiso   1.00
N365   N     0.26894   0.70894   0.69355   0.00000  Uiso   1.00
N366   N     0.65823   0.45363   0.60701   0.00000  Uiso   1.00
N367   N     0.40005   0.33639   0.67126   0.00000  Uiso   1.00
N368   N     0.28221   0.67481   0.76368   0.00000  Uiso   1.00
