data_job_04036
_audit_creation_date              2018-12-19
_audit_creation_method            'Materials Studio'
_symmetry_space_group_name_H-M    'P1'
_symmetry_Int_Tables_number       1
_symmetry_cell_setting            triclinic
loop_
_symmetry_equiv_pos_as_xyz
  x,y,z
_cell_length_a                    23.3448
_cell_length_b                    23.3448
_cell_length_c                    9.6210
_cell_angle_alpha                 90.0000
_cell_angle_beta                  90.0000
_cell_angle_gamma                 120.0000
loop_
_atom_site_label
_atom_site_type_symbol
_atom_site_fract_x
_atom_site_fract_y
_atom_site_fract_z
_atom_site_U_iso_or_equiv
_atom_site_adp_type
_atom_site_occupancy
C1     C     0.44929   0.74394   0.20959   0.00000  Uiso   1.00
C2     C     0.47977   0.71128   0.12292   0.00000  Uiso   1.00
C3     C     0.45575   0.64376   0.11220   0.00000  Uiso   1.00
C4     C     0.49073   0.62377   0.02761   0.00000  Uiso   1.00
C5     C     0.52941   0.56607   0.90393   0.00000  Uiso   1.00
C6     C     0.50382   0.79194   0.30686   0.00000  Uiso   1.00
C7     C     0.50001   0.79224   0.45079   0.00000  Uiso   1.00
C8     C     0.55523   0.84016   0.52103   0.00000  Uiso   1.00
C9     C     0.63124   0.90772   0.68291   0.00000  Uiso   1.00
C10    C     0.43612   0.78656   0.10911   0.00000  Uiso   1.00
C11    C     0.37539   0.78236   0.08679   0.00000  Uiso   1.00
C12    C     0.37361   0.82576   0.99055   0.00000  Uiso   1.00
C13    C     0.34450   0.88497   0.84539   0.00000  Uiso   1.00
C14    C     0.55411   0.82852   0.07841   0.00000  Uiso   1.00
C15    C     0.53670   0.75722   0.05168   0.00000  Uiso   1.00
C16    C     0.57172   0.73734   0.96707   0.00000  Uiso   1.00
C17    C     0.54776   0.66980   0.95623   0.00000  Uiso   1.00
C18    C     0.56075   0.83788   0.23561   0.00000  Uiso   1.00
C19    C     0.61599   0.88582   0.30566   0.00000  Uiso   1.00
C20    C     0.61227   0.88619   0.44965   0.00000  Uiso   1.00
C21    C     0.49305   0.83250   0.03785   0.00000  Uiso   1.00
C22    C     0.49136   0.87593   0.94164   0.00000  Uiso   1.00
C23    C     0.43065   0.87179   0.91917   0.00000  Uiso   1.00
H24    H     0.40497   0.70818   0.26507   0.00000  Uiso   1.00
H25    H     0.41169   0.60822   0.16737   0.00000  Uiso   1.00
H26    H     0.45595   0.75669   0.50590   0.00000  Uiso   1.00
H27    H     0.33135   0.74680   0.14194   0.00000  Uiso   1.00
H28    H     0.44428   0.51766   0.02768   0.00000  Uiso   1.00
H29    H     0.53758   0.83072   0.74148   0.00000  Uiso   1.00
H30    H     0.27483   0.80988   0.97401   0.00000  Uiso   1.00
H31    H     0.59844   0.86429   0.02294   0.00000  Uiso   1.00
H32    H     0.61578   0.77290   0.91194   0.00000  Uiso   1.00
H33    H     0.66003   0.92136   0.25048   0.00000  Uiso   1.00
H34    H     0.53543   0.91148   0.88652   0.00000  Uiso   1.00
H35    H     0.60992   0.65132   0.82037   0.00000  Uiso   1.00
H36    H     0.70322   0.96438   0.53417   0.00000  Uiso   1.00
H37    H     0.44047   0.94353   0.76670   0.00000  Uiso   1.00
O38    O     0.53503   0.52156   0.85541   0.00000  Uiso   1.00
O39    O     0.65743   0.93229   0.79189   0.00000  Uiso   1.00
O40    O     0.31271   0.90493   0.78499   0.00000  Uiso   1.00
N41    N     0.48087   0.56166   0.99409   0.00000  Uiso   1.00
N42    N     0.56811   0.85435   0.66146   0.00000  Uiso   1.00
N43    N     0.32246   0.83487   0.94397   0.00000  Uiso   1.00
N44    N     0.57000   0.63358   0.88254   0.00000  Uiso   1.00
N45    N     0.65724   0.92627   0.54991   0.00000  Uiso   1.00
N46    N     0.41159   0.90679   0.83242   0.00000  Uiso   1.00
C47    C     0.25606   0.70535   0.54292   0.00000  Uiso   1.00
C48    C     0.28872   0.76849   0.45626   0.00000  Uiso   1.00
C49    C     0.35624   0.81199   0.44554   0.00000  Uiso   1.00
C50    C     0.37623   0.86695   0.36095   0.00000  Uiso   1.00
C51    C     0.43393   0.96334   0.23727   0.00000  Uiso   1.00
C52    C     0.20806   0.71188   0.64019   0.00000  Uiso   1.00
C53    C     0.20776   0.70777   0.78413   0.00000  Uiso   1.00
C54    C     0.15984   0.71507   0.85437   0.00000  Uiso   1.00
C55    C     0.09228   0.72351   0.01625   0.00000  Uiso   1.00
C56    C     0.21344   0.64955   0.44244   0.00000  Uiso   1.00
C57    C     0.21764   0.59304   0.42012   0.00000  Uiso   1.00
C58    C     0.17424   0.54785   0.32389   0.00000  Uiso   1.00
C59    C     0.11503   0.45953   0.17872   0.00000  Uiso   1.00
C60    C     0.17148   0.72559   0.41174   0.00000  Uiso   1.00
C61    C     0.24278   0.77948   0.38501   0.00000  Uiso   1.00
C62    C     0.26266   0.83439   0.30040   0.00000  Uiso   1.00
C63    C     0.33020   0.87797   0.28956   0.00000  Uiso   1.00
C64    C     0.16212   0.72287   0.56895   0.00000  Uiso   1.00
C65    C     0.11418   0.73017   0.63899   0.00000  Uiso   1.00
C66    C     0.11381   0.72608   0.78299   0.00000  Uiso   1.00
C67    C     0.16750   0.66055   0.37118   0.00000  Uiso   1.00
C68    C     0.12407   0.61543   0.27498   0.00000  Uiso   1.00
C69    C     0.12821   0.55886   0.25251   0.00000  Uiso   1.00
H70    H     0.29182   0.69679   0.59840   0.00000  Uiso   1.00
H71    H     0.39178   0.80347   0.50071   0.00000  Uiso   1.00
H72    H     0.24331   0.69926   0.83923   0.00000  Uiso   1.00
H73    H     0.25320   0.58455   0.47528   0.00000  Uiso   1.00
H74    H     0.48234   0.92661   0.36101   0.00000  Uiso   1.00
H75    H     0.16928   0.70685   0.07481   0.00000  Uiso   1.00
H76    H     0.19012   0.46495   0.30734   0.00000  Uiso   1.00
H77    H     0.13571   0.73415   0.35627   0.00000  Uiso   1.00
H78    H     0.22710   0.84288   0.24528   0.00000  Uiso   1.00
H79    H     0.07864   0.73867   0.58381   0.00000  Uiso   1.00
H80    H     0.08852   0.62396   0.21986   0.00000  Uiso   1.00
H81    H     0.34868   0.95860   0.15370   0.00000  Uiso   1.00
H82    H     0.03562   0.73884   0.86751   0.00000  Uiso   1.00
H83    H     0.05647   0.49694   0.10003   0.00000  Uiso   1.00
O84    O     0.47844   0.01347   0.18875   0.00000  Uiso   1.00
O85    O     0.06771   0.72514   0.12523   0.00000  Uiso   1.00
O86    O     0.09507   0.40778   0.11832   0.00000  Uiso   1.00
N87    N     0.43834   0.91921   0.32743   0.00000  Uiso   1.00
N88    N     0.14565   0.71376   0.99480   0.00000  Uiso   1.00
N89    N     0.16513   0.48759   0.27730   0.00000  Uiso   1.00
N90    N     0.36642   0.93642   0.21587   0.00000  Uiso   1.00
N91    N     0.07373   0.73097   0.88324   0.00000  Uiso   1.00
N92    N     0.09321   0.50481   0.16575   0.00000  Uiso   1.00
C93    C     0.29465   0.55071   0.87626   0.00000  Uiso   1.00
C94    C     0.23151   0.52023   0.78959   0.00000  Uiso   1.00
C95    C     0.18801   0.54425   0.77887   0.00000  Uiso   1.00
C96    C     0.13305   0.50927   0.69428   0.00000  Uiso   1.00
C97    C     0.03666   0.47059   0.57060   0.00000  Uiso   1.00
C98    C     0.28812   0.49618   0.97353   0.00000  Uiso   1.00
C99    C     0.29223   0.49999   0.11746   0.00000  Uiso   1.00
C100   C     0.28493   0.44477   0.18770   0.00000  Uiso   1.00
C101   C     0.27649   0.36876   0.34958   0.00000  Uiso   1.00
C102   C     0.35045   0.56388   0.77577   0.00000  Uiso   1.00
C103   C     0.40696   0.62461   0.75345   0.00000  Uiso   1.00
C104   C     0.45215   0.62639   0.65722   0.00000  Uiso   1.00
C105   C     0.54047   0.65550   0.51206   0.00000  Uiso   1.00
C106   C     0.27441   0.44589   0.74508   0.00000  Uiso   1.00
C107   C     0.22052   0.46330   0.71834   0.00000  Uiso   1.00
C108   C     0.16561   0.42828   0.63373   0.00000  Uiso   1.00
C109   C     0.12203   0.45224   0.62289   0.00000  Uiso   1.00
C110   C     0.27713   0.43925   0.90228   0.00000  Uiso   1.00
C111   C     0.26983   0.38401   0.97232   0.00000  Uiso   1.00
C112   C     0.27392   0.38773   0.11632   0.00000  Uiso   1.00
C113   C     0.33945   0.50695   0.70452   0.00000  Uiso   1.00
C114   C     0.38457   0.50864   0.60831   0.00000  Uiso   1.00
C115   C     0.44114   0.56935   0.58584   0.00000  Uiso   1.00
H116   H     0.30321   0.59503   0.93174   0.00000  Uiso   1.00
H117   H     0.19653   0.58831   0.83404   0.00000  Uiso   1.00
H118   H     0.30074   0.54405   0.17257   0.00000  Uiso   1.00
H119   H     0.41545   0.66865   0.80861   0.00000  Uiso   1.00
H120   H     0.07339   0.55572   0.69434   0.00000  Uiso   1.00
H121   H     0.29315   0.46242   0.40814   0.00000  Uiso   1.00
H122   H     0.53505   0.72517   0.64068   0.00000  Uiso   1.00
H123   H     0.26585   0.40156   0.68961   0.00000  Uiso   1.00
H124   H     0.15712   0.38422   0.57861   0.00000  Uiso   1.00
H125   H     0.26133   0.33997   0.91715   0.00000  Uiso   1.00
H126   H     0.37604   0.46457   0.55319   0.00000  Uiso   1.00
H127   H     0.04140   0.39008   0.48703   0.00000  Uiso   1.00
H128   H     0.26116   0.29678   0.20084   0.00000  Uiso   1.00
H129   H     0.50306   0.55953   0.43337   0.00000  Uiso   1.00
O130   O     0.98653   0.46497   0.52208   0.00000  Uiso   1.00
O131   O     0.27486   0.34257   0.45856   0.00000  Uiso   1.00
O132   O     0.59222   0.68729   0.45165   0.00000  Uiso   1.00
N133   N     0.08079   0.51913   0.66076   0.00000  Uiso   1.00
N134   N     0.28624   0.43189   0.32813   0.00000  Uiso   1.00
N135   N     0.51241   0.67754   0.61064   0.00000  Uiso   1.00
N136   N     0.06358   0.43000   0.54921   0.00000  Uiso   1.00
N137   N     0.26903   0.34276   0.21658   0.00000  Uiso   1.00
N138   N     0.49519   0.58841   0.49908   0.00000  Uiso   1.00
C139   C     0.55071   0.25606   0.70959   0.00000  Uiso   1.00
C140   C     0.52023   0.28872   0.62292   0.00000  Uiso   1.00
C141   C     0.54425   0.35624   0.61220   0.00000  Uiso   1.00
C142   C     0.50927   0.37623   0.52761   0.00000  Uiso   1.00
C143   C     0.47059   0.43393   0.40393   0.00000  Uiso   1.00
C144   C     0.49618   0.20806   0.80686   0.00000  Uiso   1.00
C145   C     0.49999   0.20776   0.95079   0.00000  Uiso   1.00
C146   C     0.44477   0.15984   0.02103   0.00000  Uiso   1.00
C147   C     0.36876   0.09228   0.18291   0.00000  Uiso   1.00
C148   C     0.56388   0.21344   0.60911   0.00000  Uiso   1.00
C149   C     0.62461   0.21764   0.58679   0.00000  Uiso   1.00
C150   C     0.62639   0.17424   0.49055   0.00000  Uiso   1.00
C151   C     0.65550   0.11503   0.34539   0.00000  Uiso   1.00
C152   C     0.44589   0.17148   0.57841   0.00000  Uiso   1.00
C153   C     0.46330   0.24278   0.55168   0.00000  Uiso   1.00
C154   C     0.42828   0.26266   0.46707   0.00000  Uiso   1.00
C155   C     0.45224   0.33020   0.45623   0.00000  Uiso   1.00
C156   C     0.43925   0.16212   0.73561   0.00000  Uiso   1.00
C157   C     0.38401   0.11418   0.80566   0.00000  Uiso   1.00
C158   C     0.38773   0.11381   0.94965   0.00000  Uiso   1.00
C159   C     0.50695   0.16750   0.53785   0.00000  Uiso   1.00
C160   C     0.50864   0.12407   0.44164   0.00000  Uiso   1.00
C161   C     0.56935   0.12821   0.41917   0.00000  Uiso   1.00
H162   H     0.59503   0.29182   0.76507   0.00000  Uiso   1.00
H163   H     0.58831   0.39178   0.66737   0.00000  Uiso   1.00
H164   H     0.54405   0.24331   0.00590   0.00000  Uiso   1.00
H165   H     0.66865   0.25320   0.64194   0.00000  Uiso   1.00
H166   H     0.55572   0.48234   0.52768   0.00000  Uiso   1.00
H167   H     0.46242   0.16928   0.24148   0.00000  Uiso   1.00
H168   H     0.72517   0.19012   0.47401   0.00000  Uiso   1.00
H169   H     0.40156   0.13571   0.52294   0.00000  Uiso   1.00
H170   H     0.38422   0.22710   0.41194   0.00000  Uiso   1.00
H171   H     0.33997   0.07864   0.75048   0.00000  Uiso   1.00
H172   H     0.46457   0.08852   0.38652   0.00000  Uiso   1.00
H173   H     0.39008   0.34868   0.32037   0.00000  Uiso   1.00
H174   H     0.29678   0.03562   0.03417   0.00000  Uiso   1.00
H175   H     0.55953   0.05647   0.26670   0.00000  Uiso   1.00
O176   O     0.46497   0.47844   0.35541   0.00000  Uiso   1.00
O177   O     0.34257   0.06771   0.29189   0.00000  Uiso   1.00
O178   O     0.68729   0.09507   0.28499   0.00000  Uiso   1.00
N179   N     0.51913   0.43834   0.49409   0.00000  Uiso   1.00
N180   N     0.43189   0.14565   0.16146   0.00000  Uiso   1.00
N181   N     0.67754   0.16513   0.44397   0.00000  Uiso   1.00
N182   N     0.43000   0.36642   0.38254   0.00000  Uiso   1.00
N183   N     0.34276   0.07373   0.04991   0.00000  Uiso   1.00
N184   N     0.58841   0.09321   0.33242   0.00000  Uiso   1.00
C185   C     0.74394   0.29465   0.04292   0.00000  Uiso   1.00
C186   C     0.71128   0.23151   0.95626   0.00000  Uiso   1.00
C187   C     0.64376   0.18801   0.94554   0.00000  Uiso   1.00
C188   C     0.62377   0.13305   0.86095   0.00000  Uiso   1.00
C189   C     0.56607   0.03666   0.73727   0.00000  Uiso   1.00
C190   C     0.79194   0.28812   0.14019   0.00000  Uiso   1.00
C191   C     0.79224   0.29223   0.28413   0.00000  Uiso   1.00
C192   C     0.84016   0.28493   0.35437   0.00000  Uiso   1.00
C193   C     0.90772   0.27649   0.51625   0.00000  Uiso   1.00
C194   C     0.78656   0.35045   0.94244   0.00000  Uiso   1.00
C195   C     0.78236   0.40696   0.92012   0.00000  Uiso   1.00
C196   C     0.82576   0.45215   0.82389   0.00000  Uiso   1.00
C197   C     0.88497   0.54047   0.67872   0.00000  Uiso   1.00
C198   C     0.82852   0.27441   0.91174   0.00000  Uiso   1.00
C199   C     0.75722   0.22052   0.88501   0.00000  Uiso   1.00
C200   C     0.73734   0.16561   0.80040   0.00000  Uiso   1.00
C201   C     0.66980   0.12203   0.78956   0.00000  Uiso   1.00
C202   C     0.83788   0.27713   0.06895   0.00000  Uiso   1.00
C203   C     0.88582   0.26983   0.13899   0.00000  Uiso   1.00
C204   C     0.88619   0.27392   0.28299   0.00000  Uiso   1.00
C205   C     0.83250   0.33945   0.87118   0.00000  Uiso   1.00
C206   C     0.87593   0.38457   0.77498   0.00000  Uiso   1.00
C207   C     0.87179   0.44114   0.75251   0.00000  Uiso   1.00
H208   H     0.70818   0.30321   0.09840   0.00000  Uiso   1.00
H209   H     0.60822   0.19653   0.00071   0.00000  Uiso   1.00
H210   H     0.75669   0.30074   0.33923   0.00000  Uiso   1.00
H211   H     0.74680   0.41545   0.97528   0.00000  Uiso   1.00
H212   H     0.51766   0.07339   0.86101   0.00000  Uiso   1.00
H213   H     0.83072   0.29315   0.57481   0.00000  Uiso   1.00
H214   H     0.80988   0.53505   0.80734   0.00000  Uiso   1.00
H215   H     0.86429   0.26585   0.85627   0.00000  Uiso   1.00
H216   H     0.77290   0.15712   0.74528   0.00000  Uiso   1.00
H217   H     0.92136   0.26133   0.08381   0.00000  Uiso   1.00
H218   H     0.91148   0.37604   0.71986   0.00000  Uiso   1.00
H219   H     0.65132   0.04140   0.65370   0.00000  Uiso   1.00
H220   H     0.96438   0.26116   0.36751   0.00000  Uiso   1.00
H221   H     0.94353   0.50306   0.60003   0.00000  Uiso   1.00
O222   O     0.52156   0.98653   0.68875   0.00000  Uiso   1.00
O223   O     0.93229   0.27486   0.62523   0.00000  Uiso   1.00
O224   O     0.90493   0.59222   0.61832   0.00000  Uiso   1.00
N225   N     0.56166   0.08079   0.82743   0.00000  Uiso   1.00
N226   N     0.85435   0.28624   0.49480   0.00000  Uiso   1.00
N227   N     0.83487   0.51241   0.77730   0.00000  Uiso   1.00
N228   N     0.63358   0.06358   0.71587   0.00000  Uiso   1.00
N229   N     0.92627   0.26903   0.38324   0.00000  Uiso   1.00
N230   N     0.90679   0.49519   0.66575   0.00000  Uiso   1.00
C231   C     0.70535   0.44929   0.37626   0.00000  Uiso   1.00
C232   C     0.76849   0.47977   0.28959   0.00000  Uiso   1.00
C233   C     0.81199   0.45575   0.27887   0.00000  Uiso   1.00
C234   C     0.86695   0.49073   0.19428   0.00000  Uiso   1.00
C235   C     0.96334   0.52941   0.07060   0.00000  Uiso   1.00
C236   C     0.71188   0.50382   0.47353   0.00000  Uiso   1.00
C237   C     0.70777   0.50001   0.61746   0.00000  Uiso   1.00
C238   C     0.71507   0.55523   0.68770   0.00000  Uiso   1.00
C239   C     0.72351   0.63124   0.84958   0.00000  Uiso   1.00
C240   C     0.64955   0.43612   0.27577   0.00000  Uiso   1.00
C241   C     0.59304   0.37539   0.25345   0.00000  Uiso   1.00
C242   C     0.54785   0.37361   0.15722   0.00000  Uiso   1.00
C243   C     0.45953   0.34450   0.01206   0.00000  Uiso   1.00
C244   C     0.72559   0.55411   0.24508   0.00000  Uiso   1.00
C245   C     0.77948   0.53670   0.21834   0.00000  Uiso   1.00
C246   C     0.83439   0.57172   0.13373   0.00000  Uiso   1.00
C247   C     0.87797   0.54776   0.12289   0.00000  Uiso   1.00
C248   C     0.72287   0.56075   0.40228   0.00000  Uiso   1.00
C249   C     0.73017   0.61599   0.47232   0.00000  Uiso   1.00
C250   C     0.72608   0.61227   0.61632   0.00000  Uiso   1.00
C251   C     0.66055   0.49305   0.20452   0.00000  Uiso   1.00
C252   C     0.61543   0.49136   0.10831   0.00000  Uiso   1.00
C253   C     0.55886   0.43065   0.08584   0.00000  Uiso   1.00
H254   H     0.69679   0.40497   0.43174   0.00000  Uiso   1.00
H255   H     0.80347   0.41169   0.33404   0.00000  Uiso   1.00
H256   H     0.69926   0.45595   0.67257   0.00000  Uiso   1.00
H257   H     0.58455   0.33135   0.30861   0.00000  Uiso   1.00
H258   H     0.92661   0.44428   0.19434   0.00000  Uiso   1.00
H259   H     0.70685   0.53758   0.90814   0.00000  Uiso   1.00
H260   H     0.46495   0.27483   0.14068   0.00000  Uiso   1.00
H261   H     0.73415   0.59844   0.18961   0.00000  Uiso   1.00
H262   H     0.84288   0.61578   0.07861   0.00000  Uiso   1.00
H263   H     0.73867   0.66003   0.41715   0.00000  Uiso   1.00
H264   H     0.62396   0.53543   0.05319   0.00000  Uiso   1.00
H265   H     0.95860   0.60992   0.98703   0.00000  Uiso   1.00
H266   H     0.73884   0.70322   0.70084   0.00000  Uiso   1.00
H267   H     0.49694   0.44047   0.93337   0.00000  Uiso   1.00
O268   O     0.01347   0.53503   0.02208   0.00000  Uiso   1.00
O269   O     0.72514   0.65743   0.95856   0.00000  Uiso   1.00
O270   O     0.40778   0.31271   0.95165   0.00000  Uiso   1.00
N271   N     0.91921   0.48087   0.16076   0.00000  Uiso   1.00
N272   N     0.71376   0.56811   0.82813   0.00000  Uiso   1.00
N273   N     0.48759   0.32246   0.11064   0.00000  Uiso   1.00
N274   N     0.93642   0.57000   0.04921   0.00000  Uiso   1.00
N275   N     0.73097   0.65724   0.71658   0.00000  Uiso   1.00
N276   N     0.50481   0.41159   0.99908   0.00000  Uiso   1.00
