data_job_04110
_audit_creation_date              2018-12-19
_audit_creation_method            'Materials Studio'
_symmetry_space_group_name_H-M    'P1'
_symmetry_Int_Tables_number       1
_symmetry_cell_setting            triclinic
loop_
_symmetry_equiv_pos_as_xyz
  x,y,z
_cell_length_a                    21.1855
_cell_length_b                    21.1855
_cell_length_c                    12.2609
_cell_angle_alpha                 90.0000
_cell_angle_beta                  90.0000
_cell_angle_gamma                 120.0000
loop_
_atom_site_label
_atom_site_type_symbol
_atom_site_fract_x
_atom_site_fract_y
_atom_site_fract_z
_atom_site_U_iso_or_equiv
_atom_site_adp_type
_atom_site_occupancy
C1     C     0.09209   0.41869   0.68328   0.00000  Uiso   1.00
C2     C     0.02544   0.34971   0.64172   0.00000  Uiso   1.00
C3     C     0.95764   0.31408   0.69180   0.00000  Uiso   1.00
C4     C     0.90374   0.25180   0.64089   0.00000  Uiso   1.00
C5     C     0.79822   0.14857   0.59122   0.00000  Uiso   1.00
C6     C     0.15256   0.39997   0.69436   0.00000  Uiso   1.00
C7     C     0.19164   0.40661   0.78868   0.00000  Uiso   1.00
C8     C     0.24477   0.38665   0.78206   0.00000  Uiso   1.00
C9     C     0.33663   0.36150   0.81408   0.00000  Uiso   1.00
C10    C     0.11530   0.47401   0.59079   0.00000  Uiso   1.00
C11    C     0.12306   0.54292   0.59803   0.00000  Uiso   1.00
C12    C     0.14483   0.58531   0.50422   0.00000  Uiso   1.00
C13    C     0.17883   0.67513   0.37544   0.00000  Uiso   1.00
C14    C     0.11695   0.37144   0.50382   0.00000  Uiso   1.00
C15    C     0.03895   0.32405   0.54425   0.00000  Uiso   1.00
C16    C     0.98514   0.26181   0.49325   0.00000  Uiso   1.00
C17    C     0.91727   0.22610   0.54324   0.00000  Uiso   1.00
C18    C     0.16607   0.37430   0.59689   0.00000  Uiso   1.00
C19    C     0.21915   0.35434   0.59013   0.00000  Uiso   1.00
C20    C     0.25829   0.36094   0.68441   0.00000  Uiso   1.00
C21    C     0.12880   0.44835   0.49331   0.00000  Uiso   1.00
C22    C     0.15056   0.49065   0.39948   0.00000  Uiso   1.00
C23    C     0.15835   0.55960   0.40657   0.00000  Uiso   1.00
H24    H     0.08158   0.43867   0.75917   0.00000  Uiso   1.00
H25    H     0.94721   0.33395   0.76724   0.00000  Uiso   1.00
H26    H     0.18119   0.42648   0.86409   0.00000  Uiso   1.00
H27    H     0.11261   0.56276   0.67347   0.00000  Uiso   1.00
H28    H     0.80420   0.20653   0.73321   0.00000  Uiso   1.00
H29    H     0.29757   0.40164   0.93743   0.00000  Uiso   1.00
H30    H     0.15296   0.68903   0.53548   0.00000  Uiso   1.00
H31    H     0.12746   0.35146   0.42793   0.00000  Uiso   1.00
H32    H     0.99561   0.24196   0.41782   0.00000  Uiso   1.00
H33    H     0.22958   0.33448   0.51468   0.00000  Uiso   1.00
H34    H     0.16101   0.47077   0.32406   0.00000  Uiso   1.00
H35    H     0.84348   0.13186   0.44962   0.00000  Uiso   1.00
H36    H     0.33685   0.32698   0.65384   0.00000  Uiso   1.00
H37    H     0.19224   0.61436   0.25188   0.00000  Uiso   1.00
O38    O     0.73628   0.09872   0.59076   0.00000  Uiso   1.00
O39    O     0.38357   0.35471   0.85868   0.00000  Uiso   1.00
O40    O     0.19384   0.73176   0.33133   0.00000  Uiso   1.00
N41    N     0.83154   0.20399   0.66784   0.00000  Uiso   1.00
N42    N     0.29280   0.38640   0.85878   0.00000  Uiso   1.00
N43    N     0.15762   0.65509   0.48300   0.00000  Uiso   1.00
N44    N     0.85267   0.16381   0.51524   0.00000  Uiso   1.00
N45    N     0.31393   0.34622   0.70618   0.00000  Uiso   1.00
N46    N     0.17876   0.61491   0.33040   0.00000  Uiso   1.00
C47    C     0.58131   0.67340   0.68328   0.00000  Uiso   1.00
C48    C     0.65029   0.67574   0.64172   0.00000  Uiso   1.00
C49    C     0.68592   0.64356   0.69180   0.00000  Uiso   1.00
C50    C     0.74820   0.65194   0.64089   0.00000  Uiso   1.00
C51    C     0.85143   0.64964   0.59122   0.00000  Uiso   1.00
C52    C     0.60003   0.75260   0.69436   0.00000  Uiso   1.00
C53    C     0.59339   0.78504   0.78868   0.00000  Uiso   1.00
C54    C     0.61335   0.85812   0.78206   0.00000  Uiso   1.00
C55    C     0.63850   0.97513   0.81408   0.00000  Uiso   1.00
C56    C     0.52599   0.64129   0.59079   0.00000  Uiso   1.00
C57    C     0.45708   0.58014   0.59803   0.00000  Uiso   1.00
C58    C     0.41469   0.55951   0.50422   0.00000  Uiso   1.00
C59    C     0.32487   0.50370   0.37544   0.00000  Uiso   1.00
C60    C     0.62856   0.74551   0.50382   0.00000  Uiso   1.00
C61    C     0.67595   0.71491   0.54425   0.00000  Uiso   1.00
C62    C     0.73819   0.72333   0.49325   0.00000  Uiso   1.00
C63    C     0.77390   0.69117   0.54324   0.00000  Uiso   1.00
C64    C     0.62570   0.79176   0.59689   0.00000  Uiso   1.00
C65    C     0.64566   0.86481   0.59013   0.00000  Uiso   1.00
C66    C     0.63906   0.89735   0.68441   0.00000  Uiso   1.00
C67    C     0.55165   0.68045   0.49331   0.00000  Uiso   1.00
C68    C     0.50935   0.65992   0.39948   0.00000  Uiso   1.00
C69    C     0.44040   0.59875   0.40657   0.00000  Uiso   1.00
H70    H     0.56133   0.64291   0.75917   0.00000  Uiso   1.00
H71    H     0.66605   0.61326   0.76724   0.00000  Uiso   1.00
H72    H     0.57352   0.75471   0.86409   0.00000  Uiso   1.00
H73    H     0.43724   0.54985   0.67347   0.00000  Uiso   1.00
H74    H     0.79347   0.59768   0.73321   0.00000  Uiso   1.00
H75    H     0.59836   0.89593   0.93743   0.00000  Uiso   1.00
H76    H     0.31097   0.46394   0.53548   0.00000  Uiso   1.00
H77    H     0.64854   0.77600   0.42793   0.00000  Uiso   1.00
H78    H     0.75804   0.75365   0.41782   0.00000  Uiso   1.00
H79    H     0.66552   0.89510   0.51468   0.00000  Uiso   1.00
H80    H     0.52923   0.69024   0.32406   0.00000  Uiso   1.00
H81    H     0.86814   0.71162   0.44962   0.00000  Uiso   1.00
H82    H     0.67302   0.00988   0.65384   0.00000  Uiso   1.00
H83    H     0.38564   0.57788   0.25188   0.00000  Uiso   1.00
O84    O     0.90128   0.63756   0.59076   0.00000  Uiso   1.00
O85    O     0.64529   0.02886   0.85868   0.00000  Uiso   1.00
O86    O     0.26824   0.46209   0.33133   0.00000  Uiso   1.00
N87    N     0.79601   0.62755   0.66784   0.00000  Uiso   1.00
N88    N     0.61360   0.90640   0.85878   0.00000  Uiso   1.00
N89    N     0.34491   0.50253   0.48300   0.00000  Uiso   1.00
N90    N     0.83619   0.68886   0.51524   0.00000  Uiso   1.00
N91    N     0.65378   0.96771   0.70618   0.00000  Uiso   1.00
N92    N     0.38509   0.56385   0.33040   0.00000  Uiso   1.00
C93    C     0.32660   0.90791   0.68328   0.00000  Uiso   1.00
C94    C     0.32426   0.97456   0.64172   0.00000  Uiso   1.00
C95    C     0.35644   0.04236   0.69180   0.00000  Uiso   1.00
C96    C     0.34806   0.09626   0.64089   0.00000  Uiso   1.00
C97    C     0.35036   0.20178   0.59122   0.00000  Uiso   1.00
C98    C     0.24740   0.84744   0.69436   0.00000  Uiso   1.00
C99    C     0.21496   0.80836   0.78868   0.00000  Uiso   1.00
C100   C     0.14188   0.75523   0.78206   0.00000  Uiso   1.00
C101   C     0.02487   0.66337   0.81408   0.00000  Uiso   1.00
C102   C     0.35871   0.88470   0.59079   0.00000  Uiso   1.00
C103   C     0.41986   0.87694   0.59803   0.00000  Uiso   1.00
C104   C     0.44049   0.85517   0.50422   0.00000  Uiso   1.00
C105   C     0.49630   0.82117   0.37544   0.00000  Uiso   1.00
C106   C     0.25449   0.88305   0.50382   0.00000  Uiso   1.00
C107   C     0.28509   0.96105   0.54425   0.00000  Uiso   1.00
C108   C     0.27667   0.01486   0.49325   0.00000  Uiso   1.00
C109   C     0.30883   0.08273   0.54324   0.00000  Uiso   1.00
C110   C     0.20824   0.83393   0.59689   0.00000  Uiso   1.00
C111   C     0.13519   0.78085   0.59013   0.00000  Uiso   1.00
C112   C     0.10265   0.74171   0.68441   0.00000  Uiso   1.00
C113   C     0.31955   0.87120   0.49331   0.00000  Uiso   1.00
C114   C     0.34008   0.84944   0.39948   0.00000  Uiso   1.00
C115   C     0.40125   0.84165   0.40657   0.00000  Uiso   1.00
H116   H     0.35709   0.91842   0.75917   0.00000  Uiso   1.00
H117   H     0.38674   0.05279   0.76724   0.00000  Uiso   1.00
H118   H     0.24529   0.81881   0.86409   0.00000  Uiso   1.00
H119   H     0.45015   0.88739   0.67347   0.00000  Uiso   1.00
H120   H     0.40232   0.19580   0.73321   0.00000  Uiso   1.00
H121   H     0.10407   0.70243   0.93743   0.00000  Uiso   1.00
H122   H     0.53606   0.84704   0.53548   0.00000  Uiso   1.00
H123   H     0.22400   0.87254   0.42793   0.00000  Uiso   1.00
H124   H     0.24635   0.00439   0.41782   0.00000  Uiso   1.00
H125   H     0.10490   0.77042   0.51468   0.00000  Uiso   1.00
H126   H     0.30976   0.83899   0.32406   0.00000  Uiso   1.00
H127   H     0.28838   0.15652   0.44962   0.00000  Uiso   1.00
H128   H     0.99012   0.66315   0.65384   0.00000  Uiso   1.00
H129   H     0.42212   0.80776   0.25188   0.00000  Uiso   1.00
O130   O     0.36244   0.26372   0.59076   0.00000  Uiso   1.00
O131   O     0.97114   0.61643   0.85868   0.00000  Uiso   1.00
O132   O     0.53791   0.80616   0.33133   0.00000  Uiso   1.00
N133   N     0.37245   0.16846   0.66784   0.00000  Uiso   1.00
N134   N     0.09360   0.70720   0.85878   0.00000  Uiso   1.00
N135   N     0.49747   0.84238   0.48300   0.00000  Uiso   1.00
N136   N     0.31114   0.14733   0.51524   0.00000  Uiso   1.00
N137   N     0.03229   0.68607   0.70618   0.00000  Uiso   1.00
N138   N     0.43615   0.82124   0.33040   0.00000  Uiso   1.00
C139   C     0.41869   0.09209   0.18328   0.00000  Uiso   1.00
C140   C     0.34971   0.02544   0.14172   0.00000  Uiso   1.00
C141   C     0.31408   0.95764   0.19180   0.00000  Uiso   1.00
C142   C     0.25180   0.90374   0.14089   0.00000  Uiso   1.00
C143   C     0.14857   0.79822   0.09122   0.00000  Uiso   1.00
C144   C     0.39997   0.15256   0.19436   0.00000  Uiso   1.00
C145   C     0.40661   0.19164   0.28868   0.00000  Uiso   1.00
C146   C     0.38665   0.24477   0.28206   0.00000  Uiso   1.00
C147   C     0.36150   0.33663   0.31408   0.00000  Uiso   1.00
C148   C     0.47401   0.11530   0.09079   0.00000  Uiso   1.00
C149   C     0.54292   0.12306   0.09803   0.00000  Uiso   1.00
C150   C     0.58531   0.14483   0.00422   0.00000  Uiso   1.00
C151   C     0.67513   0.17883   0.87544   0.00000  Uiso   1.00
C152   C     0.37144   0.11695   0.00382   0.00000  Uiso   1.00
C153   C     0.32405   0.03895   0.04425   0.00000  Uiso   1.00
C154   C     0.26181   0.98514   0.99325   0.00000  Uiso   1.00
C155   C     0.22610   0.91727   0.04324   0.00000  Uiso   1.00
C156   C     0.37430   0.16607   0.09689   0.00000  Uiso   1.00
C157   C     0.35434   0.21915   0.09013   0.00000  Uiso   1.00
C158   C     0.36094   0.25829   0.18441   0.00000  Uiso   1.00
C159   C     0.44835   0.12880   0.99331   0.00000  Uiso   1.00
C160   C     0.49065   0.15056   0.89948   0.00000  Uiso   1.00
C161   C     0.55960   0.15835   0.90657   0.00000  Uiso   1.00
H162   H     0.43867   0.08158   0.25917   0.00000  Uiso   1.00
H163   H     0.33395   0.94721   0.26724   0.00000  Uiso   1.00
H164   H     0.42648   0.18119   0.36409   0.00000  Uiso   1.00
H165   H     0.56276   0.11261   0.17347   0.00000  Uiso   1.00
H166   H     0.20653   0.80420   0.23321   0.00000  Uiso   1.00
H167   H     0.40164   0.29757   0.43743   0.00000  Uiso   1.00
H168   H     0.68903   0.15296   0.03548   0.00000  Uiso   1.00
H169   H     0.35146   0.12746   0.92793   0.00000  Uiso   1.00
H170   H     0.24196   0.99561   0.91782   0.00000  Uiso   1.00
H171   H     0.33448   0.22958   0.01468   0.00000  Uiso   1.00
H172   H     0.47077   0.16101   0.82406   0.00000  Uiso   1.00
H173   H     0.13186   0.84348   0.94962   0.00000  Uiso   1.00
H174   H     0.32698   0.33685   0.15384   0.00000  Uiso   1.00
H175   H     0.61436   0.19224   0.75188   0.00000  Uiso   1.00
O176   O     0.09872   0.73628   0.09076   0.00000  Uiso   1.00
O177   O     0.35471   0.38357   0.35868   0.00000  Uiso   1.00
O178   O     0.73176   0.19384   0.83133   0.00000  Uiso   1.00
N179   N     0.20399   0.83154   0.16784   0.00000  Uiso   1.00
N180   N     0.38640   0.29280   0.35878   0.00000  Uiso   1.00
N181   N     0.65509   0.15762   0.98300   0.00000  Uiso   1.00
N182   N     0.16381   0.85267   0.01524   0.00000  Uiso   1.00
N183   N     0.34622   0.31393   0.20618   0.00000  Uiso   1.00
N184   N     0.61491   0.17876   0.83040   0.00000  Uiso   1.00
C185   C     0.67340   0.58131   0.18328   0.00000  Uiso   1.00
C186   C     0.67574   0.65029   0.14172   0.00000  Uiso   1.00
C187   C     0.64356   0.68592   0.19180   0.00000  Uiso   1.00
C188   C     0.65194   0.74820   0.14089   0.00000  Uiso   1.00
C189   C     0.64964   0.85143   0.09122   0.00000  Uiso   1.00
C190   C     0.75260   0.60003   0.19436   0.00000  Uiso   1.00
C191   C     0.78504   0.59339   0.28868   0.00000  Uiso   1.00
C192   C     0.85812   0.61335   0.28206   0.00000  Uiso   1.00
C193   C     0.97513   0.63850   0.31408   0.00000  Uiso   1.00
C194   C     0.64129   0.52599   0.09079   0.00000  Uiso   1.00
C195   C     0.58014   0.45708   0.09803   0.00000  Uiso   1.00
C196   C     0.55951   0.41469   0.00422   0.00000  Uiso   1.00
C197   C     0.50370   0.32487   0.87544   0.00000  Uiso   1.00
C198   C     0.74551   0.62856   0.00382   0.00000  Uiso   1.00
C199   C     0.71491   0.67595   0.04425   0.00000  Uiso   1.00
C200   C     0.72333   0.73819   0.99325   0.00000  Uiso   1.00
C201   C     0.69117   0.77390   0.04324   0.00000  Uiso   1.00
C202   C     0.79176   0.62570   0.09689   0.00000  Uiso   1.00
C203   C     0.86481   0.64566   0.09013   0.00000  Uiso   1.00
C204   C     0.89735   0.63906   0.18441   0.00000  Uiso   1.00
C205   C     0.68045   0.55165   0.99331   0.00000  Uiso   1.00
C206   C     0.65992   0.50935   0.89948   0.00000  Uiso   1.00
C207   C     0.59875   0.44040   0.90657   0.00000  Uiso   1.00
H208   H     0.64291   0.56133   0.25917   0.00000  Uiso   1.00
H209   H     0.61326   0.66605   0.26724   0.00000  Uiso   1.00
H210   H     0.75471   0.57352   0.36409   0.00000  Uiso   1.00
H211   H     0.54985   0.43724   0.17347   0.00000  Uiso   1.00
H212   H     0.59768   0.79347   0.23321   0.00000  Uiso   1.00
H213   H     0.89593   0.59836   0.43743   0.00000  Uiso   1.00
H214   H     0.46394   0.31097   0.03548   0.00000  Uiso   1.00
H215   H     0.77600   0.64854   0.92793   0.00000  Uiso   1.00
H216   H     0.75365   0.75804   0.91782   0.00000  Uiso   1.00
H217   H     0.89510   0.66552   0.01468   0.00000  Uiso   1.00
H218   H     0.69024   0.52923   0.82406   0.00000  Uiso   1.00
H219   H     0.71162   0.86814   0.94962   0.00000  Uiso   1.00
H220   H     0.00988   0.67302   0.15384   0.00000  Uiso   1.00
H221   H     0.57788   0.38564   0.75188   0.00000  Uiso   1.00
O222   O     0.63756   0.90128   0.09076   0.00000  Uiso   1.00
O223   O     0.02886   0.64529   0.35868   0.00000  Uiso   1.00
O224   O     0.46209   0.26824   0.83133   0.00000  Uiso   1.00
N225   N     0.62755   0.79601   0.16784   0.00000  Uiso   1.00
N226   N     0.90640   0.61360   0.35878   0.00000  Uiso   1.00
N227   N     0.50253   0.34491   0.98300   0.00000  Uiso   1.00
N228   N     0.68886   0.83619   0.01524   0.00000  Uiso   1.00
N229   N     0.96771   0.65378   0.20618   0.00000  Uiso   1.00
N230   N     0.56385   0.38509   0.83040   0.00000  Uiso   1.00
C231   C     0.90791   0.32660   0.18328   0.00000  Uiso   1.00
C232   C     0.97456   0.32426   0.14172   0.00000  Uiso   1.00
C233   C     0.04236   0.35644   0.19180   0.00000  Uiso   1.00
C234   C     0.09626   0.34806   0.14089   0.00000  Uiso   1.00
C235   C     0.20178   0.35036   0.09122   0.00000  Uiso   1.00
C236   C     0.84744   0.24740   0.19436   0.00000  Uiso   1.00
C237   C     0.80836   0.21496   0.28868   0.00000  Uiso   1.00
C238   C     0.75523   0.14188   0.28206   0.00000  Uiso   1.00
C239   C     0.66337   0.02487   0.31408   0.00000  Uiso   1.00
C240   C     0.88470   0.35871   0.09079   0.00000  Uiso   1.00
C241   C     0.87694   0.41986   0.09803   0.00000  Uiso   1.00
C242   C     0.85517   0.44049   0.00422   0.00000  Uiso   1.00
C243   C     0.82117   0.49630   0.87544   0.00000  Uiso   1.00
C244   C     0.88305   0.25449   0.00382   0.00000  Uiso   1.00
C245   C     0.96105   0.28509   0.04425   0.00000  Uiso   1.00
C246   C     0.01486   0.27667   0.99325   0.00000  Uiso   1.00
C247   C     0.08273   0.30883   0.04324   0.00000  Uiso   1.00
C248   C     0.83393   0.20824   0.09689   0.00000  Uiso   1.00
C249   C     0.78085   0.13519   0.09013   0.00000  Uiso   1.00
C250   C     0.74171   0.10265   0.18441   0.00000  Uiso   1.00
C251   C     0.87120   0.31955   0.99331   0.00000  Uiso   1.00
C252   C     0.84944   0.34008   0.89948   0.00000  Uiso   1.00
C253   C     0.84165   0.40125   0.90657   0.00000  Uiso   1.00
H254   H     0.91842   0.35709   0.25917   0.00000  Uiso   1.00
H255   H     0.05279   0.38674   0.26724   0.00000  Uiso   1.00
H256   H     0.81881   0.24529   0.36409   0.00000  Uiso   1.00
H257   H     0.88739   0.45015   0.17347   0.00000  Uiso   1.00
H258   H     0.19580   0.40232   0.23321   0.00000  Uiso   1.00
H259   H     0.70243   0.10407   0.43743   0.00000  Uiso   1.00
H260   H     0.84704   0.53606   0.03548   0.00000  Uiso   1.00
H261   H     0.87254   0.22400   0.92793   0.00000  Uiso   1.00
H262   H     0.00439   0.24635   0.91782   0.00000  Uiso   1.00
H263   H     0.77042   0.10490   0.01468   0.00000  Uiso   1.00
H264   H     0.83899   0.30976   0.82406   0.00000  Uiso   1.00
H265   H     0.15652   0.28838   0.94962   0.00000  Uiso   1.00
H266   H     0.66315   0.99012   0.15384   0.00000  Uiso   1.00
H267   H     0.80776   0.42212   0.75188   0.00000  Uiso   1.00
O268   O     0.26372   0.36244   0.09076   0.00000  Uiso   1.00
O269   O     0.61643   0.97114   0.35868   0.00000  Uiso   1.00
O270   O     0.80616   0.53791   0.83133   0.00000  Uiso   1.00
N271   N     0.16846   0.37245   0.16784   0.00000  Uiso   1.00
N272   N     0.70720   0.09360   0.35878   0.00000  Uiso   1.00
N273   N     0.84238   0.49747   0.98300   0.00000  Uiso   1.00
N274   N     0.14733   0.31114   0.01524   0.00000  Uiso   1.00
N275   N     0.68607   0.03229   0.20618   0.00000  Uiso   1.00
N276   N     0.82124   0.43615   0.83040   0.00000  Uiso   1.00
