data_job_06183
_audit_creation_date              2018-12-19
_audit_creation_method            'Materials Studio'
_symmetry_space_group_name_H-M    'P1'
_symmetry_Int_Tables_number       1
_symmetry_cell_setting            triclinic
loop_
_symmetry_equiv_pos_as_xyz
  x,y,z
_cell_length_a                    15.0926
_cell_length_b                    15.1116
_cell_length_c                    15.1229
_cell_angle_alpha                 98.0859
_cell_angle_beta                  98.1410
_cell_angle_gamma                 98.1698
loop_
_atom_site_label
_atom_site_type_symbol
_atom_site_fract_x
_atom_site_fract_y
_atom_site_fract_z
_atom_site_U_iso_or_equiv
_atom_site_adp_type
_atom_site_occupancy
C1     C     0.00692   0.51916   0.66417   0.00000  Uiso   1.00
C2     C     0.96420   0.46715   0.73117   0.00000  Uiso   1.00
C3     C     0.88001   0.41171   0.71350   0.00000  Uiso   1.00
C4     C     0.85309   0.37013   0.78379   0.00000  Uiso   1.00
C5     C     0.77832   0.28735   0.87493   0.00000  Uiso   1.00
C6     C     0.02783   0.61833   0.70909   0.00000  Uiso   1.00
C7     C     0.99714   0.69002   0.67284   0.00000  Uiso   1.00
C8     C     0.02380   0.77570   0.72454   0.00000  Uiso   1.00
C9     C     0.04786   0.92766   0.78137   0.00000  Uiso   1.00
C10    C     0.09856   0.48896   0.65933   0.00000  Uiso   1.00
C11    C     0.12736   0.45188   0.58124   0.00000  Uiso   1.00
C12    C     0.21357   0.42866   0.59104   0.00000  Uiso   1.00
C13    C     0.34745   0.37973   0.57060   0.00000  Uiso   1.00
C14    C     0.10881   0.54388   0.82042   0.00000  Uiso   1.00
C15    C     0.01955   0.48057   0.81604   0.00000  Uiso   1.00
C16    C     0.99275   0.43906   0.88638   0.00000  Uiso   1.00
C17    C     0.90853   0.38357   0.86881   0.00000  Uiso   1.00
C18    C     0.08317   0.63176   0.79396   0.00000  Uiso   1.00
C19    C     0.10988   0.71736   0.84572   0.00000  Uiso   1.00
C20    C     0.07924   0.78915   0.80956   0.00000  Uiso   1.00
C21    C     0.15390   0.50238   0.74420   0.00000  Uiso   1.00
C22    C     0.24009   0.47922   0.75412   0.00000  Uiso   1.00
C23    C     0.26901   0.44211   0.67606   0.00000  Uiso   1.00
H24    H     0.96383   0.50872   0.59809   0.00000  Uiso   1.00
H25    H     0.83720   0.40135   0.64781   0.00000  Uiso   1.00
H26    H     0.95432   0.67961   0.60716   0.00000  Uiso   1.00
H27    H     0.08451   0.44150   0.51557   0.00000  Uiso   1.00
H28    H     0.72119   0.28826   0.74037   0.00000  Uiso   1.00
H29    H     0.96818   0.87499   0.65464   0.00000  Uiso   1.00
H30    H     0.24271   0.37290   0.46151   0.00000  Uiso   1.00
H31    H     0.15191   0.55433   0.88650   0.00000  Uiso   1.00
H32    H     0.03559   0.44946   0.95205   0.00000  Uiso   1.00
H33    H     0.15271   0.72772   0.91139   0.00000  Uiso   1.00
H34    H     0.28290   0.48961   0.81981   0.00000  Uiso   1.00
H35    H     0.88221   0.32731   0.98730   0.00000  Uiso   1.00
H36    H     0.12920   0.91404   0.90156   0.00000  Uiso   1.00
H37    H     0.40373   0.41195   0.70844   0.00000  Uiso   1.00
O38    O     0.72178   0.23800   0.90176   0.00000  Uiso   1.00
O39    O     0.04583   0.00776   0.78927   0.00000  Uiso   1.00
O40    O     0.40601   0.34903   0.53589   0.00000  Uiso   1.00
N41    N     0.77506   0.31183   0.78948   0.00000  Uiso   1.00
N42    N     0.00597   0.86038   0.70933   0.00000  Uiso   1.00
N43    N     0.26264   0.39099   0.52877   0.00000  Uiso   1.00
N44    N     0.86170   0.33284   0.92236   0.00000  Uiso   1.00
N45    N     0.09261   0.88139   0.84221   0.00000  Uiso   1.00
N46    N     0.34928   0.41200   0.66164   0.00000  Uiso   1.00
C47    C     0.66398   0.00669   0.51907   0.00000  Uiso   1.00
C48    C     0.73112   0.96410   0.46718   0.00000  Uiso   1.00
C49    C     0.71341   0.88006   0.41184   0.00000  Uiso   1.00
C50    C     0.78384   0.85324   0.37037   0.00000  Uiso   1.00
C51    C     0.87517   0.77868   0.28778   0.00000  Uiso   1.00
C52    C     0.70902   0.02753   0.61818   0.00000  Uiso   1.00
C53    C     0.67271   0.99682   0.68980   0.00000  Uiso   1.00
C54    C     0.72453   0.02340   0.77543   0.00000  Uiso   1.00
C55    C     0.78151   0.04737   0.92729   0.00000  Uiso   1.00
C56    C     0.65912   0.09822   0.48881   0.00000  Uiso   1.00
C57    C     0.58084   0.12696   0.45168   0.00000  Uiso   1.00
C58    C     0.59065   0.21307   0.42842   0.00000  Uiso   1.00
C59    C     0.57015   0.34679   0.37941   0.00000  Uiso   1.00
C60    C     0.82057   0.10852   0.54380   0.00000  Uiso   1.00
C61    C     0.81618   0.01941   0.48062   0.00000  Uiso   1.00
C62    C     0.88666   0.99272   0.43921   0.00000  Uiso   1.00
C63    C     0.86905   0.90865   0.38382   0.00000  Uiso   1.00
C64    C     0.79407   0.08283   0.63161   0.00000  Uiso   1.00
C65    C     0.84596   0.10948   0.71716   0.00000  Uiso   1.00
C66    C     0.80974   0.07881   0.78889   0.00000  Uiso   1.00
C67    C     0.74417   0.15353   0.50224   0.00000  Uiso   1.00
C68    C     0.75410   0.23962   0.47904   0.00000  Uiso   1.00
C69    C     0.67586   0.26848   0.44188   0.00000  Uiso   1.00
H70    H     0.59776   0.96363   0.50862   0.00000  Uiso   1.00
H71    H     0.64758   0.83727   0.40147   0.00000  Uiso   1.00
H72    H     0.60688   0.95402   0.67938   0.00000  Uiso   1.00
H73    H     0.51503   0.08414   0.44130   0.00000  Uiso   1.00
H74    H     0.74032   0.72156   0.28863   0.00000  Uiso   1.00
H75    H     0.65450   0.96776   0.87463   0.00000  Uiso   1.00
H76    H     0.46082   0.24214   0.37258   0.00000  Uiso   1.00
H77    H     0.88680   0.15158   0.55426   0.00000  Uiso   1.00
H78    H     0.95248   0.03553   0.44961   0.00000  Uiso   1.00
H79    H     0.91178   0.15228   0.72753   0.00000  Uiso   1.00
H80    H     0.81993   0.28240   0.48944   0.00000  Uiso   1.00
H81    H     0.98779   0.88247   0.32771   0.00000  Uiso   1.00
H82    H     0.90197   0.12867   0.91371   0.00000  Uiso   1.00
H83    H     0.70829   0.40305   0.41166   0.00000  Uiso   1.00
O84    O     0.90206   0.72227   0.23853   0.00000  Uiso   1.00
O85    O     0.78945   0.04529   0.00734   0.00000  Uiso   1.00
O86    O     0.53535   0.40526   0.34866   0.00000  Uiso   1.00
N87    N     0.78955   0.77536   0.31218   0.00000  Uiso   1.00
N88    N     0.70931   0.00553   0.86005   0.00000  Uiso   1.00
N89    N     0.52824   0.26206   0.39070   0.00000  Uiso   1.00
N90    N     0.92271   0.86195   0.33320   0.00000  Uiso   1.00
N91    N     0.84247   0.09212   0.88107   0.00000  Uiso   1.00
N92    N     0.66140   0.34865   0.41172   0.00000  Uiso   1.00
C93    C     0.51930   0.66413   0.00661   0.00000  Uiso   1.00
C94    C     0.46728   0.73118   0.96397   0.00000  Uiso   1.00
C95    C     0.41181   0.71352   0.87996   0.00000  Uiso   1.00
C96    C     0.37022   0.78385   0.85308   0.00000  Uiso   1.00
C97    C     0.28744   0.87506   0.77845   0.00000  Uiso   1.00
C98    C     0.61862   0.70915   0.02747   0.00000  Uiso   1.00
C99    C     0.69040   0.67296   0.99687   0.00000  Uiso   1.00
C100   C     0.77622   0.72474   0.02346   0.00000  Uiso   1.00
C101   C     0.92841   0.78172   0.04747   0.00000  Uiso   1.00
C102   C     0.48899   0.65920   0.09805   0.00000  Uiso   1.00
C103   C     0.45179   0.58099   0.12680   0.00000  Uiso   1.00
C104   C     0.42850   0.59071   0.21282   0.00000  Uiso   1.00
C105   C     0.37941   0.57012   0.34640   0.00000  Uiso   1.00
C106   C     0.54409   0.82046   0.10825   0.00000  Uiso   1.00
C107   C     0.48075   0.81609   0.01918   0.00000  Uiso   1.00
C108   C     0.43923   0.88647   0.99242   0.00000  Uiso   1.00
C109   C     0.38371   0.86891   0.90839   0.00000  Uiso   1.00
C110   C     0.63209   0.79406   0.08268   0.00000  Uiso   1.00
C111   C     0.71783   0.84591   0.10932   0.00000  Uiso   1.00
C112   C     0.78971   0.80980   0.07877   0.00000  Uiso   1.00
C113   C     0.50245   0.74411   0.15326   0.00000  Uiso   1.00
C114   C     0.47922   0.75395   0.23925   0.00000  Uiso   1.00
C115   C     0.44199   0.67578   0.26812   0.00000  Uiso   1.00
H116   H     0.50882   0.59803   0.96363   0.00000  Uiso   1.00
H117   H     0.40141   0.64780   0.83726   0.00000  Uiso   1.00
H118   H     0.67996   0.60724   0.95416   0.00000  Uiso   1.00
H119   H     0.44138   0.51530   0.08406   0.00000  Uiso   1.00
H120   H     0.28829   0.74043   0.72148   0.00000  Uiso   1.00
H121   H     0.87563   0.65490   0.96799   0.00000  Uiso   1.00
H122   H     0.37255   0.46101   0.24192   0.00000  Uiso   1.00
H123   H     0.55458   0.88657   0.15124   0.00000  Uiso   1.00
H124   H     0.44967   0.95217   0.03515   0.00000  Uiso   1.00
H125   H     0.72822   0.91161   0.15205   0.00000  Uiso   1.00
H126   H     0.48965   0.81967   0.28195   0.00000  Uiso   1.00
H127   H     0.32746   0.98747   0.88209   0.00000  Uiso   1.00
H128   H     0.91481   0.90194   0.12861   0.00000  Uiso   1.00
H129   H     0.41173   0.70805   0.40254   0.00000  Uiso   1.00
O130   O     0.23807   0.90191   0.72203   0.00000  Uiso   1.00
O131   O     0.00863   0.78969   0.04545   0.00000  Uiso   1.00
O132   O     0.34860   0.53531   0.40483   0.00000  Uiso   1.00
N133   N     0.31189   0.78956   0.77522   0.00000  Uiso   1.00
N134   N     0.86102   0.70961   0.00568   0.00000  Uiso   1.00
N135   N     0.39070   0.52833   0.26179   0.00000  Uiso   1.00
N136   N     0.33297   0.92249   0.86165   0.00000  Uiso   1.00
N137   N     0.88210   0.84254   0.09211   0.00000  Uiso   1.00
N138   N     0.41178   0.66126   0.34822   0.00000  Uiso   1.00
C139   C     0.99308   0.48083   0.33583   0.00000  Uiso   1.00
C140   C     0.03580   0.53285   0.26883   0.00000  Uiso   1.00
C141   C     0.11999   0.58829   0.28650   0.00000  Uiso   1.00
C142   C     0.14691   0.62987   0.21621   0.00000  Uiso   1.00
C143   C     0.22168   0.71265   0.12507   0.00000  Uiso   1.00
C144   C     0.97217   0.38166   0.29091   0.00000  Uiso   1.00
C145   C     0.00286   0.30998   0.32716   0.00000  Uiso   1.00
C146   C     0.97620   0.22430   0.27546   0.00000  Uiso   1.00
C147   C     0.95214   0.07234   0.21863   0.00000  Uiso   1.00
C148   C     0.90144   0.51104   0.34067   0.00000  Uiso   1.00
C149   C     0.87264   0.54812   0.41876   0.00000  Uiso   1.00
C150   C     0.78643   0.57134   0.40896   0.00000  Uiso   1.00
C151   C     0.65255   0.62027   0.42940   0.00000  Uiso   1.00
C152   C     0.89119   0.45612   0.17958   0.00000  Uiso   1.00
C153   C     0.98045   0.51943   0.18396   0.00000  Uiso   1.00
C154   C     0.00725   0.56094   0.11362   0.00000  Uiso   1.00
C155   C     0.09147   0.61643   0.13119   0.00000  Uiso   1.00
C156   C     0.91683   0.36824   0.20604   0.00000  Uiso   1.00
C157   C     0.89012   0.28264   0.15428   0.00000  Uiso   1.00
C158   C     0.92076   0.21085   0.19044   0.00000  Uiso   1.00
C159   C     0.84610   0.49762   0.25580   0.00000  Uiso   1.00
C160   C     0.75991   0.52078   0.24588   0.00000  Uiso   1.00
C161   C     0.73098   0.55789   0.32394   0.00000  Uiso   1.00
H162   H     0.03617   0.49128   0.40190   0.00000  Uiso   1.00
H163   H     0.16280   0.59865   0.35219   0.00000  Uiso   1.00
H164   H     0.04568   0.32039   0.39284   0.00000  Uiso   1.00
H165   H     0.91549   0.55850   0.48443   0.00000  Uiso   1.00
H166   H     0.27881   0.71174   0.25963   0.00000  Uiso   1.00
H167   H     0.03182   0.12501   0.34536   0.00000  Uiso   1.00
H168   H     0.75729   0.62710   0.53849   0.00000  Uiso   1.00
H169   H     0.84809   0.44567   0.11350   0.00000  Uiso   1.00
H170   H     0.96441   0.55054   0.04795   0.00000  Uiso   1.00
H171   H     0.84729   0.27228   0.08861   0.00000  Uiso   1.00
H172   H     0.71710   0.51039   0.18019   0.00000  Uiso   1.00
H173   H     0.11779   0.67269   0.01270   0.00000  Uiso   1.00
H174   H     0.87080   0.08596   0.09844   0.00000  Uiso   1.00
H175   H     0.59627   0.58805   0.29156   0.00000  Uiso   1.00
O176   O     0.27822   0.76200   0.09824   0.00000  Uiso   1.00
O177   O     0.95417   0.99224   0.21073   0.00000  Uiso   1.00
O178   O     0.59399   0.65097   0.46411   0.00000  Uiso   1.00
N179   N     0.22494   0.68817   0.21052   0.00000  Uiso   1.00
N180   N     0.99403   0.13962   0.29066   0.00000  Uiso   1.00
N181   N     0.73736   0.60901   0.47123   0.00000  Uiso   1.00
N182   N     0.13830   0.66716   0.07764   0.00000  Uiso   1.00
N183   N     0.90739   0.11861   0.15779   0.00000  Uiso   1.00
N184   N     0.65072   0.58800   0.33836   0.00000  Uiso   1.00
C185   C     0.33602   0.99331   0.48093   0.00000  Uiso   1.00
C186   C     0.26888   0.03590   0.53282   0.00000  Uiso   1.00
C187   C     0.28659   0.11994   0.58816   0.00000  Uiso   1.00
C188   C     0.21616   0.14676   0.62963   0.00000  Uiso   1.00
C189   C     0.12483   0.22132   0.71222   0.00000  Uiso   1.00
C190   C     0.29098   0.97247   0.38182   0.00000  Uiso   1.00
C191   C     0.32729   0.00318   0.31020   0.00000  Uiso   1.00
C192   C     0.27547   0.97660   0.22457   0.00000  Uiso   1.00
C193   C     0.21849   0.95263   0.07271   0.00000  Uiso   1.00
C194   C     0.34088   0.90178   0.51119   0.00000  Uiso   1.00
C195   C     0.41916   0.87304   0.54832   0.00000  Uiso   1.00
C196   C     0.40935   0.78693   0.57158   0.00000  Uiso   1.00
C197   C     0.42985   0.65321   0.62059   0.00000  Uiso   1.00
C198   C     0.17943   0.89148   0.45620   0.00000  Uiso   1.00
C199   C     0.18382   0.98059   0.51938   0.00000  Uiso   1.00
C200   C     0.11334   0.00728   0.56079   0.00000  Uiso   1.00
C201   C     0.13095   0.09135   0.61618   0.00000  Uiso   1.00
C202   C     0.20593   0.91717   0.36839   0.00000  Uiso   1.00
C203   C     0.15404   0.89052   0.28284   0.00000  Uiso   1.00
C204   C     0.19026   0.92119   0.21111   0.00000  Uiso   1.00
C205   C     0.25583   0.84647   0.49776   0.00000  Uiso   1.00
C206   C     0.24590   0.76038   0.52096   0.00000  Uiso   1.00
C207   C     0.32414   0.73152   0.55812   0.00000  Uiso   1.00
H208   H     0.40224   0.03637   0.49138   0.00000  Uiso   1.00
H209   H     0.35242   0.16273   0.59853   0.00000  Uiso   1.00
H210   H     0.39312   0.04598   0.32062   0.00000  Uiso   1.00
H211   H     0.48497   0.91586   0.55870   0.00000  Uiso   1.00
H212   H     0.25968   0.27844   0.71137   0.00000  Uiso   1.00
H213   H     0.34550   0.03224   0.12537   0.00000  Uiso   1.00
H214   H     0.53918   0.75786   0.62742   0.00000  Uiso   1.00
H215   H     0.11320   0.84842   0.44574   0.00000  Uiso   1.00
H216   H     0.04752   0.96447   0.55039   0.00000  Uiso   1.00
H217   H     0.08822   0.84772   0.27247   0.00000  Uiso   1.00
H218   H     0.18007   0.71760   0.51055   0.00000  Uiso   1.00
H219   H     0.01221   0.11753   0.67229   0.00000  Uiso   1.00
H220   H     0.09803   0.87133   0.08629   0.00000  Uiso   1.00
H221   H     0.29171   0.59695   0.58834   0.00000  Uiso   1.00
O222   O     0.09794   0.27773   0.76147   0.00000  Uiso   1.00
O223   O     0.21055   0.95471   0.99266   0.00000  Uiso   1.00
O224   O     0.46465   0.59474   0.65134   0.00000  Uiso   1.00
N225   N     0.21045   0.22464   0.68782   0.00000  Uiso   1.00
N226   N     0.29069   0.99447   0.13995   0.00000  Uiso   1.00
N227   N     0.47176   0.73794   0.60930   0.00000  Uiso   1.00
N228   N     0.07729   0.13805   0.66680   0.00000  Uiso   1.00
N229   N     0.15753   0.90788   0.11893   0.00000  Uiso   1.00
N230   N     0.33860   0.65135   0.58828   0.00000  Uiso   1.00
C231   C     0.48070   0.33587   0.99339   0.00000  Uiso   1.00
C232   C     0.53272   0.26882   0.03603   0.00000  Uiso   1.00
C233   C     0.58819   0.28648   0.12003   0.00000  Uiso   1.00
C234   C     0.62978   0.21615   0.14692   0.00000  Uiso   1.00
C235   C     0.71256   0.12494   0.22155   0.00000  Uiso   1.00
C236   C     0.38138   0.29085   0.97253   0.00000  Uiso   1.00
C237   C     0.30960   0.32704   0.00313   0.00000  Uiso   1.00
C238   C     0.22378   0.27526   0.97654   0.00000  Uiso   1.00
C239   C     0.07159   0.21828   0.95253   0.00000  Uiso   1.00
C240   C     0.51101   0.34080   0.90195   0.00000  Uiso   1.00
C241   C     0.54821   0.41901   0.87320   0.00000  Uiso   1.00
C242   C     0.57150   0.40929   0.78718   0.00000  Uiso   1.00
C243   C     0.62059   0.42988   0.65360   0.00000  Uiso   1.00
C244   C     0.45591   0.17954   0.89175   0.00000  Uiso   1.00
C245   C     0.51925   0.18391   0.98082   0.00000  Uiso   1.00
C246   C     0.56077   0.11353   0.00758   0.00000  Uiso   1.00
C247   C     0.61629   0.13109   0.09161   0.00000  Uiso   1.00
C248   C     0.36791   0.20594   0.91732   0.00000  Uiso   1.00
C249   C     0.28217   0.15409   0.89068   0.00000  Uiso   1.00
C250   C     0.21029   0.19020   0.92123   0.00000  Uiso   1.00
C251   C     0.49755   0.25589   0.84674   0.00000  Uiso   1.00
C252   C     0.52078   0.24605   0.76075   0.00000  Uiso   1.00
C253   C     0.55801   0.32422   0.73188   0.00000  Uiso   1.00
H254   H     0.49118   0.40197   0.03637   0.00000  Uiso   1.00
H255   H     0.59859   0.35220   0.16274   0.00000  Uiso   1.00
H256   H     0.32004   0.39276   0.04584   0.00000  Uiso   1.00
H257   H     0.55862   0.48470   0.91594   0.00000  Uiso   1.00
H258   H     0.71171   0.25957   0.27852   0.00000  Uiso   1.00
H259   H     0.12437   0.34510   0.03201   0.00000  Uiso   1.00
H260   H     0.62745   0.53899   0.75808   0.00000  Uiso   1.00
H261   H     0.44542   0.11343   0.84876   0.00000  Uiso   1.00
H262   H     0.55033   0.04783   0.96485   0.00000  Uiso   1.00
H263   H     0.27178   0.08839   0.84795   0.00000  Uiso   1.00
H264   H     0.51035   0.18033   0.71805   0.00000  Uiso   1.00
H265   H     0.67254   0.01253   0.11791   0.00000  Uiso   1.00
H266   H     0.08519   0.09806   0.87139   0.00000  Uiso   1.00
H267   H     0.58827   0.29195   0.59746   0.00000  Uiso   1.00
O268   O     0.76193   0.09809   0.27797   0.00000  Uiso   1.00
O269   O     0.99137   0.21031   0.95455   0.00000  Uiso   1.00
O270   O     0.65140   0.46469   0.59516   0.00000  Uiso   1.00
N271   N     0.68811   0.21044   0.22478   0.00000  Uiso   1.00
N272   N     0.13898   0.29039   0.99432   0.00000  Uiso   1.00
N273   N     0.60930   0.47167   0.73821   0.00000  Uiso   1.00
N274   N     0.66703   0.07751   0.13835   0.00000  Uiso   1.00
N275   N     0.11790   0.15746   0.90789   0.00000  Uiso   1.00
N276   N     0.58822   0.33874   0.65178   0.00000  Uiso   1.00
