data_job_04779
_audit_creation_date              2018-12-19
_audit_creation_method            'Materials Studio'
_symmetry_space_group_name_H-M    'P1'
_symmetry_Int_Tables_number       1
_symmetry_cell_setting            triclinic
loop_
_symmetry_equiv_pos_as_xyz
  x,y,z
_cell_length_a                    28.3588
_cell_length_b                    15.4109
_cell_length_c                    12.4469
_cell_angle_alpha                 90.0000
_cell_angle_beta                  90.0000
_cell_angle_gamma                 90.0000
loop_
_atom_site_label
_atom_site_type_symbol
_atom_site_fract_x
_atom_site_fract_y
_atom_site_fract_z
_atom_site_U_iso_or_equiv
_atom_site_adp_type
_atom_site_occupancy
C1     C     0.62886   0.61093   0.52877   0.00000  Uiso   1.00
C2     C     0.63981   0.53902   0.44840   0.00000  Uiso   1.00
C3     C     0.66546   0.54857   0.35419   0.00000  Uiso   1.00
C4     C     0.67159   0.47491   0.29150   0.00000  Uiso   1.00
C5     C     0.69145   0.37547   0.16203   0.00000  Uiso   1.00
C6     C     0.57531   0.61297   0.53967   0.00000  Uiso   1.00
C7     C     0.54674   0.68471   0.52222   0.00000  Uiso   1.00
C8     C     0.49857   0.67330   0.53639   0.00000  Uiso   1.00
C9     C     0.41829   0.68869   0.54871   0.00000  Uiso   1.00
C10    C     0.64766   0.57951   0.63676   0.00000  Uiso   1.00
C11    C     0.67990   0.62313   0.70095   0.00000  Uiso   1.00
C12    C     0.69263   0.58356   0.79688   0.00000  Uiso   1.00
C13    C     0.72468   0.54700   0.95993   0.00000  Uiso   1.00
C14    C     0.59414   0.46313   0.58499   0.00000  Uiso   1.00
C15    C     0.62095   0.45874   0.47894   0.00000  Uiso   1.00
C16    C     0.62705   0.38504   0.41638   0.00000  Uiso   1.00
C17    C     0.65270   0.39448   0.32209   0.00000  Uiso   1.00
C18    C     0.55645   0.53269   0.57021   0.00000  Uiso   1.00
C19    C     0.50832   0.52118   0.58442   0.00000  Uiso   1.00
C20    C     0.47967   0.59287   0.56698   0.00000  Uiso   1.00
C21    C     0.62880   0.49923   0.66730   0.00000  Uiso   1.00
C22    C     0.64148   0.45959   0.76315   0.00000  Uiso   1.00
C23    C     0.67374   0.50313   0.82747   0.00000  Uiso   1.00
H24    H     0.64354   0.67343   0.50500   0.00000  Uiso   1.00
H25    H     0.68005   0.61071   0.33058   0.00000  Uiso   1.00
H26    H     0.56134   0.74683   0.49860   0.00000  Uiso   1.00
H27    H     0.69449   0.68525   0.67730   0.00000  Uiso   1.00
H28    H     0.71219   0.50577   0.15064   0.00000  Uiso   1.00
H29    H     0.46189   0.79279   0.50496   0.00000  Uiso   1.00
H30    H     0.74265   0.66295   0.88179   0.00000  Uiso   1.00
H31    H     0.57945   0.40062   0.60877   0.00000  Uiso   1.00
H32    H     0.61245   0.32292   0.44003   0.00000  Uiso   1.00
H33    H     0.49374   0.45904   0.60805   0.00000  Uiso   1.00
H34    H     0.62688   0.39747   0.78675   0.00000  Uiso   1.00
H35    H     0.65732   0.27219   0.23948   0.00000  Uiso   1.00
H36    H     0.40702   0.55921   0.59381   0.00000  Uiso   1.00
H37    H     0.68778   0.42937   0.97063   0.00000  Uiso   1.00
O38    O     0.70761   0.34280   0.08218   0.00000  Uiso   1.00
O39    O     0.37922   0.71936   0.54705   0.00000  Uiso   1.00
O40    O     0.74757   0.54901   0.04143   0.00000  Uiso   1.00
N41    N     0.69476   0.46146   0.19472   0.00000  Uiso   1.00
N42    N     0.46074   0.72980   0.52597   0.00000  Uiso   1.00
N43    N     0.72322   0.60842   0.87828   0.00000  Uiso   1.00
N44    N     0.66524   0.33577   0.24252   0.00000  Uiso   1.00
N45    N     0.43122   0.60411   0.57377   0.00000  Uiso   1.00
N46    N     0.69369   0.48273   0.92609   0.00000  Uiso   1.00
C47    C     0.35094   0.30028   0.27835   0.00000  Uiso   1.00
C48    C     0.34039   0.37162   0.35978   0.00000  Uiso   1.00
C49    C     0.31543   0.36129   0.45482   0.00000  Uiso   1.00
C50    C     0.30958   0.43452   0.51841   0.00000  Uiso   1.00
C51    C     0.29041   0.53302   0.64951   0.00000  Uiso   1.00
C52    C     0.40441   0.29873   0.26547   0.00000  Uiso   1.00
C53    C     0.43327   0.22712   0.28121   0.00000  Uiso   1.00
C54    C     0.48131   0.23899   0.26539   0.00000  Uiso   1.00
C55    C     0.56152   0.22431   0.25001   0.00000  Uiso   1.00
C56    C     0.33132   0.33220   0.17135   0.00000  Uiso   1.00
C57    C     0.29873   0.28873   0.10793   0.00000  Uiso   1.00
C58    C     0.28523   0.32878   0.01286   0.00000  Uiso   1.00
C59    C     0.25196   0.36607   0.85134   0.00000  Uiso   1.00
C60    C     0.38493   0.44869   0.22226   0.00000  Uiso   1.00
C61    C     0.35886   0.45223   0.32931   0.00000  Uiso   1.00
C62    C     0.35304   0.52550   0.39277   0.00000  Uiso   1.00
C63    C     0.32807   0.51528   0.48789   0.00000  Uiso   1.00
C64    C     0.42287   0.37934   0.23501   0.00000  Uiso   1.00
C65    C     0.47088   0.39132   0.21916   0.00000  Uiso   1.00
C66    C     0.49980   0.31975   0.23488   0.00000  Uiso   1.00
C67    C     0.34978   0.41282   0.14089   0.00000  Uiso   1.00
C68    C     0.33633   0.45294   0.04589   0.00000  Uiso   1.00
C69    C     0.30373   0.40953   0.98234   0.00000  Uiso   1.00
H70    H     0.33657   0.23752   0.30206   0.00000  Uiso   1.00
H71    H     0.30115   0.29889   0.47837   0.00000  Uiso   1.00
H72    H     0.41897   0.16474   0.30478   0.00000  Uiso   1.00
H73    H     0.28445   0.22635   0.13153   0.00000  Uiso   1.00
H74    H     0.27004   0.40248   0.66043   0.00000  Uiso   1.00
H75    H     0.51847   0.11960   0.29436   0.00000  Uiso   1.00
H76    H     0.23481   0.24951   0.92904   0.00000  Uiso   1.00
H77    H     0.39931   0.51146   0.19854   0.00000  Uiso   1.00
H78    H     0.36733   0.58787   0.36917   0.00000  Uiso   1.00
H79    H     0.48515   0.45371   0.19558   0.00000  Uiso   1.00
H80    H     0.35063   0.51532   0.02234   0.00000  Uiso   1.00
H81    H     0.32375   0.63702   0.57181   0.00000  Uiso   1.00
H82    H     0.57218   0.35414   0.20573   0.00000  Uiso   1.00
H83    H     0.28852   0.48405   0.84041   0.00000  Uiso   1.00
O84    O     0.27474   0.56507   0.73025   0.00000  Uiso   1.00
O85    O     0.60067   0.19394   0.24996   0.00000  Uiso   1.00
O86    O     0.22851   0.36438   0.77067   0.00000  Uiso   1.00
N87    N     0.28706   0.44720   0.61615   0.00000  Uiso   1.00
N88    N     0.51933   0.18273   0.27391   0.00000  Uiso   1.00
N89    N     0.25414   0.30417   0.93235   0.00000  Uiso   1.00
N90    N     0.31596   0.57341   0.56846   0.00000  Uiso   1.00
N91    N     0.54823   0.30893   0.22622   0.00000  Uiso   1.00
N92    N     0.28304   0.43037   0.88466   0.00000  Uiso   1.00
C93    C     0.87114   0.38907   0.02877   0.00000  Uiso   1.00
C94    C     0.86019   0.46098   0.94840   0.00000  Uiso   1.00
C95    C     0.83454   0.45143   0.85419   0.00000  Uiso   1.00
C96    C     0.82841   0.52509   0.79150   0.00000  Uiso   1.00
C97    C     0.80855   0.62453   0.66203   0.00000  Uiso   1.00
C98    C     0.92469   0.38703   0.03967   0.00000  Uiso   1.00
C99    C     0.95326   0.31529   0.02222   0.00000  Uiso   1.00
C100   C     0.00143   0.32670   0.03639   0.00000  Uiso   1.00
C101   C     0.08171   0.31131   0.04871   0.00000  Uiso   1.00
C102   C     0.85234   0.42049   0.13676   0.00000  Uiso   1.00
C103   C     0.82010   0.37687   0.20095   0.00000  Uiso   1.00
C104   C     0.80737   0.41644   0.29688   0.00000  Uiso   1.00
C105   C     0.77532   0.45300   0.45993   0.00000  Uiso   1.00
C106   C     0.90586   0.53687   0.08499   0.00000  Uiso   1.00
C107   C     0.87905   0.54126   0.97894   0.00000  Uiso   1.00
C108   C     0.87295   0.61496   0.91638   0.00000  Uiso   1.00
C109   C     0.84730   0.60552   0.82209   0.00000  Uiso   1.00
C110   C     0.94355   0.46731   0.07021   0.00000  Uiso   1.00
C111   C     0.99168   0.47882   0.08442   0.00000  Uiso   1.00
C112   C     0.02033   0.40713   0.06698   0.00000  Uiso   1.00
C113   C     0.87120   0.50077   0.16730   0.00000  Uiso   1.00
C114   C     0.85852   0.54041   0.26315   0.00000  Uiso   1.00
C115   C     0.82626   0.49687   0.32747   0.00000  Uiso   1.00
H116   H     0.85646   0.32657   0.00500   0.00000  Uiso   1.00
H117   H     0.81995   0.38929   0.83058   0.00000  Uiso   1.00
H118   H     0.93866   0.25317   0.99860   0.00000  Uiso   1.00
H119   H     0.80551   0.31475   0.17730   0.00000  Uiso   1.00
H120   H     0.78781   0.49423   0.65064   0.00000  Uiso   1.00
H121   H     0.03811   0.20721   0.00496   0.00000  Uiso   1.00
H122   H     0.75735   0.33705   0.38179   0.00000  Uiso   1.00
H123   H     0.92055   0.59938   0.10877   0.00000  Uiso   1.00
H124   H     0.88755   0.67708   0.94003   0.00000  Uiso   1.00
H125   H     0.00626   0.54096   0.10805   0.00000  Uiso   1.00
H126   H     0.87312   0.60253   0.28675   0.00000  Uiso   1.00
H127   H     0.84268   0.72781   0.73948   0.00000  Uiso   1.00
H128   H     0.09298   0.44079   0.09381   0.00000  Uiso   1.00
H129   H     0.81222   0.57063   0.47063   0.00000  Uiso   1.00
O130   O     0.79239   0.65720   0.58218   0.00000  Uiso   1.00
O131   O     0.12078   0.28064   0.04705   0.00000  Uiso   1.00
O132   O     0.75243   0.45099   0.54143   0.00000  Uiso   1.00
N133   N     0.80524   0.53854   0.69472   0.00000  Uiso   1.00
N134   N     0.03926   0.27020   0.02597   0.00000  Uiso   1.00
N135   N     0.77678   0.39158   0.37828   0.00000  Uiso   1.00
N136   N     0.83476   0.66423   0.74252   0.00000  Uiso   1.00
N137   N     0.06878   0.39589   0.07377   0.00000  Uiso   1.00
N138   N     0.80631   0.51727   0.42609   0.00000  Uiso   1.00
C139   C     0.14906   0.69972   0.77835   0.00000  Uiso   1.00
C140   C     0.15961   0.62838   0.85978   0.00000  Uiso   1.00
C141   C     0.18457   0.63871   0.95482   0.00000  Uiso   1.00
C142   C     0.19042   0.56548   0.01841   0.00000  Uiso   1.00
C143   C     0.20959   0.46698   0.14951   0.00000  Uiso   1.00
C144   C     0.09559   0.70127   0.76547   0.00000  Uiso   1.00
C145   C     0.06673   0.77288   0.78121   0.00000  Uiso   1.00
C146   C     0.01869   0.76101   0.76539   0.00000  Uiso   1.00
C147   C     0.93848   0.77569   0.75001   0.00000  Uiso   1.00
C148   C     0.16868   0.66780   0.67135   0.00000  Uiso   1.00
C149   C     0.20127   0.71127   0.60793   0.00000  Uiso   1.00
C150   C     0.21477   0.67122   0.51286   0.00000  Uiso   1.00
C151   C     0.24804   0.63393   0.35134   0.00000  Uiso   1.00
C152   C     0.11507   0.55131   0.72226   0.00000  Uiso   1.00
C153   C     0.14114   0.54777   0.82931   0.00000  Uiso   1.00
C154   C     0.14696   0.47450   0.89277   0.00000  Uiso   1.00
C155   C     0.17193   0.48472   0.98789   0.00000  Uiso   1.00
C156   C     0.07713   0.62066   0.73501   0.00000  Uiso   1.00
C157   C     0.02912   0.60868   0.71916   0.00000  Uiso   1.00
C158   C     0.00020   0.68025   0.73488   0.00000  Uiso   1.00
C159   C     0.15022   0.58718   0.64089   0.00000  Uiso   1.00
C160   C     0.16367   0.54706   0.54589   0.00000  Uiso   1.00
C161   C     0.19627   0.59047   0.48234   0.00000  Uiso   1.00
H162   H     0.16343   0.76248   0.80206   0.00000  Uiso   1.00
H163   H     0.19885   0.70111   0.97837   0.00000  Uiso   1.00
H164   H     0.08103   0.83526   0.80478   0.00000  Uiso   1.00
H165   H     0.21555   0.77365   0.63153   0.00000  Uiso   1.00
H166   H     0.22996   0.59752   0.16043   0.00000  Uiso   1.00
H167   H     0.98153   0.88040   0.79436   0.00000  Uiso   1.00
H168   H     0.26519   0.75049   0.42904   0.00000  Uiso   1.00
H169   H     0.10069   0.48854   0.69854   0.00000  Uiso   1.00
H170   H     0.13267   0.41213   0.86917   0.00000  Uiso   1.00
H171   H     0.01485   0.54629   0.69558   0.00000  Uiso   1.00
H172   H     0.14937   0.48468   0.52234   0.00000  Uiso   1.00
H173   H     0.17625   0.36298   0.07181   0.00000  Uiso   1.00
H174   H     0.92782   0.64586   0.70573   0.00000  Uiso   1.00
H175   H     0.21148   0.51595   0.34041   0.00000  Uiso   1.00
O176   O     0.22526   0.43493   0.23025   0.00000  Uiso   1.00
O177   O     0.89933   0.80606   0.74996   0.00000  Uiso   1.00
O178   O     0.27149   0.63562   0.27067   0.00000  Uiso   1.00
N179   N     0.21294   0.55280   0.11615   0.00000  Uiso   1.00
N180   N     0.98067   0.81727   0.77391   0.00000  Uiso   1.00
N181   N     0.24586   0.69583   0.43235   0.00000  Uiso   1.00
N182   N     0.18404   0.42659   0.06846   0.00000  Uiso   1.00
N183   N     0.95177   0.69107   0.72622   0.00000  Uiso   1.00
N184   N     0.21696   0.56963   0.38466   0.00000  Uiso   1.00
C185   C     0.37114   0.11093   0.97123   0.00000  Uiso   1.00
C186   C     0.36019   0.03902   0.05160   0.00000  Uiso   1.00
C187   C     0.33454   0.04857   0.14581   0.00000  Uiso   1.00
C188   C     0.32841   0.97491   0.20850   0.00000  Uiso   1.00
C189   C     0.30855   0.87547   0.33797   0.00000  Uiso   1.00
C190   C     0.42469   0.11297   0.96033   0.00000  Uiso   1.00
C191   C     0.45326   0.18471   0.97778   0.00000  Uiso   1.00
C192   C     0.50143   0.17330   0.96361   0.00000  Uiso   1.00
C193   C     0.58171   0.18869   0.95129   0.00000  Uiso   1.00
C194   C     0.35234   0.07951   0.86324   0.00000  Uiso   1.00
C195   C     0.32010   0.12313   0.79905   0.00000  Uiso   1.00
C196   C     0.30737   0.08356   0.70312   0.00000  Uiso   1.00
C197   C     0.27532   0.04700   0.54007   0.00000  Uiso   1.00
C198   C     0.40586   0.96313   0.91501   0.00000  Uiso   1.00
C199   C     0.37905   0.95874   0.02106   0.00000  Uiso   1.00
C200   C     0.37295   0.88504   0.08362   0.00000  Uiso   1.00
C201   C     0.34730   0.89448   0.17791   0.00000  Uiso   1.00
C202   C     0.44355   0.03269   0.92979   0.00000  Uiso   1.00
C203   C     0.49168   0.02118   0.91558   0.00000  Uiso   1.00
C204   C     0.52033   0.09287   0.93302   0.00000  Uiso   1.00
C205   C     0.37120   0.99923   0.83270   0.00000  Uiso   1.00
C206   C     0.35852   0.95959   0.73685   0.00000  Uiso   1.00
C207   C     0.32626   0.00313   0.67253   0.00000  Uiso   1.00
H208   H     0.35646   0.17343   0.99500   0.00000  Uiso   1.00
H209   H     0.31995   0.11071   0.16942   0.00000  Uiso   1.00
H210   H     0.43866   0.24683   0.00140   0.00000  Uiso   1.00
H211   H     0.30551   0.18525   0.82270   0.00000  Uiso   1.00
H212   H     0.28781   0.00577   0.34936   0.00000  Uiso   1.00
H213   H     0.53811   0.29279   0.99504   0.00000  Uiso   1.00
H214   H     0.25735   0.16295   0.61821   0.00000  Uiso   1.00
H215   H     0.42055   0.90062   0.89123   0.00000  Uiso   1.00
H216   H     0.38755   0.82292   0.05997   0.00000  Uiso   1.00
H217   H     0.50626   0.95904   0.89195   0.00000  Uiso   1.00
H218   H     0.37312   0.89747   0.71325   0.00000  Uiso   1.00
H219   H     0.34268   0.77219   0.26052   0.00000  Uiso   1.00
H220   H     0.59298   0.05921   0.90619   0.00000  Uiso   1.00
H221   H     0.31222   0.92937   0.52937   0.00000  Uiso   1.00
O222   O     0.29239   0.84280   0.41782   0.00000  Uiso   1.00
O223   O     0.62078   0.21936   0.95295   0.00000  Uiso   1.00
O224   O     0.25243   0.04901   0.45857   0.00000  Uiso   1.00
N225   N     0.30524   0.96146   0.30528   0.00000  Uiso   1.00
N226   N     0.53926   0.22980   0.97403   0.00000  Uiso   1.00
N227   N     0.27678   0.10842   0.62172   0.00000  Uiso   1.00
N228   N     0.33476   0.83577   0.25748   0.00000  Uiso   1.00
N229   N     0.56878   0.10411   0.92623   0.00000  Uiso   1.00
N230   N     0.30631   0.98273   0.57391   0.00000  Uiso   1.00
C231   C     0.64906   0.80028   0.22165   0.00000  Uiso   1.00
C232   C     0.65961   0.87162   0.14022   0.00000  Uiso   1.00
C233   C     0.68457   0.86129   0.04518   0.00000  Uiso   1.00
C234   C     0.69042   0.93452   0.98159   0.00000  Uiso   1.00
C235   C     0.70959   0.03302   0.85049   0.00000  Uiso   1.00
C236   C     0.59559   0.79873   0.23453   0.00000  Uiso   1.00
C237   C     0.56673   0.72712   0.21879   0.00000  Uiso   1.00
C238   C     0.51869   0.73899   0.23461   0.00000  Uiso   1.00
C239   C     0.43848   0.72431   0.24999   0.00000  Uiso   1.00
C240   C     0.66868   0.83220   0.32865   0.00000  Uiso   1.00
C241   C     0.70127   0.78873   0.39207   0.00000  Uiso   1.00
C242   C     0.71477   0.82878   0.48714   0.00000  Uiso   1.00
C243   C     0.74804   0.86607   0.64866   0.00000  Uiso   1.00
C244   C     0.61507   0.94869   0.27774   0.00000  Uiso   1.00
C245   C     0.64114   0.95223   0.17069   0.00000  Uiso   1.00
C246   C     0.64696   0.02550   0.10723   0.00000  Uiso   1.00
C247   C     0.67193   0.01528   0.01211   0.00000  Uiso   1.00
C248   C     0.57713   0.87934   0.26499   0.00000  Uiso   1.00
C249   C     0.52912   0.89132   0.28084   0.00000  Uiso   1.00
C250   C     0.50020   0.81975   0.26512   0.00000  Uiso   1.00
C251   C     0.65022   0.91282   0.35911   0.00000  Uiso   1.00
C252   C     0.66367   0.95294   0.45411   0.00000  Uiso   1.00
C253   C     0.69627   0.90953   0.51766   0.00000  Uiso   1.00
H254   H     0.66343   0.73752   0.19794   0.00000  Uiso   1.00
H255   H     0.69885   0.79889   0.02163   0.00000  Uiso   1.00
H256   H     0.58103   0.66474   0.19522   0.00000  Uiso   1.00
H257   H     0.71555   0.72635   0.36847   0.00000  Uiso   1.00
H258   H     0.72996   0.90248   0.83957   0.00000  Uiso   1.00
H259   H     0.48153   0.61960   0.20564   0.00000  Uiso   1.00
H260   H     0.76519   0.74951   0.57096   0.00000  Uiso   1.00
H261   H     0.60069   0.01146   0.30146   0.00000  Uiso   1.00
H262   H     0.63267   0.08787   0.13083   0.00000  Uiso   1.00
H263   H     0.51485   0.95371   0.30442   0.00000  Uiso   1.00
H264   H     0.64937   0.01532   0.47766   0.00000  Uiso   1.00
H265   H     0.67625   0.13702   0.92819   0.00000  Uiso   1.00
H266   H     0.42782   0.85414   0.29427   0.00000  Uiso   1.00
H267   H     0.71148   0.98405   0.65959   0.00000  Uiso   1.00
O268   O     0.72526   0.06507   0.76975   0.00000  Uiso   1.00
O269   O     0.39933   0.69394   0.25004   0.00000  Uiso   1.00
O270   O     0.77149   0.86438   0.72933   0.00000  Uiso   1.00
N271   N     0.71294   0.94720   0.88385   0.00000  Uiso   1.00
N272   N     0.48067   0.68273   0.22609   0.00000  Uiso   1.00
N273   N     0.74586   0.80417   0.56765   0.00000  Uiso   1.00
N274   N     0.68404   0.07341   0.93154   0.00000  Uiso   1.00
N275   N     0.45177   0.80893   0.27378   0.00000  Uiso   1.00
N276   N     0.71696   0.93037   0.61534   0.00000  Uiso   1.00
C277   C     0.12886   0.88907   0.47123   0.00000  Uiso   1.00
C278   C     0.13981   0.96098   0.55160   0.00000  Uiso   1.00
C279   C     0.16546   0.95143   0.64581   0.00000  Uiso   1.00
C280   C     0.17159   0.02509   0.70850   0.00000  Uiso   1.00
C281   C     0.19145   0.12453   0.83797   0.00000  Uiso   1.00
C282   C     0.07531   0.88703   0.46033   0.00000  Uiso   1.00
C283   C     0.04674   0.81529   0.47778   0.00000  Uiso   1.00
C284   C     0.99857   0.82670   0.46361   0.00000  Uiso   1.00
C285   C     0.91829   0.81131   0.45129   0.00000  Uiso   1.00
C286   C     0.14766   0.92049   0.36324   0.00000  Uiso   1.00
C287   C     0.17990   0.87687   0.29905   0.00000  Uiso   1.00
C288   C     0.19263   0.91644   0.20312   0.00000  Uiso   1.00
C289   C     0.22468   0.95300   0.04007   0.00000  Uiso   1.00
C290   C     0.09414   0.03687   0.41501   0.00000  Uiso   1.00
C291   C     0.12095   0.04126   0.52106   0.00000  Uiso   1.00
C292   C     0.12705   0.11496   0.58362   0.00000  Uiso   1.00
C293   C     0.15270   0.10552   0.67791   0.00000  Uiso   1.00
C294   C     0.05645   0.96731   0.42979   0.00000  Uiso   1.00
C295   C     0.00832   0.97882   0.41558   0.00000  Uiso   1.00
C296   C     0.97967   0.90713   0.43302   0.00000  Uiso   1.00
C297   C     0.12880   0.00077   0.33270   0.00000  Uiso   1.00
C298   C     0.14148   0.04041   0.23685   0.00000  Uiso   1.00
C299   C     0.17374   0.99687   0.17253   0.00000  Uiso   1.00
H300   H     0.14354   0.82657   0.49500   0.00000  Uiso   1.00
H301   H     0.18005   0.88929   0.66942   0.00000  Uiso   1.00
H302   H     0.06134   0.75317   0.50140   0.00000  Uiso   1.00
H303   H     0.19449   0.81475   0.32270   0.00000  Uiso   1.00
H304   H     0.21219   0.99423   0.84936   0.00000  Uiso   1.00
H305   H     0.96189   0.70721   0.49504   0.00000  Uiso   1.00
H306   H     0.24265   0.83705   0.11821   0.00000  Uiso   1.00
H307   H     0.07945   0.09938   0.39123   0.00000  Uiso   1.00
H308   H     0.11245   0.17708   0.55997   0.00000  Uiso   1.00
H309   H     0.99374   0.04096   0.39195   0.00000  Uiso   1.00
H310   H     0.12688   0.10253   0.21325   0.00000  Uiso   1.00
H311   H     0.15732   0.22781   0.76052   0.00000  Uiso   1.00
H312   H     0.90702   0.94079   0.40619   0.00000  Uiso   1.00
H313   H     0.18778   0.07063   0.02937   0.00000  Uiso   1.00
O314   O     0.20761   0.15720   0.91782   0.00000  Uiso   1.00
O315   O     0.87922   0.78064   0.45295   0.00000  Uiso   1.00
O316   O     0.24757   0.95099   0.95857   0.00000  Uiso   1.00
N317   N     0.19476   0.03854   0.80528   0.00000  Uiso   1.00
N318   N     0.96074   0.77020   0.47403   0.00000  Uiso   1.00
N319   N     0.22322   0.89158   0.12172   0.00000  Uiso   1.00
N320   N     0.16524   0.16423   0.75748   0.00000  Uiso   1.00
N321   N     0.93122   0.89589   0.42623   0.00000  Uiso   1.00
N322   N     0.19369   0.01727   0.07391   0.00000  Uiso   1.00
C323   C     0.85094   0.19972   0.72165   0.00000  Uiso   1.00
C324   C     0.84039   0.12838   0.64022   0.00000  Uiso   1.00
C325   C     0.81543   0.13871   0.54518   0.00000  Uiso   1.00
C326   C     0.80958   0.06548   0.48159   0.00000  Uiso   1.00
C327   C     0.79041   0.96698   0.35049   0.00000  Uiso   1.00
C328   C     0.90441   0.20127   0.73453   0.00000  Uiso   1.00
C329   C     0.93327   0.27288   0.71879   0.00000  Uiso   1.00
C330   C     0.98131   0.26101   0.73461   0.00000  Uiso   1.00
C331   C     0.06152   0.27569   0.74999   0.00000  Uiso   1.00
C332   C     0.83132   0.16780   0.82865   0.00000  Uiso   1.00
C333   C     0.79873   0.21127   0.89207   0.00000  Uiso   1.00
C334   C     0.78523   0.17122   0.98714   0.00000  Uiso   1.00
C335   C     0.75196   0.13393   0.14866   0.00000  Uiso   1.00
C336   C     0.88493   0.05131   0.77774   0.00000  Uiso   1.00
C337   C     0.85886   0.04777   0.67069   0.00000  Uiso   1.00
C338   C     0.85304   0.97450   0.60723   0.00000  Uiso   1.00
C339   C     0.82807   0.98472   0.51211   0.00000  Uiso   1.00
C340   C     0.92287   0.12066   0.76499   0.00000  Uiso   1.00
C341   C     0.97088   0.10868   0.78084   0.00000  Uiso   1.00
C342   C     0.99980   0.18025   0.76512   0.00000  Uiso   1.00
C343   C     0.84978   0.08718   0.85911   0.00000  Uiso   1.00
C344   C     0.83633   0.04706   0.95411   0.00000  Uiso   1.00
C345   C     0.80373   0.09047   0.01766   0.00000  Uiso   1.00
H346   H     0.83657   0.26248   0.69794   0.00000  Uiso   1.00
H347   H     0.80115   0.20111   0.52163   0.00000  Uiso   1.00
H348   H     0.91897   0.33526   0.69522   0.00000  Uiso   1.00
H349   H     0.78445   0.27365   0.86847   0.00000  Uiso   1.00
H350   H     0.77004   0.09752   0.33957   0.00000  Uiso   1.00
H351   H     0.01847   0.38040   0.70564   0.00000  Uiso   1.00
H352   H     0.73481   0.25049   0.07096   0.00000  Uiso   1.00
H353   H     0.89931   0.98854   0.80146   0.00000  Uiso   1.00
H354   H     0.86733   0.91213   0.63083   0.00000  Uiso   1.00
H355   H     0.98515   0.04629   0.80442   0.00000  Uiso   1.00
H356   H     0.85063   0.98468   0.97766   0.00000  Uiso   1.00
H357   H     0.82375   0.86298   0.42819   0.00000  Uiso   1.00
H358   H     0.07218   0.14586   0.79427   0.00000  Uiso   1.00
H359   H     0.78852   0.01595   0.15959   0.00000  Uiso   1.00
O360   O     0.77474   0.93493   0.26975   0.00000  Uiso   1.00
O361   O     0.10067   0.30606   0.75004   0.00000  Uiso   1.00
O362   O     0.72851   0.13562   0.22933   0.00000  Uiso   1.00
N363   N     0.78706   0.05280   0.38385   0.00000  Uiso   1.00
N364   N     0.01933   0.31727   0.72609   0.00000  Uiso   1.00
N365   N     0.75414   0.19583   0.06765   0.00000  Uiso   1.00
N366   N     0.81596   0.92659   0.43154   0.00000  Uiso   1.00
N367   N     0.04823   0.19107   0.77378   0.00000  Uiso   1.00
N368   N     0.78304   0.06963   0.11534   0.00000  Uiso   1.00
