data_job_05720
_audit_creation_date              2018-12-19
_audit_creation_method            'Materials Studio'
_symmetry_space_group_name_H-M    'P1'
_symmetry_Int_Tables_number       1
_symmetry_cell_setting            triclinic
loop_
_symmetry_equiv_pos_as_xyz
  x,y,z
_cell_length_a                    22.4080
_cell_length_b                    7.6390
_cell_length_c                    16.5176
_cell_angle_alpha                 90.0000
_cell_angle_beta                  59.0871
_cell_angle_gamma                 90.0000
loop_
_atom_site_label
_atom_site_type_symbol
_atom_site_fract_x
_atom_site_fract_y
_atom_site_fract_z
_atom_site_U_iso_or_equiv
_atom_site_adp_type
_atom_site_occupancy
C1     C     0.43180   0.27048   0.72552   0.00000  Uiso   1.00
C2     C     0.36332   0.24122   0.72866   0.00000  Uiso   1.00
C3     C     0.33097   0.36038   0.70019   0.00000  Uiso   1.00
C4     C     0.26858   0.30881   0.70869   0.00000  Uiso   1.00
C5     C     0.16663   0.28848   0.70819   0.00000  Uiso   1.00
C6     C     0.41611   0.24163   0.82596   0.00000  Uiso   1.00
C7     C     0.42815   0.36114   0.87928   0.00000  Uiso   1.00
C8     C     0.41021   0.30990   0.96968   0.00000  Uiso   1.00
C9     C     0.39027   0.29016   0.12021   0.00000  Uiso   1.00
C10    C     0.47946   0.12061   0.66699   0.00000  Uiso   1.00
C11    C     0.54478   0.13836   0.58665   0.00000  Uiso   1.00
C12    C     0.58019   0.98521   0.54322   0.00000  Uiso   1.00
C13    C     0.65862   0.77758   0.44691   0.00000  Uiso   1.00
C14    C     0.37853   0.96697   0.79125   0.00000  Uiso   1.00
C15    C     0.33439   0.07636   0.76437   0.00000  Uiso   1.00
C16    C     0.27203   0.02458   0.77291   0.00000  Uiso   1.00
C17    C     0.23960   0.14365   0.74445   0.00000  Uiso   1.00
C18    C     0.38718   0.07678   0.86167   0.00000  Uiso   1.00
C19    C     0.36922   0.02534   0.95201   0.00000  Uiso   1.00
C20    C     0.38123   0.14474   0.00545   0.00000  Uiso   1.00
C21    C     0.45053   0.95575   0.70269   0.00000  Uiso   1.00
C22    C     0.48585   0.80255   0.65938   0.00000  Uiso   1.00
C23    C     0.55121   0.82006   0.57899   0.00000  Uiso   1.00
H24    H     0.45432   0.39883   0.69773   0.00000  Uiso   1.00
H25    H     0.35337   0.48796   0.67257   0.00000  Uiso   1.00
H26    H     0.45055   0.48870   0.85163   0.00000  Uiso   1.00
H27    H     0.56716   0.26595   0.55904   0.00000  Uiso   1.00
H28    H     0.22867   0.51410   0.66045   0.00000  Uiso   1.00
H29    H     0.43360   0.51564   0.03800   0.00000  Uiso   1.00
H30    H     0.67950   0.04593   0.42103   0.00000  Uiso   1.00
H31    H     0.35601   0.83861   0.81905   0.00000  Uiso   1.00
H32    H     0.24966   0.89700   0.80055   0.00000  Uiso   1.00
H33    H     0.34683   0.89775   0.97961   0.00000  Uiso   1.00
H34    H     0.46344   0.67500   0.68703   0.00000  Uiso   1.00
H35    H     0.14449   0.03446   0.76433   0.00000  Uiso   1.00
H36    H     0.34942   0.03600   0.14188   0.00000  Uiso   1.00
H37    H     0.59532   0.56629   0.52491   0.00000  Uiso   1.00
O38    O     0.11838   0.32282   0.69806   0.00000  Uiso   1.00
O39    O     0.38725   0.32484   0.19338   0.00000  Uiso   1.00
O40    O     0.70986   0.70859   0.38392   0.00000  Uiso   1.00
N41    N     0.22346   0.39319   0.68742   0.00000  Uiso   1.00
N42    N     0.41505   0.39465   0.04041   0.00000  Uiso   1.00
N43    N     0.64495   0.95550   0.46361   0.00000  Uiso   1.00
N44    N     0.17817   0.13510   0.74332   0.00000  Uiso   1.00
N45    N     0.36975   0.13655   0.09631   0.00000  Uiso   1.00
N46    N     0.59965   0.69741   0.51950   0.00000  Uiso   1.00
C47    C     0.93180   0.77048   0.72552   0.00000  Uiso   1.00
C48    C     0.86332   0.74122   0.72866   0.00000  Uiso   1.00
C49    C     0.83097   0.86038   0.70019   0.00000  Uiso   1.00
C50    C     0.76858   0.80881   0.70869   0.00000  Uiso   1.00
C51    C     0.66663   0.78848   0.70819   0.00000  Uiso   1.00
C52    C     0.91611   0.74163   0.82596   0.00000  Uiso   1.00
C53    C     0.92815   0.86114   0.87928   0.00000  Uiso   1.00
C54    C     0.91021   0.80990   0.96968   0.00000  Uiso   1.00
C55    C     0.89027   0.79016   0.12021   0.00000  Uiso   1.00
C56    C     0.97946   0.62061   0.66699   0.00000  Uiso   1.00
C57    C     0.04478   0.63836   0.58665   0.00000  Uiso   1.00
C58    C     0.08019   0.48521   0.54322   0.00000  Uiso   1.00
C59    C     0.15862   0.27758   0.44691   0.00000  Uiso   1.00
C60    C     0.87853   0.46697   0.79125   0.00000  Uiso   1.00
C61    C     0.83439   0.57636   0.76437   0.00000  Uiso   1.00
C62    C     0.77203   0.52458   0.77291   0.00000  Uiso   1.00
C63    C     0.73960   0.64365   0.74445   0.00000  Uiso   1.00
C64    C     0.88718   0.57678   0.86167   0.00000  Uiso   1.00
C65    C     0.86922   0.52534   0.95201   0.00000  Uiso   1.00
C66    C     0.88123   0.64474   0.00545   0.00000  Uiso   1.00
C67    C     0.95053   0.45575   0.70269   0.00000  Uiso   1.00
C68    C     0.98585   0.30255   0.65938   0.00000  Uiso   1.00
C69    C     0.05121   0.32006   0.57899   0.00000  Uiso   1.00
H70    H     0.95432   0.89883   0.69773   0.00000  Uiso   1.00
H71    H     0.85337   0.98796   0.67257   0.00000  Uiso   1.00
H72    H     0.95055   0.98870   0.85163   0.00000  Uiso   1.00
H73    H     0.06716   0.76595   0.55904   0.00000  Uiso   1.00
H74    H     0.72867   0.01410   0.66045   0.00000  Uiso   1.00
H75    H     0.93360   0.01564   0.03800   0.00000  Uiso   1.00
H76    H     0.17950   0.54593   0.42103   0.00000  Uiso   1.00
H77    H     0.85601   0.33861   0.81905   0.00000  Uiso   1.00
H78    H     0.74966   0.39700   0.80055   0.00000  Uiso   1.00
H79    H     0.84683   0.39775   0.97961   0.00000  Uiso   1.00
H80    H     0.96344   0.17500   0.68703   0.00000  Uiso   1.00
H81    H     0.64449   0.53446   0.76433   0.00000  Uiso   1.00
H82    H     0.84942   0.53600   0.14188   0.00000  Uiso   1.00
H83    H     0.09532   0.06629   0.52491   0.00000  Uiso   1.00
O84    O     0.61838   0.82282   0.69806   0.00000  Uiso   1.00
O85    O     0.88725   0.82484   0.19338   0.00000  Uiso   1.00
O86    O     0.20986   0.20859   0.38392   0.00000  Uiso   1.00
N87    N     0.72346   0.89319   0.68742   0.00000  Uiso   1.00
N88    N     0.91505   0.89465   0.04041   0.00000  Uiso   1.00
N89    N     0.14495   0.45550   0.46361   0.00000  Uiso   1.00
N90    N     0.67817   0.63510   0.74332   0.00000  Uiso   1.00
N91    N     0.86975   0.63655   0.09631   0.00000  Uiso   1.00
N92    N     0.09965   0.19741   0.51950   0.00000  Uiso   1.00
C93    C     0.56820   0.27048   0.27448   0.00000  Uiso   1.00
C94    C     0.63668   0.24122   0.27134   0.00000  Uiso   1.00
C95    C     0.66903   0.36038   0.29981   0.00000  Uiso   1.00
C96    C     0.73142   0.30881   0.29131   0.00000  Uiso   1.00
C97    C     0.83337   0.28848   0.29181   0.00000  Uiso   1.00
C98    C     0.58389   0.24163   0.17404   0.00000  Uiso   1.00
C99    C     0.57185   0.36114   0.12072   0.00000  Uiso   1.00
C100   C     0.58979   0.30990   0.03032   0.00000  Uiso   1.00
C101   C     0.60973   0.29016   0.87979   0.00000  Uiso   1.00
C102   C     0.52054   0.12061   0.33301   0.00000  Uiso   1.00
C103   C     0.45522   0.13836   0.41335   0.00000  Uiso   1.00
C104   C     0.41981   0.98521   0.45678   0.00000  Uiso   1.00
C105   C     0.34138   0.77758   0.55309   0.00000  Uiso   1.00
C106   C     0.62147   0.96697   0.20875   0.00000  Uiso   1.00
C107   C     0.66561   0.07636   0.23563   0.00000  Uiso   1.00
C108   C     0.72797   0.02458   0.22709   0.00000  Uiso   1.00
C109   C     0.76040   0.14365   0.25555   0.00000  Uiso   1.00
C110   C     0.61282   0.07678   0.13833   0.00000  Uiso   1.00
C111   C     0.63078   0.02534   0.04799   0.00000  Uiso   1.00
C112   C     0.61877   0.14474   0.99455   0.00000  Uiso   1.00
C113   C     0.54947   0.95575   0.29731   0.00000  Uiso   1.00
C114   C     0.51415   0.80255   0.34062   0.00000  Uiso   1.00
C115   C     0.44879   0.82006   0.42101   0.00000  Uiso   1.00
H116   H     0.54568   0.39883   0.30227   0.00000  Uiso   1.00
H117   H     0.64663   0.48796   0.32743   0.00000  Uiso   1.00
H118   H     0.54945   0.48870   0.14837   0.00000  Uiso   1.00
H119   H     0.43284   0.26595   0.44096   0.00000  Uiso   1.00
H120   H     0.77133   0.51410   0.33955   0.00000  Uiso   1.00
H121   H     0.56640   0.51564   0.96200   0.00000  Uiso   1.00
H122   H     0.32050   0.04593   0.57897   0.00000  Uiso   1.00
H123   H     0.64399   0.83861   0.18095   0.00000  Uiso   1.00
H124   H     0.75034   0.89700   0.19945   0.00000  Uiso   1.00
H125   H     0.65317   0.89775   0.02039   0.00000  Uiso   1.00
H126   H     0.53656   0.67500   0.31297   0.00000  Uiso   1.00
H127   H     0.85551   0.03446   0.23567   0.00000  Uiso   1.00
H128   H     0.65058   0.03600   0.85812   0.00000  Uiso   1.00
H129   H     0.40468   0.56629   0.47509   0.00000  Uiso   1.00
O130   O     0.88162   0.32282   0.30194   0.00000  Uiso   1.00
O131   O     0.61275   0.32484   0.80662   0.00000  Uiso   1.00
O132   O     0.29014   0.70859   0.61608   0.00000  Uiso   1.00
N133   N     0.77654   0.39319   0.31258   0.00000  Uiso   1.00
N134   N     0.58495   0.39465   0.95959   0.00000  Uiso   1.00
N135   N     0.35505   0.95550   0.53639   0.00000  Uiso   1.00
N136   N     0.82183   0.13510   0.25668   0.00000  Uiso   1.00
N137   N     0.63025   0.13655   0.90369   0.00000  Uiso   1.00
N138   N     0.40035   0.69741   0.48050   0.00000  Uiso   1.00
C139   C     0.06820   0.77048   0.27448   0.00000  Uiso   1.00
C140   C     0.13668   0.74122   0.27134   0.00000  Uiso   1.00
C141   C     0.16903   0.86038   0.29981   0.00000  Uiso   1.00
C142   C     0.23142   0.80881   0.29131   0.00000  Uiso   1.00
C143   C     0.33337   0.78848   0.29181   0.00000  Uiso   1.00
C144   C     0.08389   0.74163   0.17404   0.00000  Uiso   1.00
C145   C     0.07185   0.86114   0.12072   0.00000  Uiso   1.00
C146   C     0.08979   0.80990   0.03032   0.00000  Uiso   1.00
C147   C     0.10973   0.79016   0.87979   0.00000  Uiso   1.00
C148   C     0.02054   0.62061   0.33301   0.00000  Uiso   1.00
C149   C     0.95522   0.63836   0.41335   0.00000  Uiso   1.00
C150   C     0.91981   0.48521   0.45678   0.00000  Uiso   1.00
C151   C     0.84138   0.27758   0.55309   0.00000  Uiso   1.00
C152   C     0.12147   0.46697   0.20875   0.00000  Uiso   1.00
C153   C     0.16561   0.57636   0.23563   0.00000  Uiso   1.00
C154   C     0.22797   0.52458   0.22709   0.00000  Uiso   1.00
C155   C     0.26040   0.64365   0.25555   0.00000  Uiso   1.00
C156   C     0.11282   0.57678   0.13833   0.00000  Uiso   1.00
C157   C     0.13078   0.52534   0.04799   0.00000  Uiso   1.00
C158   C     0.11877   0.64474   0.99455   0.00000  Uiso   1.00
C159   C     0.04947   0.45575   0.29731   0.00000  Uiso   1.00
C160   C     0.01415   0.30255   0.34062   0.00000  Uiso   1.00
C161   C     0.94879   0.32006   0.42101   0.00000  Uiso   1.00
H162   H     0.04568   0.89883   0.30227   0.00000  Uiso   1.00
H163   H     0.14663   0.98796   0.32743   0.00000  Uiso   1.00
H164   H     0.04945   0.98870   0.14837   0.00000  Uiso   1.00
H165   H     0.93284   0.76595   0.44096   0.00000  Uiso   1.00
H166   H     0.27133   0.01410   0.33955   0.00000  Uiso   1.00
H167   H     0.06640   0.01564   0.96200   0.00000  Uiso   1.00
H168   H     0.82050   0.54593   0.57897   0.00000  Uiso   1.00
H169   H     0.14399   0.33861   0.18095   0.00000  Uiso   1.00
H170   H     0.25034   0.39700   0.19945   0.00000  Uiso   1.00
H171   H     0.15317   0.39775   0.02039   0.00000  Uiso   1.00
H172   H     0.03656   0.17500   0.31297   0.00000  Uiso   1.00
H173   H     0.35551   0.53446   0.23567   0.00000  Uiso   1.00
H174   H     0.15058   0.53600   0.85812   0.00000  Uiso   1.00
H175   H     0.90468   0.06629   0.47509   0.00000  Uiso   1.00
O176   O     0.38162   0.82282   0.30194   0.00000  Uiso   1.00
O177   O     0.11275   0.82484   0.80662   0.00000  Uiso   1.00
O178   O     0.79014   0.20859   0.61608   0.00000  Uiso   1.00
N179   N     0.27654   0.89319   0.31258   0.00000  Uiso   1.00
N180   N     0.08495   0.89465   0.95959   0.00000  Uiso   1.00
N181   N     0.85505   0.45550   0.53639   0.00000  Uiso   1.00
N182   N     0.32183   0.63510   0.25668   0.00000  Uiso   1.00
N183   N     0.13025   0.63655   0.90369   0.00000  Uiso   1.00
N184   N     0.90035   0.19741   0.48050   0.00000  Uiso   1.00
