data_job_04871
_audit_creation_date              2018-12-19
_audit_creation_method            'Materials Studio'
_symmetry_space_group_name_H-M    'P1'
_symmetry_Int_Tables_number       1
_symmetry_cell_setting            triclinic
loop_
_symmetry_equiv_pos_as_xyz
  x,y,z
_cell_length_a                    27.4581
_cell_length_b                    13.1824
_cell_length_c                    28.7915
_cell_angle_alpha                 90.0000
_cell_angle_beta                  147.5280
_cell_angle_gamma                 90.0000
loop_
_atom_site_label
_atom_site_type_symbol
_atom_site_fract_x
_atom_site_fract_y
_atom_site_fract_z
_atom_site_U_iso_or_equiv
_atom_site_adp_type
_atom_site_occupancy
C1     C     0.32258   0.51971   0.93107   0.00000  Uiso   1.00
C2     C     0.24024   0.48327   0.83745   0.00000  Uiso   1.00
C3     C     0.24238   0.43762   0.79575   0.00000  Uiso   1.00
C4     C     0.15967   0.40978   0.70998   0.00000  Uiso   1.00
C5     C     0.04426   0.35062   0.57105   0.00000  Uiso   1.00
C6     C     0.30605   0.63177   0.92784   0.00000  Uiso   1.00
C7     C     0.36354   0.71096   0.96217   0.00000  Uiso   1.00
C8     C     0.33624   0.80812   0.95250   0.00000  Uiso   1.00
C9     C     0.32304   0.97949   0.95398   0.00000  Uiso   1.00
C10    C     0.31819   0.46585   0.97435   0.00000  Uiso   1.00
C11    C     0.38589   0.40555   0.04779   0.00000  Uiso   1.00
C12    C     0.36881   0.36304   0.07730   0.00000  Uiso   1.00
C13    C     0.37446   0.27679   0.15098   0.00000  Uiso   1.00
C14    C     0.17189   0.55143   0.85290   0.00000  Uiso   1.00
C15    C     0.15839   0.50051   0.79499   0.00000  Uiso   1.00
C16    C     0.07566   0.47272   0.70926   0.00000  Uiso   1.00
C17    C     0.07768   0.42703   0.66745   0.00000  Uiso   1.00
C18    C     0.22421   0.64900   0.88539   0.00000  Uiso   1.00
C19    C     0.19682   0.74606   0.87568   0.00000  Uiso   1.00
C20    C     0.25425   0.82538   0.90997   0.00000  Uiso   1.00
C21    C     0.23634   0.48307   0.93189   0.00000  Uiso   1.00
C22    C     0.21916   0.44065   0.96130   0.00000  Uiso   1.00
C23    C     0.28682   0.38030   0.03477   0.00000  Uiso   1.00
H24    H     0.38631   0.50630   0.96413   0.00000  Uiso   1.00
H25    H     0.30574   0.42431   0.82863   0.00000  Uiso   1.00
H26    H     0.42688   0.69760   0.99503   0.00000  Uiso   1.00
H27    H     0.44922   0.39224   0.08063   0.00000  Uiso   1.00
H28    H     0.18031   0.34104   0.65967   0.00000  Uiso   1.00
H29    H     0.43576   0.91729   0.01055   0.00000  Uiso   1.00
H30    H     0.48287   0.27337   0.19108   0.00000  Uiso   1.00
H31    H     0.10817   0.56485   0.81985   0.00000  Uiso   1.00
H32    H     0.01233   0.48606   0.67642   0.00000  Uiso   1.00
H33    H     0.13348   0.75936   0.84282   0.00000  Uiso   1.00
H34    H     0.15582   0.45400   0.92843   0.00000  Uiso   1.00
H35    H     0.94217   0.39116   0.53613   0.00000  Uiso   1.00
H36    H     0.19763   0.96742   0.88702   0.00000  Uiso   1.00
H37    H     0.24474   0.32350   0.06754   0.00000  Uiso   1.00
O38    O     0.00321   0.31325   0.50615   0.00000  Uiso   1.00
O39    O     0.33837   0.06926   0.96651   0.00000  Uiso   1.00
O40    O     0.40017   0.22445   0.20335   0.00000  Uiso   1.00
N41    N     0.13742   0.36363   0.65028   0.00000  Uiso   1.00
N42    N     0.37624   0.90239   0.97832   0.00000  Uiso   1.00
N43    N     0.42030   0.30040   0.14711   0.00000  Uiso   1.00
N44    N     0.00928   0.39060   0.58381   0.00000  Uiso   1.00
N45    N     0.24811   0.92936   0.91185   0.00000  Uiso   1.00
N46    N     0.29216   0.32737   0.08064   0.00000  Uiso   1.00
C47    C     0.82258   0.01971   0.93107   0.00000  Uiso   1.00
C48    C     0.74024   0.98327   0.83745   0.00000  Uiso   1.00
C49    C     0.74238   0.93762   0.79575   0.00000  Uiso   1.00
C50    C     0.65967   0.90978   0.70998   0.00000  Uiso   1.00
C51    C     0.54426   0.85062   0.57105   0.00000  Uiso   1.00
C52    C     0.80605   0.13177   0.92784   0.00000  Uiso   1.00
C53    C     0.86354   0.21096   0.96217   0.00000  Uiso   1.00
C54    C     0.83624   0.30812   0.95250   0.00000  Uiso   1.00
C55    C     0.82304   0.47949   0.95398   0.00000  Uiso   1.00
C56    C     0.81819   0.96585   0.97435   0.00000  Uiso   1.00
C57    C     0.88589   0.90555   0.04779   0.00000  Uiso   1.00
C58    C     0.86881   0.86304   0.07730   0.00000  Uiso   1.00
C59    C     0.87446   0.77679   0.15098   0.00000  Uiso   1.00
C60    C     0.67189   0.05143   0.85290   0.00000  Uiso   1.00
C61    C     0.65839   0.00051   0.79499   0.00000  Uiso   1.00
C62    C     0.57566   0.97272   0.70926   0.00000  Uiso   1.00
C63    C     0.57768   0.92703   0.66745   0.00000  Uiso   1.00
C64    C     0.72421   0.14900   0.88539   0.00000  Uiso   1.00
C65    C     0.69682   0.24606   0.87568   0.00000  Uiso   1.00
C66    C     0.75425   0.32538   0.90997   0.00000  Uiso   1.00
C67    C     0.73634   0.98307   0.93189   0.00000  Uiso   1.00
C68    C     0.71916   0.94065   0.96130   0.00000  Uiso   1.00
C69    C     0.78682   0.88030   0.03477   0.00000  Uiso   1.00
H70    H     0.88631   0.00630   0.96413   0.00000  Uiso   1.00
H71    H     0.80574   0.92431   0.82863   0.00000  Uiso   1.00
H72    H     0.92688   0.19760   0.99503   0.00000  Uiso   1.00
H73    H     0.94922   0.89224   0.08063   0.00000  Uiso   1.00
H74    H     0.68031   0.84104   0.65967   0.00000  Uiso   1.00
H75    H     0.93576   0.41729   0.01055   0.00000  Uiso   1.00
H76    H     0.98287   0.77337   0.19108   0.00000  Uiso   1.00
H77    H     0.60817   0.06485   0.81985   0.00000  Uiso   1.00
H78    H     0.51233   0.98606   0.67642   0.00000  Uiso   1.00
H79    H     0.63348   0.25936   0.84282   0.00000  Uiso   1.00
H80    H     0.65582   0.95400   0.92843   0.00000  Uiso   1.00
H81    H     0.44217   0.89116   0.53613   0.00000  Uiso   1.00
H82    H     0.69763   0.46742   0.88702   0.00000  Uiso   1.00
H83    H     0.74474   0.82350   0.06754   0.00000  Uiso   1.00
O84    O     0.50321   0.81325   0.50615   0.00000  Uiso   1.00
O85    O     0.83837   0.56926   0.96651   0.00000  Uiso   1.00
O86    O     0.90017   0.72445   0.20335   0.00000  Uiso   1.00
N87    N     0.63742   0.86363   0.65028   0.00000  Uiso   1.00
N88    N     0.87624   0.40239   0.97832   0.00000  Uiso   1.00
N89    N     0.92030   0.80040   0.14711   0.00000  Uiso   1.00
N90    N     0.50928   0.89060   0.58381   0.00000  Uiso   1.00
N91    N     0.74811   0.42936   0.91185   0.00000  Uiso   1.00
N92    N     0.79216   0.82737   0.08064   0.00000  Uiso   1.00
C93    C     0.67742   0.51971   0.56893   0.00000  Uiso   1.00
C94    C     0.75976   0.48327   0.66255   0.00000  Uiso   1.00
C95    C     0.75762   0.43762   0.70425   0.00000  Uiso   1.00
C96    C     0.84033   0.40978   0.79002   0.00000  Uiso   1.00
C97    C     0.95574   0.35062   0.92895   0.00000  Uiso   1.00
C98    C     0.69395   0.63177   0.57216   0.00000  Uiso   1.00
C99    C     0.63646   0.71096   0.53783   0.00000  Uiso   1.00
C100   C     0.66376   0.80812   0.54750   0.00000  Uiso   1.00
C101   C     0.67696   0.97949   0.54602   0.00000  Uiso   1.00
C102   C     0.68181   0.46585   0.52565   0.00000  Uiso   1.00
C103   C     0.61411   0.40555   0.45221   0.00000  Uiso   1.00
C104   C     0.63119   0.36304   0.42270   0.00000  Uiso   1.00
C105   C     0.62554   0.27679   0.34902   0.00000  Uiso   1.00
C106   C     0.82811   0.55143   0.64710   0.00000  Uiso   1.00
C107   C     0.84161   0.50051   0.70501   0.00000  Uiso   1.00
C108   C     0.92434   0.47272   0.79074   0.00000  Uiso   1.00
C109   C     0.92232   0.42703   0.83255   0.00000  Uiso   1.00
C110   C     0.77579   0.64900   0.61461   0.00000  Uiso   1.00
C111   C     0.80318   0.74606   0.62432   0.00000  Uiso   1.00
C112   C     0.74575   0.82538   0.59003   0.00000  Uiso   1.00
C113   C     0.76366   0.48307   0.56811   0.00000  Uiso   1.00
C114   C     0.78084   0.44065   0.53870   0.00000  Uiso   1.00
C115   C     0.71318   0.38030   0.46523   0.00000  Uiso   1.00
H116   H     0.61369   0.50630   0.53587   0.00000  Uiso   1.00
H117   H     0.69426   0.42431   0.67137   0.00000  Uiso   1.00
H118   H     0.57312   0.69760   0.50497   0.00000  Uiso   1.00
H119   H     0.55078   0.39224   0.41937   0.00000  Uiso   1.00
H120   H     0.81969   0.34104   0.84033   0.00000  Uiso   1.00
H121   H     0.56424   0.91729   0.48945   0.00000  Uiso   1.00
H122   H     0.51713   0.27337   0.30892   0.00000  Uiso   1.00
H123   H     0.89183   0.56485   0.68015   0.00000  Uiso   1.00
H124   H     0.98767   0.48606   0.82358   0.00000  Uiso   1.00
H125   H     0.86652   0.75936   0.65718   0.00000  Uiso   1.00
H126   H     0.84418   0.45400   0.57157   0.00000  Uiso   1.00
H127   H     0.05783   0.39116   0.96387   0.00000  Uiso   1.00
H128   H     0.80237   0.96742   0.61298   0.00000  Uiso   1.00
H129   H     0.75526   0.32350   0.43246   0.00000  Uiso   1.00
O130   O     0.99679   0.31325   0.99385   0.00000  Uiso   1.00
O131   O     0.66163   0.06926   0.53349   0.00000  Uiso   1.00
O132   O     0.59983   0.22445   0.29665   0.00000  Uiso   1.00
N133   N     0.86258   0.36363   0.84972   0.00000  Uiso   1.00
N134   N     0.62376   0.90239   0.52168   0.00000  Uiso   1.00
N135   N     0.57970   0.30040   0.35289   0.00000  Uiso   1.00
N136   N     0.99072   0.39060   0.91619   0.00000  Uiso   1.00
N137   N     0.75189   0.92936   0.58815   0.00000  Uiso   1.00
N138   N     0.70784   0.32737   0.41936   0.00000  Uiso   1.00
C139   C     0.17742   0.01971   0.56893   0.00000  Uiso   1.00
C140   C     0.25976   0.98327   0.66255   0.00000  Uiso   1.00
C141   C     0.25762   0.93762   0.70425   0.00000  Uiso   1.00
C142   C     0.34033   0.90978   0.79002   0.00000  Uiso   1.00
C143   C     0.45574   0.85062   0.92895   0.00000  Uiso   1.00
C144   C     0.19395   0.13177   0.57216   0.00000  Uiso   1.00
C145   C     0.13646   0.21096   0.53783   0.00000  Uiso   1.00
C146   C     0.16376   0.30812   0.54750   0.00000  Uiso   1.00
C147   C     0.17696   0.47949   0.54602   0.00000  Uiso   1.00
C148   C     0.18181   0.96585   0.52565   0.00000  Uiso   1.00
C149   C     0.11411   0.90555   0.45221   0.00000  Uiso   1.00
C150   C     0.13119   0.86304   0.42270   0.00000  Uiso   1.00
C151   C     0.12554   0.77679   0.34902   0.00000  Uiso   1.00
C152   C     0.32811   0.05143   0.64710   0.00000  Uiso   1.00
C153   C     0.34161   0.00051   0.70501   0.00000  Uiso   1.00
C154   C     0.42434   0.97272   0.79074   0.00000  Uiso   1.00
C155   C     0.42232   0.92703   0.83255   0.00000  Uiso   1.00
C156   C     0.27579   0.14900   0.61461   0.00000  Uiso   1.00
C157   C     0.30318   0.24606   0.62432   0.00000  Uiso   1.00
C158   C     0.24575   0.32538   0.59003   0.00000  Uiso   1.00
C159   C     0.26366   0.98307   0.56811   0.00000  Uiso   1.00
C160   C     0.28084   0.94065   0.53870   0.00000  Uiso   1.00
C161   C     0.21318   0.88030   0.46523   0.00000  Uiso   1.00
H162   H     0.11369   0.00630   0.53587   0.00000  Uiso   1.00
H163   H     0.19426   0.92431   0.67137   0.00000  Uiso   1.00
H164   H     0.07312   0.19760   0.50497   0.00000  Uiso   1.00
H165   H     0.05078   0.89224   0.41937   0.00000  Uiso   1.00
H166   H     0.31969   0.84104   0.84033   0.00000  Uiso   1.00
H167   H     0.06424   0.41729   0.48945   0.00000  Uiso   1.00
H168   H     0.01713   0.77337   0.30892   0.00000  Uiso   1.00
H169   H     0.39183   0.06485   0.68015   0.00000  Uiso   1.00
H170   H     0.48767   0.98606   0.82358   0.00000  Uiso   1.00
H171   H     0.36652   0.25936   0.65718   0.00000  Uiso   1.00
H172   H     0.34418   0.95400   0.57157   0.00000  Uiso   1.00
H173   H     0.55783   0.89116   0.96387   0.00000  Uiso   1.00
H174   H     0.30237   0.46742   0.61298   0.00000  Uiso   1.00
H175   H     0.25526   0.82350   0.43246   0.00000  Uiso   1.00
O176   O     0.49679   0.81325   0.99385   0.00000  Uiso   1.00
O177   O     0.16163   0.56926   0.53349   0.00000  Uiso   1.00
O178   O     0.09983   0.72445   0.29665   0.00000  Uiso   1.00
N179   N     0.36258   0.86363   0.84972   0.00000  Uiso   1.00
N180   N     0.12376   0.40239   0.52168   0.00000  Uiso   1.00
N181   N     0.07970   0.80040   0.35289   0.00000  Uiso   1.00
N182   N     0.49072   0.89060   0.91619   0.00000  Uiso   1.00
N183   N     0.25189   0.42936   0.58815   0.00000  Uiso   1.00
N184   N     0.20784   0.82737   0.41936   0.00000  Uiso   1.00
C185   C     0.67742   0.48029   0.06893   0.00000  Uiso   1.00
C186   C     0.75976   0.51673   0.16255   0.00000  Uiso   1.00
C187   C     0.75762   0.56238   0.20425   0.00000  Uiso   1.00
C188   C     0.84033   0.59022   0.29002   0.00000  Uiso   1.00
C189   C     0.95574   0.64938   0.42895   0.00000  Uiso   1.00
C190   C     0.69395   0.36823   0.07216   0.00000  Uiso   1.00
C191   C     0.63646   0.28904   0.03783   0.00000  Uiso   1.00
C192   C     0.66376   0.19188   0.04750   0.00000  Uiso   1.00
C193   C     0.67696   0.02051   0.04602   0.00000  Uiso   1.00
C194   C     0.68181   0.53415   0.02565   0.00000  Uiso   1.00
C195   C     0.61411   0.59445   0.95221   0.00000  Uiso   1.00
C196   C     0.63119   0.63696   0.92270   0.00000  Uiso   1.00
C197   C     0.62554   0.72321   0.84902   0.00000  Uiso   1.00
C198   C     0.82811   0.44857   0.14710   0.00000  Uiso   1.00
C199   C     0.84161   0.49949   0.20501   0.00000  Uiso   1.00
C200   C     0.92434   0.52728   0.29074   0.00000  Uiso   1.00
C201   C     0.92232   0.57297   0.33255   0.00000  Uiso   1.00
C202   C     0.77579   0.35100   0.11461   0.00000  Uiso   1.00
C203   C     0.80318   0.25394   0.12432   0.00000  Uiso   1.00
C204   C     0.74575   0.17462   0.09003   0.00000  Uiso   1.00
C205   C     0.76366   0.51693   0.06811   0.00000  Uiso   1.00
C206   C     0.78084   0.55935   0.03870   0.00000  Uiso   1.00
C207   C     0.71318   0.61970   0.96523   0.00000  Uiso   1.00
H208   H     0.61369   0.49370   0.03587   0.00000  Uiso   1.00
H209   H     0.69426   0.57569   0.17137   0.00000  Uiso   1.00
H210   H     0.57312   0.30240   0.00497   0.00000  Uiso   1.00
H211   H     0.55078   0.60776   0.91937   0.00000  Uiso   1.00
H212   H     0.81969   0.65896   0.34033   0.00000  Uiso   1.00
H213   H     0.56424   0.08271   0.98945   0.00000  Uiso   1.00
H214   H     0.51713   0.72663   0.80892   0.00000  Uiso   1.00
H215   H     0.89183   0.43515   0.18015   0.00000  Uiso   1.00
H216   H     0.98767   0.51394   0.32358   0.00000  Uiso   1.00
H217   H     0.86652   0.24064   0.15718   0.00000  Uiso   1.00
H218   H     0.84418   0.54600   0.07157   0.00000  Uiso   1.00
H219   H     0.05783   0.60884   0.46387   0.00000  Uiso   1.00
H220   H     0.80237   0.03258   0.11298   0.00000  Uiso   1.00
H221   H     0.75526   0.67650   0.93246   0.00000  Uiso   1.00
O222   O     0.99679   0.68675   0.49385   0.00000  Uiso   1.00
O223   O     0.66163   0.93074   0.03349   0.00000  Uiso   1.00
O224   O     0.59983   0.77555   0.79665   0.00000  Uiso   1.00
N225   N     0.86258   0.63637   0.34972   0.00000  Uiso   1.00
N226   N     0.62376   0.09761   0.02168   0.00000  Uiso   1.00
N227   N     0.57970   0.69960   0.85289   0.00000  Uiso   1.00
N228   N     0.99072   0.60940   0.41619   0.00000  Uiso   1.00
N229   N     0.75189   0.07064   0.08815   0.00000  Uiso   1.00
N230   N     0.70784   0.67263   0.91936   0.00000  Uiso   1.00
C231   C     0.17742   0.98029   0.06893   0.00000  Uiso   1.00
C232   C     0.25976   0.01673   0.16255   0.00000  Uiso   1.00
C233   C     0.25762   0.06238   0.20425   0.00000  Uiso   1.00
C234   C     0.34033   0.09022   0.29002   0.00000  Uiso   1.00
C235   C     0.45574   0.14938   0.42895   0.00000  Uiso   1.00
C236   C     0.19395   0.86823   0.07216   0.00000  Uiso   1.00
C237   C     0.13646   0.78904   0.03783   0.00000  Uiso   1.00
C238   C     0.16376   0.69188   0.04750   0.00000  Uiso   1.00
C239   C     0.17696   0.52051   0.04602   0.00000  Uiso   1.00
C240   C     0.18181   0.03415   0.02565   0.00000  Uiso   1.00
C241   C     0.11411   0.09445   0.95221   0.00000  Uiso   1.00
C242   C     0.13119   0.13696   0.92270   0.00000  Uiso   1.00
C243   C     0.12554   0.22321   0.84902   0.00000  Uiso   1.00
C244   C     0.32811   0.94857   0.14710   0.00000  Uiso   1.00
C245   C     0.34161   0.99949   0.20501   0.00000  Uiso   1.00
C246   C     0.42434   0.02728   0.29074   0.00000  Uiso   1.00
C247   C     0.42232   0.07297   0.33255   0.00000  Uiso   1.00
C248   C     0.27579   0.85100   0.11461   0.00000  Uiso   1.00
C249   C     0.30318   0.75394   0.12432   0.00000  Uiso   1.00
C250   C     0.24575   0.67462   0.09003   0.00000  Uiso   1.00
C251   C     0.26366   0.01693   0.06811   0.00000  Uiso   1.00
C252   C     0.28084   0.05935   0.03870   0.00000  Uiso   1.00
C253   C     0.21318   0.11970   0.96523   0.00000  Uiso   1.00
H254   H     0.11369   0.99370   0.03587   0.00000  Uiso   1.00
H255   H     0.19426   0.07569   0.17137   0.00000  Uiso   1.00
H256   H     0.07312   0.80240   0.00497   0.00000  Uiso   1.00
H257   H     0.05078   0.10776   0.91937   0.00000  Uiso   1.00
H258   H     0.31969   0.15896   0.34033   0.00000  Uiso   1.00
H259   H     0.06424   0.58271   0.98945   0.00000  Uiso   1.00
H260   H     0.01713   0.22663   0.80892   0.00000  Uiso   1.00
H261   H     0.39183   0.93515   0.18015   0.00000  Uiso   1.00
H262   H     0.48767   0.01394   0.32358   0.00000  Uiso   1.00
H263   H     0.36652   0.74064   0.15718   0.00000  Uiso   1.00
H264   H     0.34418   0.04600   0.07157   0.00000  Uiso   1.00
H265   H     0.55783   0.10884   0.46387   0.00000  Uiso   1.00
H266   H     0.30237   0.53258   0.11298   0.00000  Uiso   1.00
H267   H     0.25526   0.17650   0.93246   0.00000  Uiso   1.00
O268   O     0.49679   0.18675   0.49385   0.00000  Uiso   1.00
O269   O     0.16163   0.43074   0.03349   0.00000  Uiso   1.00
O270   O     0.09983   0.27555   0.79665   0.00000  Uiso   1.00
N271   N     0.36258   0.13637   0.34972   0.00000  Uiso   1.00
N272   N     0.12376   0.59761   0.02168   0.00000  Uiso   1.00
N273   N     0.07970   0.19960   0.85289   0.00000  Uiso   1.00
N274   N     0.49072   0.10940   0.41619   0.00000  Uiso   1.00
N275   N     0.25189   0.57064   0.08815   0.00000  Uiso   1.00
N276   N     0.20784   0.17263   0.91936   0.00000  Uiso   1.00
C277   C     0.32258   0.48029   0.43107   0.00000  Uiso   1.00
C278   C     0.24024   0.51673   0.33745   0.00000  Uiso   1.00
C279   C     0.24238   0.56238   0.29575   0.00000  Uiso   1.00
C280   C     0.15967   0.59022   0.20998   0.00000  Uiso   1.00
C281   C     0.04426   0.64938   0.07105   0.00000  Uiso   1.00
C282   C     0.30605   0.36823   0.42784   0.00000  Uiso   1.00
C283   C     0.36354   0.28904   0.46217   0.00000  Uiso   1.00
C284   C     0.33624   0.19188   0.45250   0.00000  Uiso   1.00
C285   C     0.32304   0.02051   0.45398   0.00000  Uiso   1.00
C286   C     0.31819   0.53415   0.47435   0.00000  Uiso   1.00
C287   C     0.38589   0.59445   0.54779   0.00000  Uiso   1.00
C288   C     0.36881   0.63696   0.57730   0.00000  Uiso   1.00
C289   C     0.37446   0.72321   0.65098   0.00000  Uiso   1.00
C290   C     0.17189   0.44857   0.35290   0.00000  Uiso   1.00
C291   C     0.15839   0.49949   0.29499   0.00000  Uiso   1.00
C292   C     0.07566   0.52728   0.20926   0.00000  Uiso   1.00
C293   C     0.07768   0.57297   0.16745   0.00000  Uiso   1.00
C294   C     0.22421   0.35100   0.38539   0.00000  Uiso   1.00
C295   C     0.19682   0.25394   0.37568   0.00000  Uiso   1.00
C296   C     0.25425   0.17462   0.40997   0.00000  Uiso   1.00
C297   C     0.23634   0.51693   0.43189   0.00000  Uiso   1.00
C298   C     0.21916   0.55935   0.46130   0.00000  Uiso   1.00
C299   C     0.28682   0.61970   0.53477   0.00000  Uiso   1.00
H300   H     0.38631   0.49370   0.46413   0.00000  Uiso   1.00
H301   H     0.30574   0.57569   0.32863   0.00000  Uiso   1.00
H302   H     0.42688   0.30240   0.49503   0.00000  Uiso   1.00
H303   H     0.44922   0.60776   0.58063   0.00000  Uiso   1.00
H304   H     0.18031   0.65896   0.15967   0.00000  Uiso   1.00
H305   H     0.43576   0.08271   0.51055   0.00000  Uiso   1.00
H306   H     0.48287   0.72663   0.69108   0.00000  Uiso   1.00
H307   H     0.10817   0.43515   0.31985   0.00000  Uiso   1.00
H308   H     0.01233   0.51394   0.17642   0.00000  Uiso   1.00
H309   H     0.13348   0.24064   0.34282   0.00000  Uiso   1.00
H310   H     0.15582   0.54600   0.42843   0.00000  Uiso   1.00
H311   H     0.94217   0.60884   0.03613   0.00000  Uiso   1.00
H312   H     0.19763   0.03258   0.38702   0.00000  Uiso   1.00
H313   H     0.24474   0.67650   0.56754   0.00000  Uiso   1.00
O314   O     0.00321   0.68675   0.00615   0.00000  Uiso   1.00
O315   O     0.33837   0.93074   0.46651   0.00000  Uiso   1.00
O316   O     0.40017   0.77555   0.70335   0.00000  Uiso   1.00
N317   N     0.13742   0.63637   0.15028   0.00000  Uiso   1.00
N318   N     0.37624   0.09761   0.47832   0.00000  Uiso   1.00
N319   N     0.42030   0.69960   0.64711   0.00000  Uiso   1.00
N320   N     0.00928   0.60940   0.08381   0.00000  Uiso   1.00
N321   N     0.24811   0.07064   0.41185   0.00000  Uiso   1.00
N322   N     0.29216   0.67263   0.58064   0.00000  Uiso   1.00
C323   C     0.82258   0.98029   0.43107   0.00000  Uiso   1.00
C324   C     0.74024   0.01673   0.33745   0.00000  Uiso   1.00
C325   C     0.74238   0.06238   0.29575   0.00000  Uiso   1.00
C326   C     0.65967   0.09022   0.20998   0.00000  Uiso   1.00
C327   C     0.54426   0.14938   0.07105   0.00000  Uiso   1.00
C328   C     0.80605   0.86823   0.42784   0.00000  Uiso   1.00
C329   C     0.86354   0.78904   0.46217   0.00000  Uiso   1.00
C330   C     0.83624   0.69188   0.45250   0.00000  Uiso   1.00
C331   C     0.82304   0.52051   0.45398   0.00000  Uiso   1.00
C332   C     0.81819   0.03415   0.47435   0.00000  Uiso   1.00
C333   C     0.88589   0.09445   0.54779   0.00000  Uiso   1.00
C334   C     0.86881   0.13696   0.57730   0.00000  Uiso   1.00
C335   C     0.87446   0.22321   0.65098   0.00000  Uiso   1.00
C336   C     0.67189   0.94857   0.35290   0.00000  Uiso   1.00
C337   C     0.65839   0.99949   0.29499   0.00000  Uiso   1.00
C338   C     0.57566   0.02728   0.20926   0.00000  Uiso   1.00
C339   C     0.57768   0.07297   0.16745   0.00000  Uiso   1.00
C340   C     0.72421   0.85100   0.38539   0.00000  Uiso   1.00
C341   C     0.69682   0.75394   0.37568   0.00000  Uiso   1.00
C342   C     0.75425   0.67462   0.40997   0.00000  Uiso   1.00
C343   C     0.73634   0.01693   0.43189   0.00000  Uiso   1.00
C344   C     0.71916   0.05935   0.46130   0.00000  Uiso   1.00
C345   C     0.78682   0.11970   0.53477   0.00000  Uiso   1.00
H346   H     0.88631   0.99370   0.46413   0.00000  Uiso   1.00
H347   H     0.80574   0.07569   0.32863   0.00000  Uiso   1.00
H348   H     0.92688   0.80240   0.49503   0.00000  Uiso   1.00
H349   H     0.94922   0.10776   0.58063   0.00000  Uiso   1.00
H350   H     0.68031   0.15896   0.15967   0.00000  Uiso   1.00
H351   H     0.93576   0.58271   0.51055   0.00000  Uiso   1.00
H352   H     0.98287   0.22663   0.69108   0.00000  Uiso   1.00
H353   H     0.60817   0.93515   0.31985   0.00000  Uiso   1.00
H354   H     0.51233   0.01394   0.17642   0.00000  Uiso   1.00
H355   H     0.63348   0.74064   0.34282   0.00000  Uiso   1.00
H356   H     0.65582   0.04600   0.42843   0.00000  Uiso   1.00
H357   H     0.44217   0.10884   0.03613   0.00000  Uiso   1.00
H358   H     0.69763   0.53258   0.38702   0.00000  Uiso   1.00
H359   H     0.74474   0.17650   0.56754   0.00000  Uiso   1.00
O360   O     0.50321   0.18675   0.00615   0.00000  Uiso   1.00
O361   O     0.83837   0.43074   0.46651   0.00000  Uiso   1.00
O362   O     0.90017   0.27555   0.70335   0.00000  Uiso   1.00
N363   N     0.63742   0.13637   0.15028   0.00000  Uiso   1.00
N364   N     0.87624   0.59761   0.47832   0.00000  Uiso   1.00
N365   N     0.92030   0.19960   0.64711   0.00000  Uiso   1.00
N366   N     0.50928   0.10940   0.08381   0.00000  Uiso   1.00
N367   N     0.74811   0.57064   0.41185   0.00000  Uiso   1.00
N368   N     0.79216   0.17263   0.58064   0.00000  Uiso   1.00
