data_job_07021
_audit_creation_date              2018-12-19
_audit_creation_method            'Materials Studio'
_symmetry_space_group_name_H-M    'P1'
_symmetry_Int_Tables_number       1
_symmetry_cell_setting            triclinic
loop_
_symmetry_equiv_pos_as_xyz
  x,y,z
_cell_length_a                    20.8591
_cell_length_b                    20.9635
_cell_length_c                    24.4170
_cell_angle_alpha                 85.6375
_cell_angle_beta                  104.6906
_cell_angle_gamma                 119.7011
loop_
_atom_site_label
_atom_site_type_symbol
_atom_site_fract_x
_atom_site_fract_y
_atom_site_fract_z
_atom_site_U_iso_or_equiv
_atom_site_adp_type
_atom_site_occupancy
C1     C     0.52208   0.86557   0.92809   0.00000  Uiso   1.00
C2     C     0.46563   0.88564   0.93983   0.00000  Uiso   1.00
C3     C     0.43168   0.86343   0.98499   0.00000  Uiso   1.00
C4     C     0.38161   0.88763   0.98825   0.00000  Uiso   1.00
C5     C     0.29629   0.91193   0.01261   0.00000  Uiso   1.00
C6     C     0.48791   0.82930   0.86824   0.00000  Uiso   1.00
C7     C     0.47270   0.75972   0.85323   0.00000  Uiso   1.00
C8     C     0.44140   0.73651   0.79622   0.00000  Uiso   1.00
C9     C     0.39071   0.67337   0.70944   0.00000  Uiso   1.00
C10    C     0.59314   0.93831   0.92512   0.00000  Uiso   1.00
C11    C     0.66641   0.96038   0.95792   0.00000  Uiso   1.00
C12    C     0.72371   0.02894   0.94879   0.00000  Uiso   1.00
C13    C     0.83642   0.13505   0.95034   0.00000  Uiso   1.00
C14    C     0.49356   0.94806   0.85356   0.00000  Uiso   1.00
C15    C     0.45014   0.93044   0.89934   0.00000  Uiso   1.00
C16    C     0.40012   0.95468   0.90253   0.00000  Uiso   1.00
C17    C     0.36609   0.93251   0.94769   0.00000  Uiso   1.00
C18    C     0.47242   0.87410   0.82776   0.00000  Uiso   1.00
C19    C     0.44114   0.85098   0.77076   0.00000  Uiso   1.00
C20    C     0.42587   0.78139   0.75566   0.00000  Uiso   1.00
C21    C     0.57765   0.98311   0.88464   0.00000  Uiso   1.00
C22    C     0.63485   0.05164   0.87546   0.00000  Uiso   1.00
C23    C     0.70819   0.07382   0.90824   0.00000  Uiso   1.00
H24    H     0.53414   0.83069   0.95961   0.00000  Uiso   1.00
H25    H     0.44368   0.82875   0.01631   0.00000  Uiso   1.00
H26    H     0.48470   0.72507   0.88456   0.00000  Uiso   1.00
H27    H     0.67838   0.92570   0.98924   0.00000  Uiso   1.00
H28    H     0.33653   0.84633   0.06131   0.00000  Uiso   1.00
H29    H     0.42305   0.62772   0.78351   0.00000  Uiso   1.00
H30    H     0.83147   0.05079   0.00425   0.00000  Uiso   1.00
H31    H     0.48149   0.98294   0.82204   0.00000  Uiso   1.00
H32    H     0.38814   0.98935   0.87119   0.00000  Uiso   1.00
H33    H     0.42916   0.88567   0.73945   0.00000  Uiso   1.00
H34    H     0.62284   0.08630   0.84413   0.00000  Uiso   1.00
H35    H     0.29144   0.97668   0.94353   0.00000  Uiso   1.00
H36    H     0.37797   0.75807   0.66573   0.00000  Uiso   1.00
H37    H     0.78638   0.18114   0.88647   0.00000  Uiso   1.00
O38    O     0.25351   0.91295   0.03722   0.00000  Uiso   1.00
O39    O     0.36703   0.62616   0.67277   0.00000  Uiso   1.00
O40    O     0.90286   0.18121   0.96237   0.00000  Uiso   1.00
N41    N     0.33874   0.87614   0.02685   0.00000  Uiso   1.00
N42    N     0.41962   0.67175   0.76713   0.00000  Uiso   1.00
N43    N     0.80146   0.06727   0.97349   0.00000  Uiso   1.00
N44    N     0.31448   0.94628   0.96347   0.00000  Uiso   1.00
N45    N     0.39536   0.74189   0.70375   0.00000  Uiso   1.00
N46    N     0.77720   0.13741   0.91011   0.00000  Uiso   1.00
C47    C     0.12108   0.30381   0.93230   0.00000  Uiso   1.00
C48    C     0.18393   0.34226   0.90089   0.00000  Uiso   1.00
C49    C     0.24719   0.41178   0.91536   0.00000  Uiso   1.00
C50    C     0.29814   0.43719   0.88124   0.00000  Uiso   1.00
C51    C     0.39752   0.50341   0.83957   0.00000  Uiso   1.00
C52    C     0.04667   0.28474   0.88837   0.00000  Uiso   1.00
C53    C     0.99453   0.30588   0.89233   0.00000  Uiso   1.00
C54    C     0.92993   0.28287   0.84768   0.00000  Uiso   1.00
C55    C     0.81620   0.25974   0.78661   0.00000  Uiso   1.00
C56    C     0.11756   0.23063   0.94849   0.00000  Uiso   1.00
C57    C     0.12499   0.20626   0.00298   0.00000  Uiso   1.00
C58    C     0.12005   0.13768   0.00894   0.00000  Uiso   1.00
C59    C     0.11637   0.03053   0.04121   0.00000  Uiso   1.00
C60    C     0.09907   0.22533   0.84598   0.00000  Uiso   1.00
C61    C     0.17197   0.29964   0.85400   0.00000  Uiso   1.00
C62    C     0.22283   0.32495   0.81985   0.00000  Uiso   1.00
C63    C     0.28616   0.39449   0.83427   0.00000  Uiso   1.00
C64    C     0.03471   0.24212   0.84149   0.00000  Uiso   1.00
C65    C     0.97017   0.21906   0.79682   0.00000  Uiso   1.00
C66    C     0.91795   0.24017   0.80071   0.00000  Uiso   1.00
C67    C     0.10560   0.18801   0.90160   0.00000  Uiso   1.00
C68    C     0.10064   0.11945   0.90748   0.00000  Uiso   1.00
C69    C     0.10807   0.09498   0.96197   0.00000  Uiso   1.00
H70    H     0.13039   0.33699   0.96880   0.00000  Uiso   1.00
H71    H     0.25642   0.44475   0.95164   0.00000  Uiso   1.00
H72    H     0.00380   0.33886   0.92862   0.00000  Uiso   1.00
H73    H     0.13424   0.23926   0.03926   0.00000  Uiso   1.00
H74    H     0.39086   0.54543   0.91193   0.00000  Uiso   1.00
H75    H     0.85818   0.32215   0.86339   0.00000  Uiso   1.00
H76    H     0.13325   0.11212   0.09669   0.00000  Uiso   1.00
H77    H     0.08975   0.19215   0.80947   0.00000  Uiso   1.00
H78    H     0.21356   0.29196   0.78357   0.00000  Uiso   1.00
H79    H     0.96094   0.18608   0.76055   0.00000  Uiso   1.00
H80    H     0.09138   0.08648   0.87118   0.00000  Uiso   1.00
H81    H     0.35607   0.42142   0.77551   0.00000  Uiso   1.00
H82    H     0.82339   0.19814   0.72698   0.00000  Uiso   1.00
H83    H     0.09846   0.98811   0.96027   0.00000  Uiso   1.00
O84    O     0.45563   0.55171   0.82954   0.00000  Uiso   1.00
O85    O     0.75677   0.25876   0.76587   0.00000  Uiso   1.00
O86    O     0.11765   0.98321   0.07195   0.00000  Uiso   1.00
N87    N     0.36569   0.50254   0.88338   0.00000  Uiso   1.00
N88    N     0.86767   0.29380   0.83800   0.00000  Uiso   1.00
N89    N     0.12481   0.09743   0.05611   0.00000  Uiso   1.00
N90    N     0.34697   0.43581   0.80998   0.00000  Uiso   1.00
N91    N     0.84896   0.22707   0.76460   0.00000  Uiso   1.00
N92    N     0.10610   0.03070   0.98271   0.00000  Uiso   1.00
C93    C     0.83471   0.53163   0.92273   0.00000  Uiso   1.00
C94    C     0.79978   0.44927   0.93082   0.00000  Uiso   1.00
C95    C     0.82803   0.41670   0.97463   0.00000  Uiso   1.00
C96    C     0.78783   0.34048   0.97450   0.00000  Uiso   1.00
C97    C     0.74366   0.21899   0.99351   0.00000  Uiso   1.00
C98    C     0.84894   0.54231   0.86359   0.00000  Uiso   1.00
C99    C     0.91853   0.58798   0.85088   0.00000  Uiso   1.00
C100   C     0.91970   0.59010   0.79416   0.00000  Uiso   1.00
C101   C     0.95185   0.61311   0.70879   0.00000  Uiso   1.00
C102   C     0.77205   0.55024   0.92022   0.00000  Uiso   1.00
C103   C     0.77700   0.60259   0.95511   0.00000  Uiso   1.00
C104   C     0.71345   0.61139   0.94605   0.00000  Uiso   1.00
C105   C     0.62622   0.64671   0.94861   0.00000  Uiso   1.00
C106   C     0.71306   0.45420   0.84459   0.00000  Uiso   1.00
C107   C     0.73370   0.40721   0.88838   0.00000  Uiso   1.00
C108   C     0.69344   0.33103   0.88819   0.00000  Uiso   1.00
C109   C     0.72164   0.29835   0.93199   0.00000  Uiso   1.00
C110   C     0.78287   0.50026   0.82115   0.00000  Uiso   1.00
C111   C     0.78394   0.50232   0.76443   0.00000  Uiso   1.00
C112   C     0.85351   0.54797   0.75164   0.00000  Uiso   1.00
C113   C     0.70598   0.50819   0.87778   0.00000  Uiso   1.00
C114   C     0.64241   0.51692   0.86867   0.00000  Uiso   1.00
C115   C     0.64726   0.56926   0.90354   0.00000  Uiso   1.00
H116   H     0.88615   0.56437   0.95577   0.00000  Uiso   1.00
H117   H     0.87917   0.44926   0.00747   0.00000  Uiso   1.00
H118   H     0.96965   0.62053   0.88373   0.00000  Uiso   1.00
H119   H     0.82814   0.63512   0.98795   0.00000  Uiso   1.00
H120   H     0.84231   0.30309   0.04606   0.00000  Uiso   1.00
H121   H     0.03308   0.66423   0.78516   0.00000  Uiso   1.00
H122   H     0.73469   0.69502   0.00492   0.00000  Uiso   1.00
H123   H     0.66162   0.42146   0.81155   0.00000  Uiso   1.00
H124   H     0.64231   0.29850   0.85534   0.00000  Uiso   1.00
H125   H     0.73279   0.46977   0.73160   0.00000  Uiso   1.00
H126   H     0.59129   0.48436   0.83582   0.00000  Uiso   1.00
H127   H     0.65007   0.18073   0.92258   0.00000  Uiso   1.00
H128   H     0.84084   0.54187   0.66168   0.00000  Uiso   1.00
H129   H     0.54245   0.57265   0.88144   0.00000  Uiso   1.00
O130   O     0.73756   0.16360   0.01571   0.00000  Uiso   1.00
O131   O     0.98783   0.63742   0.67342   0.00000  Uiso   1.00
O132   O     0.59635   0.67780   0.96175   0.00000  Uiso   1.00
N133   N     0.79971   0.29117   0.01099   0.00000  Uiso   1.00
N134   N     0.97807   0.62880   0.76707   0.00000  Uiso   1.00
N135   N     0.69910   0.65760   0.97252   0.00000  Uiso   1.00
N136   N     0.69626   0.22532   0.94455   0.00000  Uiso   1.00
N137   N     0.87462   0.56296   0.70063   0.00000  Uiso   1.00
N138   N     0.59566   0.59176   0.90607   0.00000  Uiso   1.00
C139   C     0.41994   0.02527   0.38078   0.00000  Uiso   1.00
C140   C     0.37360   0.02266   0.42105   0.00000  Uiso   1.00
C141   C     0.40040   0.07080   0.46779   0.00000  Uiso   1.00
C142   C     0.34906   0.05917   0.49927   0.00000  Uiso   1.00
C143   C     0.28858   0.06390   0.56404   0.00000  Uiso   1.00
C144   C     0.37665   0.03040   0.32160   0.00000  Uiso   1.00
C145   C     0.40603   0.08504   0.28472   0.00000  Uiso   1.00
C146   C     0.35726   0.07992   0.23248   0.00000  Uiso   1.00
C147   C     0.30153   0.09665   0.14283   0.00000  Uiso   1.00
C148   C     0.41441   0.94995   0.38105   0.00000  Uiso   1.00
C149   C     0.47552   0.93695   0.39413   0.00000  Uiso   1.00
C150   C     0.45854   0.86409   0.39193   0.00000  Uiso   1.00
C151   C     0.46142   0.75590   0.39457   0.00000  Uiso   1.00
C152   C     0.28109   0.91900   0.35358   0.00000  Uiso   1.00
C153   C     0.29819   0.96493   0.40628   0.00000  Uiso   1.00
C154   C     0.24679   0.95322   0.43770   0.00000  Uiso   1.00
C155   C     0.27351   0.00134   0.48448   0.00000  Uiso   1.00
C156   C     0.30124   0.97268   0.30683   0.00000  Uiso   1.00
C157   C     0.25242   0.96747   0.25463   0.00000  Uiso   1.00
C158   C     0.28171   0.02209   0.21768   0.00000  Uiso   1.00
C159   C     0.33899   0.89222   0.36627   0.00000  Uiso   1.00
C160   C     0.32191   0.81937   0.36405   0.00000  Uiso   1.00
C161   C     0.38299   0.80626   0.37713   0.00000  Uiso   1.00
H162   H     0.47865   0.07021   0.39228   0.00000  Uiso   1.00
H163   H     0.45877   0.11547   0.47920   0.00000  Uiso   1.00
H164   H     0.46440   0.12970   0.29616   0.00000  Uiso   1.00
H165   H     0.53387   0.98163   0.40556   0.00000  Uiso   1.00
H166   H     0.40346   0.14020   0.56905   0.00000  Uiso   1.00
H167   H     0.41534   0.17020   0.18309   0.00000  Uiso   1.00
H168   H     0.56185   0.85796   0.41377   0.00000  Uiso   1.00
H169   H     0.22238   0.87406   0.34208   0.00000  Uiso   1.00
H170   H     0.18844   0.90855   0.42626   0.00000  Uiso   1.00
H171   H     0.19406   0.92279   0.24321   0.00000  Uiso   1.00
H172   H     0.26354   0.77472   0.35261   0.00000  Uiso   1.00
H173   H     0.18405   0.97226   0.52608   0.00000  Uiso   1.00
H174   H     0.19593   0.00226   0.14011   0.00000  Uiso   1.00
H175   H     0.34243   0.69002   0.37080   0.00000  Uiso   1.00
O176   O     0.27604   0.08247   0.60384   0.00000  Uiso   1.00
O177   O     0.29163   0.12183   0.09746   0.00000  Uiso   1.00
O178   O     0.48384   0.71218   0.40012   0.00000  Uiso   1.00
N179   N     0.35649   0.09593   0.54740   0.00000  Uiso   1.00
N180   N     0.36758   0.12399   0.18654   0.00000  Uiso   1.00
N181   N     0.50456   0.83207   0.40220   0.00000  Uiso   1.00
N182   N     0.23842   0.00556   0.52427   0.00000  Uiso   1.00
N183   N     0.24952   0.03362   0.16342   0.00000  Uiso   1.00
N184   N     0.38650   0.74171   0.37908   0.00000  Uiso   1.00
C185   C     0.16726   0.45911   0.39331   0.00000  Uiso   1.00
C186   C     0.24701   0.47408   0.39454   0.00000  Uiso   1.00
C187   C     0.30392   0.48444   0.44295   0.00000  Uiso   1.00
C188   C     0.37296   0.49744   0.43511   0.00000  Uiso   1.00
C189   C     0.49501   0.52026   0.44528   0.00000  Uiso   1.00
C190   C     0.11204   0.38734   0.35754   0.00000  Uiso   1.00
C191   C     0.05547   0.32478   0.37485   0.00000  Uiso   1.00
C192   C     0.01088   0.26477   0.33586   0.00000  Uiso   1.00
C193   C     0.92336   0.15295   0.28858   0.00000  Uiso   1.00
C194   C     0.15738   0.51911   0.35930   0.00000  Uiso   1.00
C195   C     0.13892   0.56733   0.37807   0.00000  Uiso   1.00
C196   C     0.13249   0.61825   0.34055   0.00000  Uiso   1.00
C197   C     0.11536   0.71101   0.29599   0.00000  Uiso   1.00
C198   C     0.18865   0.46379   0.29328   0.00000  Uiso   1.00
C199   C     0.25862   0.47662   0.34020   0.00000  Uiso   1.00
C200   C     0.32759   0.48962   0.33228   0.00000  Uiso   1.00
C201   C     0.38460   0.49999   0.38067   0.00000  Uiso   1.00
C202   C     0.12365   0.38988   0.30321   0.00000  Uiso   1.00
C203   C     0.07914   0.32996   0.26418   0.00000  Uiso   1.00
C204   C     0.02252   0.26732   0.28142   0.00000  Uiso   1.00
C205   C     0.16900   0.52165   0.30496   0.00000  Uiso   1.00
C206   C     0.16259   0.57251   0.26740   0.00000  Uiso   1.00
C207   C     0.14412   0.62079   0.28611   0.00000  Uiso   1.00
H208   H     0.15821   0.45713   0.43561   0.00000  Uiso   1.00
H209   H     0.29491   0.48246   0.48500   0.00000  Uiso   1.00
H210   H     0.04649   0.32283   0.41690   0.00000  Uiso   1.00
H211   H     0.12993   0.56534   0.42012   0.00000  Uiso   1.00
H212   H     0.45158   0.51164   0.51579   0.00000  Uiso   1.00
H213   H     0.92776   0.17506   0.37220   0.00000  Uiso   1.00
H214   H     0.10371   0.68644   0.37899   0.00000  Uiso   1.00
H215   H     0.19769   0.46577   0.25097   0.00000  Uiso   1.00
H216   H     0.33656   0.49158   0.29022   0.00000  Uiso   1.00
H217   H     0.08814   0.33195   0.22213   0.00000  Uiso   1.00
H218   H     0.17158   0.57446   0.22535   0.00000  Uiso   1.00
H219   H     0.48538   0.51904   0.35770   0.00000  Uiso   1.00
H220   H     0.96156   0.18246   0.21412   0.00000  Uiso   1.00
H221   H     0.13751   0.69384   0.22091   0.00000  Uiso   1.00
O222   O     0.55911   0.53214   0.46590   0.00000  Uiso   1.00
O223   O     0.87187   0.09056   0.27752   0.00000  Uiso   1.00
O224   O     0.10272   0.76149   0.28643   0.00000  Uiso   1.00
N225   N     0.44048   0.50986   0.47319   0.00000  Uiso   1.00
N226   N     0.95075   0.19517   0.33895   0.00000  Uiso   1.00
N227   N     0.11523   0.67325   0.34530   0.00000  Uiso   1.00
N228   N     0.45867   0.51384   0.38813   0.00000  Uiso   1.00
N229   N     0.96894   0.19915   0.25389   0.00000  Uiso   1.00
N230   N     0.13342   0.67724   0.26023   0.00000  Uiso   1.00
C231   C     0.89840   0.78089   0.38312   0.00000  Uiso   1.00
C232   C     0.87204   0.83697   0.38316   0.00000  Uiso   1.00
C233   C     0.91909   0.91147   0.39846   0.00000  Uiso   1.00
C234   C     0.88392   0.95356   0.39563   0.00000  Uiso   1.00
C235   C     0.85507   0.04541   0.39833   0.00000  Uiso   1.00
C236   C     0.86552   0.74525   0.32310   0.00000  Uiso   1.00
C237   C     0.90710   0.74262   0.28790   0.00000  Uiso   1.00
C238   C     0.86645   0.70749   0.23451   0.00000  Uiso   1.00
C239   C     0.82747   0.65689   0.14398   0.00000  Uiso   1.00
C240   C     0.85750   0.72089   0.42100   0.00000  Uiso   1.00
C241   C     0.89232   0.69776   0.46811   0.00000  Uiso   1.00
C242   C     0.84490   0.64210   0.49713   0.00000  Uiso   1.00
C243   C     0.79346   0.55369   0.55859   0.00000  Uiso   1.00
C244   C     0.75227   0.72315   0.35088   0.00000  Uiso   1.00
C245   C     0.79267   0.80560   0.36565   0.00000  Uiso   1.00
C246   C     0.75742   0.84759   0.36279   0.00000  Uiso   1.00
C247   C     0.80441   0.92214   0.37809   0.00000  Uiso   1.00
C248   C     0.78616   0.71388   0.30559   0.00000  Uiso   1.00
C249   C     0.74543   0.67874   0.25223   0.00000  Uiso   1.00
C250   C     0.78693   0.67607   0.21696   0.00000  Uiso   1.00
C251   C     0.77812   0.68952   0.40348   0.00000  Uiso   1.00
C252   C     0.73064   0.63388   0.43243   0.00000  Uiso   1.00
C253   C     0.76539   0.61068   0.47958   0.00000  Uiso   1.00
H254   H     0.96019   0.80530   0.39675   0.00000  Uiso   1.00
H255   H     0.98051   0.93572   0.41201   0.00000  Uiso   1.00
H256   H     0.96852   0.76689   0.30147   0.00000  Uiso   1.00
H257   H     0.95374   0.72204   0.48165   0.00000  Uiso   1.00
H258   H     0.96804   0.06648   0.42118   0.00000  Uiso   1.00
H259   H     0.94276   0.71048   0.18811   0.00000  Uiso   1.00
H260   H     0.91159   0.61591   0.56805   0.00000  Uiso   1.00
H261   H     0.69047   0.69873   0.33724   0.00000  Uiso   1.00
H262   H     0.69599   0.82330   0.34924   0.00000  Uiso   1.00
H263   H     0.68401   0.65447   0.23870   0.00000  Uiso   1.00
H264   H     0.66922   0.60963   0.41887   0.00000  Uiso   1.00
H265   H     0.73712   0.97524   0.37023   0.00000  Uiso   1.00
H266   H     0.71183   0.61923   0.13716   0.00000  Uiso   1.00
H267   H     0.68066   0.52467   0.51709   0.00000  Uiso   1.00
O268   O     0.86108   0.10474   0.40465   0.00000  Uiso   1.00
O269   O     0.82791   0.63766   0.09888   0.00000  Uiso   1.00
O270   O     0.78701   0.51359   0.59734   0.00000  Uiso   1.00
N271   N     0.91293   0.02791   0.40756   0.00000  Uiso   1.00
N272   N     0.88930   0.69508   0.18965   0.00000  Uiso   1.00
N273   N     0.86016   0.60665   0.54484   0.00000  Uiso   1.00
N274   N     0.78868   0.97882   0.38014   0.00000  Uiso   1.00
N275   N     0.76504   0.64598   0.16223   0.00000  Uiso   1.00
N276   N     0.73590   0.55755   0.51743   0.00000  Uiso   1.00
C277   C     0.54273   0.08290   0.18122   0.00000  Uiso   1.00
C278   C     0.60485   0.06701   0.17592   0.00000  Uiso   1.00
C279   C     0.63897   0.08437   0.13091   0.00000  Uiso   1.00
C280   C     0.69466   0.06525   0.13405   0.00000  Uiso   1.00
C281   C     0.78798   0.04598   0.11875   0.00000  Uiso   1.00
C282   C     0.57333   0.12824   0.23708   0.00000  Uiso   1.00
C283   C     0.58093   0.19706   0.24349   0.00000  Uiso   1.00
C284   C     0.61008   0.22947   0.29812   0.00000  Uiso   1.00
C285   C     0.65441   0.30522   0.37778   0.00000  Uiso   1.00
C286   C     0.47624   0.00904   0.18934   0.00000  Uiso   1.00
C287   C     0.40220   0.97764   0.15563   0.00000  Uiso   1.00
C288   C     0.34961   0.90970   0.17008   0.00000  Uiso   1.00
C289   C     0.24319   0.80038   0.17562   0.00000  Uiso   1.00
C290   C     0.58097   0.01809   0.26683   0.00000  Uiso   1.00
C291   C     0.62562   0.03182   0.22242   0.00000  Uiso   1.00
C292   C     0.68127   0.01267   0.22563   0.00000  Uiso   1.00
C293   C     0.71547   0.02999   0.18063   0.00000  Uiso   1.00
C294   C     0.59409   0.09304   0.28358   0.00000  Uiso   1.00
C295   C     0.62324   0.12535   0.33821   0.00000  Uiso   1.00
C296   C     0.63089   0.19421   0.34471   0.00000  Uiso   1.00
C297   C     0.49701   0.97383   0.23584   0.00000  Uiso   1.00
C298   C     0.44451   0.90594   0.25035   0.00000  Uiso   1.00
C299   C     0.37041   0.87444   0.21666   0.00000  Uiso   1.00
H300   H     0.52657   0.11031   0.14502   0.00000  Uiso   1.00
H301   H     0.62288   0.11162   0.09493   0.00000  Uiso   1.00
H302   H     0.56485   0.22428   0.20750   0.00000  Uiso   1.00
H303   H     0.38615   0.00490   0.11965   0.00000  Uiso   1.00
H304   H     0.73885   0.09757   0.05992   0.00000  Uiso   1.00
H305   H     0.61646   0.33512   0.29727   0.00000  Uiso   1.00
H306   H     0.23964   0.87251   0.11202   0.00000  Uiso   1.00
H307   H     0.59714   0.99068   0.30304   0.00000  Uiso   1.00
H308   H     0.69733   0.98543   0.26162   0.00000  Uiso   1.00
H309   H     0.63930   0.09810   0.37419   0.00000  Uiso   1.00
H310   H     0.46060   0.87871   0.28634   0.00000  Uiso   1.00
H311   H     0.79928   0.99515   0.19521   0.00000  Uiso   1.00
H312   H     0.67688   0.23270   0.43256   0.00000  Uiso   1.00
H313   H     0.30007   0.77009   0.24731   0.00000  Uiso   1.00
O314   O     0.83372   0.04508   0.09747   0.00000  Uiso   1.00
O315   O     0.67313   0.35673   0.40888   0.00000  Uiso   1.00
O316   O     0.17875   0.74980   0.16583   0.00000  Uiso   1.00
N317   N     0.73931   0.07417   0.09744   0.00000  Uiso   1.00
N318   N     0.62489   0.29627   0.31935   0.00000  Uiso   1.00
N319   N     0.27259   0.86378   0.14616   0.00000  Uiso   1.00
N320   N     0.77183   0.01906   0.17023   0.00000  Uiso   1.00
N321   N     0.65741   0.24116   0.39215   0.00000  Uiso   1.00
N322   N     0.30511   0.80867   0.21896   0.00000  Uiso   1.00
C323   C     0.54684   0.46269   0.15244   0.00000  Uiso   1.00
C324   C     0.47025   0.41028   0.16545   0.00000  Uiso   1.00
C325   C     0.41437   0.34475   0.13506   0.00000  Uiso   1.00
C326   C     0.34830   0.30464   0.15377   0.00000  Uiso   1.00
C327   C     0.23087   0.21949   0.16678   0.00000  Uiso   1.00
C328   C     0.60738   0.47157   0.20639   0.00000  Uiso   1.00
C329   C     0.66681   0.45758   0.21043   0.00000  Uiso   1.00
C330   C     0.71618   0.46908   0.26360   0.00000  Uiso   1.00
C331   C     0.81168   0.47915   0.34017   0.00000  Uiso   1.00
C332   C     0.55058   0.53726   0.14527   0.00000  Uiso   1.00
C333   C     0.56226   0.57853   0.09793   0.00000  Uiso   1.00
C334   C     0.56382   0.64534   0.09965   0.00000  Uiso   1.00
C335   C     0.57113   0.75740   0.08132   0.00000  Uiso   1.00
C336   C     0.52886   0.50799   0.23969   0.00000  Uiso   1.00
C337   C     0.46049   0.43488   0.21285   0.00000  Uiso   1.00
C338   C     0.39448   0.39487   0.23160   0.00000  Uiso   1.00
C339   C     0.33851   0.32929   0.20125   0.00000  Uiso   1.00
C340   C     0.59762   0.49617   0.25379   0.00000  Uiso   1.00
C341   C     0.64691   0.50770   0.30696   0.00000  Uiso   1.00
C342   C     0.70640   0.49373   0.31108   0.00000  Uiso   1.00
C343   C     0.54081   0.56187   0.19267   0.00000  Uiso   1.00
C344   C     0.54236   0.62864   0.19446   0.00000  Uiso   1.00
C345   C     0.55404   0.66999   0.14713   0.00000  Uiso   1.00
H346   H     0.55445   0.44354   0.11554   0.00000  Uiso   1.00
H347   H     0.42196   0.32572   0.09839   0.00000  Uiso   1.00
H348   H     0.67436   0.43855   0.17374   0.00000  Uiso   1.00
H349   H     0.56982   0.55947   0.06126   0.00000  Uiso   1.00
H350   H     0.27077   0.20594   0.10029   0.00000  Uiso   1.00
H351   H     0.80298   0.44387   0.25917   0.00000  Uiso   1.00
H352   H     0.58255   0.69885   0.02197   0.00000  Uiso   1.00
H353   H     0.52126   0.52715   0.27660   0.00000  Uiso   1.00
H354   H     0.38694   0.41392   0.26828   0.00000  Uiso   1.00
H355   H     0.63934   0.52675   0.34363   0.00000  Uiso   1.00
H356   H     0.53480   0.64766   0.23115   0.00000  Uiso   1.00
H357   H     0.24235   0.27752   0.23818   0.00000  Uiso   1.00
H358   H     0.77456   0.51545   0.39705   0.00000  Uiso   1.00
H359   H     0.55413   0.77043   0.15986   0.00000  Uiso   1.00
O360   O     0.16881   0.16573   0.16087   0.00000  Uiso   1.00
O361   O     0.86706   0.47789   0.36931   0.00000  Uiso   1.00
O362   O     0.57785   0.81241   0.05811   0.00000  Uiso   1.00
N363   N     0.28251   0.23833   0.13387   0.00000  Uiso   1.00
N364   N     0.78009   0.46077   0.28242   0.00000  Uiso   1.00
N365   N     0.57402   0.69916   0.06067   0.00000  Uiso   1.00
N366   N     0.26721   0.27685   0.20807   0.00000  Uiso   1.00
N367   N     0.76479   0.49929   0.35661   0.00000  Uiso   1.00
N368   N     0.55873   0.73768   0.13486   0.00000  Uiso   1.00
C369   C     0.81816   0.28270   0.15815   0.00000  Uiso   1.00
C370   C     0.78822   0.33468   0.13339   0.00000  Uiso   1.00
C371   C     0.71953   0.31482   0.09387   0.00000  Uiso   1.00
C372   C     0.70247   0.37048   0.07654   0.00000  Uiso   1.00
C373   C     0.64837   0.44009   0.03486   0.00000  Uiso   1.00
C374   C     0.83310   0.29124   0.22234   0.00000  Uiso   1.00
C375   C     0.80216   0.23486   0.25761   0.00000  Uiso   1.00
C376   C     0.82290   0.25396   0.31516   0.00000  Uiso   1.00
C377   C     0.83852   0.25613   0.41158   0.00000  Uiso   1.00
C378   C     0.89610   0.31414   0.14580   0.00000  Uiso   1.00
C379   C     0.91815   0.27701   0.11671   0.00000  Uiso   1.00
C380   C     0.99193   0.31539   0.10982   0.00000  Uiso   1.00
C381   C     0.10537   0.35311   0.08738   0.00000  Uiso   1.00
C382   C     0.91000   0.41688   0.19765   0.00000  Uiso   1.00
C383   C     0.83810   0.40755   0.15485   0.00000  Uiso   1.00
C384   C     0.82114   0.46327   0.13757   0.00000  Uiso   1.00
C385   C     0.75244   0.44350   0.09803   0.00000  Uiso   1.00
C386   C     0.88298   0.36411   0.24380   0.00000  Uiso   1.00
C387   C     0.90377   0.38331   0.30131   0.00000  Uiso   1.00
C388   C     0.87287   0.32697   0.33666   0.00000  Uiso   1.00
C389   C     0.94598   0.38702   0.16725   0.00000  Uiso   1.00
C390   C     0.01975   0.42546   0.16041   0.00000  Uiso   1.00
C391   C     0.04190   0.38840   0.13132   0.00000  Uiso   1.00
H392   H     0.77933   0.22596   0.14145   0.00000  Uiso   1.00
H393   H     0.68094   0.25841   0.07729   0.00000  Uiso   1.00
H394   H     0.76357   0.17846   0.24100   0.00000  Uiso   1.00
H395   H     0.87953   0.22061   0.10012   0.00000  Uiso   1.00
H396   H     0.59385   0.32652   0.01562   0.00000  Uiso   1.00
H397   H     0.76809   0.15794   0.36082   0.00000  Uiso   1.00
H398   H     0.01262   0.24682   0.06374   0.00000  Uiso   1.00
H399   H     0.94884   0.47362   0.21436   0.00000  Uiso   1.00
H400   H     0.85975   0.51966   0.15418   0.00000  Uiso   1.00
H401   H     0.94237   0.43971   0.31790   0.00000  Uiso   1.00
H402   H     0.05834   0.48186   0.17702   0.00000  Uiso   1.00
H403   H     0.73898   0.53856   0.07803   0.00000  Uiso   1.00
H404   H     0.91322   0.36998   0.42323   0.00000  Uiso   1.00
H405   H     0.15774   0.45885   0.12616   0.00000  Uiso   1.00
O406   O     0.60474   0.45835   0.00594   0.00000  Uiso   1.00
O407   O     0.83335   0.23718   0.45883   0.00000  Uiso   1.00
O408   O     0.15416   0.35378   0.06907   0.00000  Uiso   1.00
N409   N     0.64024   0.37011   0.03856   0.00000  Uiso   1.00
N410   N     0.80313   0.21250   0.36130   0.00000  Uiso   1.00
N411   N     0.03175   0.29558   0.08357   0.00000  Uiso   1.00
N412   N     0.71833   0.48420   0.07214   0.00000  Uiso   1.00
N413   N     0.88122   0.32660   0.39488   0.00000  Uiso   1.00
N414   N     0.10984   0.40968   0.11715   0.00000  Uiso   1.00
C415   C     0.58681   0.93929   0.59694   0.00000  Uiso   1.00
C416   C     0.63152   0.02311   0.60319   0.00000  Uiso   1.00
C417   C     0.68152   0.06877   0.57117   0.00000  Uiso   1.00
C418   C     0.71685   0.14399   0.58343   0.00000  Uiso   1.00
C419   C     0.78846   0.26981   0.58665   0.00000  Uiso   1.00
C420   C     0.60783   0.91289   0.65519   0.00000  Uiso   1.00
C421   C     0.63790   0.86586   0.66687   0.00000  Uiso   1.00
C422   C     0.65327   0.84828   0.72289   0.00000  Uiso   1.00
C423   C     0.68805   0.80294   0.80682   0.00000  Uiso   1.00
C424   C     0.50315   0.91779   0.58640   0.00000  Uiso   1.00
C425   C     0.44519   0.87485   0.54026   0.00000  Uiso   1.00
C426   C     0.37242   0.86139   0.53838   0.00000  Uiso   1.00
C427   C     0.24467   0.82364   0.51551   0.00000  Uiso   1.00
C428   C     0.56063   0.99169   0.67566   0.00000  Uiso   1.00
C429   C     0.61730   0.05157   0.64595   0.00000  Uiso   1.00
C430   C     0.65256   0.12675   0.65826   0.00000  Uiso   1.00
C431   C     0.70260   0.17250   0.62626   0.00000  Uiso   1.00
C432   C     0.59361   0.94135   0.69794   0.00000  Uiso   1.00
C433   C     0.60893   0.92384   0.75396   0.00000  Uiso   1.00
C434   C     0.63903   0.87680   0.76573   0.00000  Uiso   1.00
C435   C     0.48892   0.94625   0.62916   0.00000  Uiso   1.00
C436   C     0.41623   0.93284   0.62735   0.00000  Uiso   1.00
C437   C     0.35818   0.88990   0.58121   0.00000  Uiso   1.00
H438   H     0.59788   0.91713   0.56366   0.00000  Uiso   1.00
H439   H     0.69252   0.04672   0.53809   0.00000  Uiso   1.00
H440   H     0.64889   0.84384   0.63377   0.00000  Uiso   1.00
H441   H     0.45622   0.85284   0.50718   0.00000  Uiso   1.00
H442   H     0.79119   0.20294   0.52861   0.00000  Uiso   1.00
H443   H     0.69918   0.77513   0.73036   0.00000  Uiso   1.00
H444   H     0.29288   0.79411   0.46342   0.00000  Uiso   1.00
H445   H     0.54956   0.01385   0.70895   0.00000  Uiso   1.00
H446   H     0.64154   0.14876   0.69135   0.00000  Uiso   1.00
H447   H     0.59792   0.94587   0.78704   0.00000  Uiso   1.00
H448   H     0.40524   0.95487   0.66045   0.00000  Uiso   1.00
H449   H     0.74982   0.28576   0.65301   0.00000  Uiso   1.00
H450   H     0.65780   0.85794   0.85476   0.00000  Uiso   1.00
H451   H     0.25151   0.87693   0.58782   0.00000  Uiso   1.00
O452   O     0.83190   0.33135   0.57662   0.00000  Uiso   1.00
O453   O     0.71118   0.77007   0.84130   0.00000  Uiso   1.00
O454   O     0.17813   0.79497   0.49108   0.00000  Uiso   1.00
N455   N     0.76882   0.20392   0.56029   0.00000  Uiso   1.00
N456   N     0.68280   0.80395   0.74892   0.00000  Uiso   1.00
N457   N     0.30295   0.82168   0.49936   0.00000  Uiso   1.00
N458   N     0.74655   0.24848   0.62723   0.00000  Uiso   1.00
N459   N     0.66054   0.84852   0.81586   0.00000  Uiso   1.00
N460   N     0.28069   0.86624   0.56630   0.00000  Uiso   1.00
C461   C     0.66387   0.57902   0.63243   0.00000  Uiso   1.00
C462   C     0.60411   0.60351   0.61776   0.00000  Uiso   1.00
C463   C     0.58597   0.63370   0.56764   0.00000  Uiso   1.00
C464   C     0.52966   0.65254   0.56237   0.00000  Uiso   1.00
C465   C     0.44250   0.69227   0.53300   0.00000  Uiso   1.00
C466   C     0.71874   0.62119   0.68801   0.00000  Uiso   1.00
C467   C     0.79698   0.66623   0.69696   0.00000  Uiso   1.00
C468   C     0.83716   0.69995   0.75084   0.00000  Uiso   1.00
C469   C     0.92797   0.76709   0.83056   0.00000  Uiso   1.00
C470   C     0.62232   0.49850   0.64620   0.00000  Uiso   1.00
C471   C     0.61951   0.44037   0.62000   0.00000  Uiso   1.00
C472   C     0.57853   0.37078   0.63868   0.00000  Uiso   1.00
C473   C     0.51964   0.24742   0.65348   0.00000  Uiso   1.00
C474   C     0.59612   0.55879   0.71220   0.00000  Uiso   1.00
C475   C     0.56731   0.59253   0.66109   0.00000  Uiso   1.00
C476   C     0.51101   0.61132   0.65589   0.00000  Uiso   1.00
C477   C     0.49279   0.64153   0.60577   0.00000  Uiso   1.00
C478   C     0.68194   0.61021   0.73134   0.00000  Uiso   1.00
C479   C     0.72202   0.64386   0.78522   0.00000  Uiso   1.00
C480   C     0.80029   0.68894   0.79425   0.00000  Uiso   1.00
C481   C     0.58552   0.48751   0.68953   0.00000  Uiso   1.00
C482   C     0.54455   0.41799   0.70826   0.00000  Uiso   1.00
C483   C     0.54166   0.35977   0.68209   0.00000  Uiso   1.00
H484   H     0.69252   0.58757   0.59870   0.00000  Uiso   1.00
H485   H     0.61447   0.64220   0.53412   0.00000  Uiso   1.00
H486   H     0.82544   0.67472   0.66342   0.00000  Uiso   1.00
H487   H     0.64799   0.44889   0.58647   0.00000  Uiso   1.00
H488   H     0.51172   0.69794   0.48163   0.00000  Uiso   1.00
H489   H     0.95657   0.76649   0.75429   0.00000  Uiso   1.00
H490   H     0.58240   0.29029   0.59202   0.00000  Uiso   1.00
H491   H     0.56747   0.55024   0.74594   0.00000  Uiso   1.00
H492   H     0.48254   0.60281   0.68943   0.00000  Uiso   1.00
H493   H     0.69352   0.63534   0.81874   0.00000  Uiso   1.00
H494   H     0.51607   0.40951   0.74179   0.00000  Uiso   1.00
H495   H     0.40465   0.66598   0.60769   0.00000  Uiso   1.00
H496   H     0.84951   0.73453   0.88035   0.00000  Uiso   1.00
H497   H     0.47533   0.25833   0.71808   0.00000  Uiso   1.00
O498   O     0.40459   0.71724   0.50483   0.00000  Uiso   1.00
O499   O     0.98823   0.80717   0.86255   0.00000  Uiso   1.00
O500   O     0.49731   0.18240   0.64966   0.00000  Uiso   1.00
N501   N     0.49816   0.68319   0.51904   0.00000  Uiso   1.00
N502   N     0.91408   0.74729   0.77396   0.00000  Uiso   1.00
N503   N     0.56427   0.30208   0.62227   0.00000  Uiso   1.00
N504   N     0.44055   0.66599   0.58688   0.00000  Uiso   1.00
N505   N     0.85646   0.73010   0.84179   0.00000  Uiso   1.00
N506   N     0.50665   0.28489   0.69010   0.00000  Uiso   1.00
C507   C     0.87650   0.86990   0.67308   0.00000  Uiso   1.00
C508   C     0.95606   0.89270   0.66727   0.00000  Uiso   1.00
C509   C     0.98360   0.84535   0.66371   0.00000  Uiso   1.00
C510   C     0.05795   0.87702   0.65858   0.00000  Uiso   1.00
C511   C     0.17463   0.90082   0.64981   0.00000  Uiso   1.00
C512   C     0.88815   0.91159   0.72648   0.00000  Uiso   1.00
C513   C     0.85859   0.88013   0.77271   0.00000  Uiso   1.00
C514   C     0.87578   0.92771   0.81742   0.00000  Uiso   1.00
C515   C     0.88699   0.98085   0.90057   0.00000  Uiso   1.00
C516   C     0.84223   0.90163   0.62358   0.00000  Uiso   1.00
C517   C     0.77405   0.86180   0.58329   0.00000  Uiso   1.00
C518   C     0.75257   0.90100   0.54137   0.00000  Uiso   1.00
C519   C     0.69247   0.93867   0.46475   0.00000  Uiso   1.00
C520   C     0.95958   0.01032   0.67028   0.00000  Uiso   1.00
C521   C     0.00118   0.96897   0.66574   0.00000  Uiso   1.00
C522   C     0.07551   0.00071   0.66061   0.00000  Uiso   1.00
C523   C     0.10316   0.95343   0.65705   0.00000  Uiso   1.00
C524   C     0.93327   0.98786   0.72496   0.00000  Uiso   1.00
C525   C     0.95050   0.03549   0.76961   0.00000  Uiso   1.00
C526   C     0.92098   0.00412   0.81590   0.00000  Uiso   1.00
C527   C     0.88736   0.97790   0.62205   0.00000  Uiso   1.00
C528   C     0.86597   0.01716   0.58019   0.00000  Uiso   1.00
C529   C     0.79777   0.97741   0.53985   0.00000  Uiso   1.00
H530   H     0.84137   0.81052   0.67427   0.00000  Uiso   1.00
H531   H     0.94866   0.78633   0.66490   0.00000  Uiso   1.00
H532   H     0.82367   0.82111   0.77388   0.00000  Uiso   1.00
H533   H     0.73915   0.80278   0.58449   0.00000  Uiso   1.00
H534   H     0.08752   0.79315   0.65386   0.00000  Uiso   1.00
H535   H     0.82395   0.86649   0.88364   0.00000  Uiso   1.00
H536   H     0.64571   0.82784   0.48427   0.00000  Uiso   1.00
H537   H     0.99471   0.06970   0.66909   0.00000  Uiso   1.00
H538   H     0.11041   0.05974   0.65943   0.00000  Uiso   1.00
H539   H     0.98542   0.09452   0.76841   0.00000  Uiso   1.00
H540   H     0.90090   0.07619   0.57902   0.00000  Uiso   1.00
H541   H     0.21881   0.01506   0.64943   0.00000  Uiso   1.00
H542   H     0.95523   0.08839   0.87920   0.00000  Uiso   1.00
H543   H     0.77699   0.04975   0.47984   0.00000  Uiso   1.00
O544   O     0.22652   0.89288   0.64540   0.00000  Uiso   1.00
O545   O     0.88071   0.98909   0.94686   0.00000  Uiso   1.00
O546   O     0.64687   0.93838   0.42290   0.00000  Uiso   1.00
N547   N     0.10253   0.84675   0.65413   0.00000  Uiso   1.00
N548   N     0.85612   0.91531   0.86896   0.00000  Uiso   1.00
N549   N     0.68947   0.87918   0.49560   0.00000  Uiso   1.00
N550   N     0.17318   0.96615   0.65174   0.00000  Uiso   1.00
N551   N     0.92676   0.03471   0.86658   0.00000  Uiso   1.00
N552   N     0.76011   0.99858   0.49321   0.00000  Uiso   1.00
