data_job_00766
_audit_creation_date              2018-12-19
_audit_creation_method            'Materials Studio'
_symmetry_space_group_name_H-M    'P1'
_symmetry_Int_Tables_number       1
_symmetry_cell_setting            triclinic
loop_
_symmetry_equiv_pos_as_xyz
  x,y,z
_cell_length_a                    14.2962
_cell_length_b                    11.1917
_cell_length_c                    14.2083
_cell_angle_alpha                 90.0000
_cell_angle_beta                  87.0979
_cell_angle_gamma                 90.0000
loop_
_atom_site_label
_atom_site_type_symbol
_atom_site_fract_x
_atom_site_fract_y
_atom_site_fract_z
_atom_site_U_iso_or_equiv
_atom_site_adp_type
_atom_site_occupancy
C1     C     0.20189   0.56298   0.78443   0.00000  Uiso   1.00
C2     C     0.28849   0.49641   0.81460   0.00000  Uiso   1.00
C3     C     0.30563   0.37517   0.80263   0.00000  Uiso   1.00
C4     C     0.38897   0.33137   0.83505   0.00000  Uiso   1.00
C5     C     0.51371   0.21661   0.87543   0.00000  Uiso   1.00
C6     C     0.15991   0.62349   0.87298   0.00000  Uiso   1.00
C7     C     0.06893   0.60910   0.91009   0.00000  Uiso   1.00
C8     C     0.04402   0.67228   0.99164   0.00000  Uiso   1.00
C9     C     0.96911   0.75488   0.12262   0.00000  Uiso   1.00
C10    C     0.23780   0.66347   0.71974   0.00000  Uiso   1.00
C11    C     0.21230   0.68272   0.62802   0.00000  Uiso   1.00
C12    C     0.25297   0.77957   0.58057   0.00000  Uiso   1.00
C13    C     0.29900   0.92424   0.47362   0.00000  Uiso   1.00
C14    C     0.31942   0.70078   0.86328   0.00000  Uiso   1.00
C15    C     0.35233   0.57127   0.85743   0.00000  Uiso   1.00
C16    C     0.43566   0.52763   0.88987   0.00000  Uiso   1.00
C17    C     0.45292   0.40635   0.87795   0.00000  Uiso   1.00
C18    C     0.22374   0.69834   0.91581   0.00000  Uiso   1.00
C19    C     0.19896   0.76156   0.99733   0.00000  Uiso   1.00
C20    C     0.10797   0.74727   0.03455   0.00000  Uiso   1.00
C21    C     0.30164   0.73832   0.76257   0.00000  Uiso   1.00
C22    C     0.34235   0.83517   0.71526   0.00000  Uiso   1.00
C23    C     0.31692   0.85456   0.62347   0.00000  Uiso   1.00
H24    H     0.15218   0.50471   0.75109   0.00000  Uiso   1.00
H25    H     0.25620   0.31728   0.76949   0.00000  Uiso   1.00
H26    H     0.01954   0.55118   0.87692   0.00000  Uiso   1.00
H27    H     0.16290   0.62478   0.59490   0.00000  Uiso   1.00
H28    H     0.39966   0.14247   0.80882   0.00000  Uiso   1.00
H29    H     0.90064   0.63570   0.03532   0.00000  Uiso   1.00
H30    H     0.20293   0.79089   0.44061   0.00000  Uiso   1.00
H31    H     0.36912   0.75906   0.89662   0.00000  Uiso   1.00
H32    H     0.48505   0.58558   0.92301   0.00000  Uiso   1.00
H33    H     0.24838   0.81948   0.03045   0.00000  Uiso   1.00
H34    H     0.39174   0.89307   0.74842   0.00000  Uiso   1.00
H35    H     0.58541   0.36023   0.93343   0.00000  Uiso   1.00
H36    H     0.08637   0.85347   0.15993   0.00000  Uiso   1.00
H37    H     0.38868   0.00866   0.56522   0.00000  Uiso   1.00
O38    O     0.56487   0.13263   0.88589   0.00000  Uiso   1.00
O39    O     0.91016   0.77975   0.18304   0.00000  Uiso   1.00
O40    O     0.30677   0.98335   0.40280   0.00000  Uiso   1.00
N41    N     0.42748   0.21753   0.83450   0.00000  Uiso   1.00
N42    N     0.96092   0.67866   0.04628   0.00000  Uiso   1.00
N43    N     0.24352   0.82377   0.49029   0.00000  Uiso   1.00
N44    N     0.52742   0.33471   0.90155   0.00000  Uiso   1.00
N45    N     0.06087   0.79583   0.11333   0.00000  Uiso   1.00
N46    N     0.34347   0.94095   0.55734   0.00000  Uiso   1.00
C47    C     0.79811   0.56298   0.71557   0.00000  Uiso   1.00
C48    C     0.71151   0.49641   0.68540   0.00000  Uiso   1.00
C49    C     0.69437   0.37517   0.69737   0.00000  Uiso   1.00
C50    C     0.61103   0.33137   0.66495   0.00000  Uiso   1.00
C51    C     0.48629   0.21661   0.62457   0.00000  Uiso   1.00
C52    C     0.84009   0.62349   0.62702   0.00000  Uiso   1.00
C53    C     0.93107   0.60910   0.58991   0.00000  Uiso   1.00
C54    C     0.95598   0.67228   0.50836   0.00000  Uiso   1.00
C55    C     0.03089   0.75488   0.37738   0.00000  Uiso   1.00
C56    C     0.76220   0.66347   0.78026   0.00000  Uiso   1.00
C57    C     0.78770   0.68272   0.87198   0.00000  Uiso   1.00
C58    C     0.74703   0.77957   0.91943   0.00000  Uiso   1.00
C59    C     0.70100   0.92424   0.02638   0.00000  Uiso   1.00
C60    C     0.68058   0.70078   0.63672   0.00000  Uiso   1.00
C61    C     0.64767   0.57127   0.64257   0.00000  Uiso   1.00
C62    C     0.56434   0.52763   0.61013   0.00000  Uiso   1.00
C63    C     0.54708   0.40635   0.62205   0.00000  Uiso   1.00
C64    C     0.77626   0.69834   0.58419   0.00000  Uiso   1.00
C65    C     0.80104   0.76156   0.50267   0.00000  Uiso   1.00
C66    C     0.89203   0.74727   0.46545   0.00000  Uiso   1.00
C67    C     0.69836   0.73832   0.73743   0.00000  Uiso   1.00
C68    C     0.65765   0.83517   0.78474   0.00000  Uiso   1.00
C69    C     0.68308   0.85456   0.87653   0.00000  Uiso   1.00
H70    H     0.84782   0.50471   0.74891   0.00000  Uiso   1.00
H71    H     0.74380   0.31728   0.73051   0.00000  Uiso   1.00
H72    H     0.98046   0.55118   0.62308   0.00000  Uiso   1.00
H73    H     0.83710   0.62478   0.90510   0.00000  Uiso   1.00
H74    H     0.60034   0.14247   0.69118   0.00000  Uiso   1.00
H75    H     0.09936   0.63570   0.46468   0.00000  Uiso   1.00
H76    H     0.79707   0.79089   0.05939   0.00000  Uiso   1.00
H77    H     0.63088   0.75906   0.60338   0.00000  Uiso   1.00
H78    H     0.51495   0.58558   0.57699   0.00000  Uiso   1.00
H79    H     0.75162   0.81948   0.46955   0.00000  Uiso   1.00
H80    H     0.60826   0.89307   0.75158   0.00000  Uiso   1.00
H81    H     0.41459   0.36023   0.56657   0.00000  Uiso   1.00
H82    H     0.91363   0.85347   0.34007   0.00000  Uiso   1.00
H83    H     0.61132   0.00866   0.93478   0.00000  Uiso   1.00
O84    O     0.43513   0.13263   0.61411   0.00000  Uiso   1.00
O85    O     0.08984   0.77975   0.31696   0.00000  Uiso   1.00
O86    O     0.69323   0.98335   0.09720   0.00000  Uiso   1.00
N87    N     0.57252   0.21753   0.66550   0.00000  Uiso   1.00
N88    N     0.03908   0.67866   0.45372   0.00000  Uiso   1.00
N89    N     0.75648   0.82377   0.00971   0.00000  Uiso   1.00
N90    N     0.47258   0.33471   0.59845   0.00000  Uiso   1.00
N91    N     0.93913   0.79583   0.38667   0.00000  Uiso   1.00
N92    N     0.65653   0.94095   0.94266   0.00000  Uiso   1.00
C93    C     0.79811   0.43702   0.21557   0.00000  Uiso   1.00
C94    C     0.71151   0.50359   0.18540   0.00000  Uiso   1.00
C95    C     0.69437   0.62483   0.19737   0.00000  Uiso   1.00
C96    C     0.61103   0.66863   0.16495   0.00000  Uiso   1.00
C97    C     0.48629   0.78339   0.12457   0.00000  Uiso   1.00
C98    C     0.84009   0.37651   0.12702   0.00000  Uiso   1.00
C99    C     0.93107   0.39090   0.08991   0.00000  Uiso   1.00
C100   C     0.95598   0.32772   0.00836   0.00000  Uiso   1.00
C101   C     0.03089   0.24512   0.87738   0.00000  Uiso   1.00
C102   C     0.76220   0.33653   0.28026   0.00000  Uiso   1.00
C103   C     0.78770   0.31728   0.37198   0.00000  Uiso   1.00
C104   C     0.74703   0.22043   0.41943   0.00000  Uiso   1.00
C105   C     0.70100   0.07576   0.52638   0.00000  Uiso   1.00
C106   C     0.68058   0.29922   0.13672   0.00000  Uiso   1.00
C107   C     0.64767   0.42873   0.14257   0.00000  Uiso   1.00
C108   C     0.56434   0.47237   0.11013   0.00000  Uiso   1.00
C109   C     0.54708   0.59365   0.12205   0.00000  Uiso   1.00
C110   C     0.77626   0.30166   0.08419   0.00000  Uiso   1.00
C111   C     0.80104   0.23844   0.00267   0.00000  Uiso   1.00
C112   C     0.89203   0.25273   0.96545   0.00000  Uiso   1.00
C113   C     0.69836   0.26168   0.23743   0.00000  Uiso   1.00
C114   C     0.65765   0.16483   0.28474   0.00000  Uiso   1.00
C115   C     0.68308   0.14544   0.37653   0.00000  Uiso   1.00
H116   H     0.84782   0.49529   0.24891   0.00000  Uiso   1.00
H117   H     0.74380   0.68272   0.23051   0.00000  Uiso   1.00
H118   H     0.98046   0.44882   0.12308   0.00000  Uiso   1.00
H119   H     0.83710   0.37522   0.40510   0.00000  Uiso   1.00
H120   H     0.60034   0.85753   0.19118   0.00000  Uiso   1.00
H121   H     0.09936   0.36430   0.96468   0.00000  Uiso   1.00
H122   H     0.79707   0.20911   0.55939   0.00000  Uiso   1.00
H123   H     0.63088   0.24094   0.10338   0.00000  Uiso   1.00
H124   H     0.51495   0.41442   0.07699   0.00000  Uiso   1.00
H125   H     0.75162   0.18052   0.96955   0.00000  Uiso   1.00
H126   H     0.60826   0.10693   0.25158   0.00000  Uiso   1.00
H127   H     0.41459   0.63977   0.06657   0.00000  Uiso   1.00
H128   H     0.91363   0.14653   0.84007   0.00000  Uiso   1.00
H129   H     0.61132   0.99134   0.43478   0.00000  Uiso   1.00
O130   O     0.43513   0.86737   0.11411   0.00000  Uiso   1.00
O131   O     0.08984   0.22025   0.81696   0.00000  Uiso   1.00
O132   O     0.69323   0.01665   0.59720   0.00000  Uiso   1.00
N133   N     0.57252   0.78247   0.16550   0.00000  Uiso   1.00
N134   N     0.03908   0.32134   0.95372   0.00000  Uiso   1.00
N135   N     0.75648   0.17623   0.50971   0.00000  Uiso   1.00
N136   N     0.47258   0.66529   0.09845   0.00000  Uiso   1.00
N137   N     0.93913   0.20417   0.88667   0.00000  Uiso   1.00
N138   N     0.65653   0.05905   0.44266   0.00000  Uiso   1.00
C139   C     0.20189   0.43702   0.28443   0.00000  Uiso   1.00
C140   C     0.28849   0.50359   0.31460   0.00000  Uiso   1.00
C141   C     0.30563   0.62483   0.30263   0.00000  Uiso   1.00
C142   C     0.38897   0.66863   0.33505   0.00000  Uiso   1.00
C143   C     0.51371   0.78339   0.37543   0.00000  Uiso   1.00
C144   C     0.15991   0.37651   0.37298   0.00000  Uiso   1.00
C145   C     0.06893   0.39090   0.41009   0.00000  Uiso   1.00
C146   C     0.04402   0.32772   0.49164   0.00000  Uiso   1.00
C147   C     0.96911   0.24512   0.62262   0.00000  Uiso   1.00
C148   C     0.23780   0.33653   0.21974   0.00000  Uiso   1.00
C149   C     0.21230   0.31728   0.12802   0.00000  Uiso   1.00
C150   C     0.25297   0.22043   0.08057   0.00000  Uiso   1.00
C151   C     0.29900   0.07576   0.97362   0.00000  Uiso   1.00
C152   C     0.31942   0.29922   0.36328   0.00000  Uiso   1.00
C153   C     0.35233   0.42873   0.35743   0.00000  Uiso   1.00
C154   C     0.43566   0.47237   0.38987   0.00000  Uiso   1.00
C155   C     0.45292   0.59365   0.37795   0.00000  Uiso   1.00
C156   C     0.22374   0.30166   0.41581   0.00000  Uiso   1.00
C157   C     0.19896   0.23844   0.49733   0.00000  Uiso   1.00
C158   C     0.10797   0.25273   0.53455   0.00000  Uiso   1.00
C159   C     0.30164   0.26168   0.26257   0.00000  Uiso   1.00
C160   C     0.34235   0.16483   0.21526   0.00000  Uiso   1.00
C161   C     0.31692   0.14544   0.12347   0.00000  Uiso   1.00
H162   H     0.15218   0.49529   0.25109   0.00000  Uiso   1.00
H163   H     0.25620   0.68272   0.26949   0.00000  Uiso   1.00
H164   H     0.01954   0.44882   0.37692   0.00000  Uiso   1.00
H165   H     0.16290   0.37522   0.09490   0.00000  Uiso   1.00
H166   H     0.39966   0.85753   0.30882   0.00000  Uiso   1.00
H167   H     0.90064   0.36430   0.53532   0.00000  Uiso   1.00
H168   H     0.20293   0.20911   0.94061   0.00000  Uiso   1.00
H169   H     0.36912   0.24094   0.39662   0.00000  Uiso   1.00
H170   H     0.48505   0.41442   0.42301   0.00000  Uiso   1.00
H171   H     0.24838   0.18052   0.53045   0.00000  Uiso   1.00
H172   H     0.39174   0.10693   0.24842   0.00000  Uiso   1.00
H173   H     0.58541   0.63977   0.43343   0.00000  Uiso   1.00
H174   H     0.08637   0.14653   0.65993   0.00000  Uiso   1.00
H175   H     0.38868   0.99134   0.06522   0.00000  Uiso   1.00
O176   O     0.56487   0.86737   0.38589   0.00000  Uiso   1.00
O177   O     0.91016   0.22025   0.68304   0.00000  Uiso   1.00
O178   O     0.30677   0.01665   0.90280   0.00000  Uiso   1.00
N179   N     0.42748   0.78247   0.33450   0.00000  Uiso   1.00
N180   N     0.96092   0.32134   0.54628   0.00000  Uiso   1.00
N181   N     0.24352   0.17623   0.99029   0.00000  Uiso   1.00
N182   N     0.52742   0.66529   0.40155   0.00000  Uiso   1.00
N183   N     0.06087   0.20417   0.61333   0.00000  Uiso   1.00
N184   N     0.34347   0.05905   0.05734   0.00000  Uiso   1.00
