data_job_04202
_audit_creation_date              2018-12-19
_audit_creation_method            'Materials Studio'
_symmetry_space_group_name_H-M    'P1'
_symmetry_Int_Tables_number       1
_symmetry_cell_setting            triclinic
loop_
_symmetry_equiv_pos_as_xyz
  x,y,z
_cell_length_a                    25.3617
_cell_length_b                    25.3617
_cell_length_c                    10.7516
_cell_angle_alpha                 90.0000
_cell_angle_beta                  90.0000
_cell_angle_gamma                 90.0000
loop_
_atom_site_label
_atom_site_type_symbol
_atom_site_fract_x
_atom_site_fract_y
_atom_site_fract_z
_atom_site_U_iso_or_equiv
_atom_site_adp_type
_atom_site_occupancy
C1     C     0.95046   0.75261   0.93465   0.00000  Uiso   1.00
C2     C     0.92719   0.70145   0.98503   0.00000  Uiso   1.00
C3     C     0.93556   0.68098   0.10309   0.00000  Uiso   1.00
C4     C     0.91073   0.63368   0.13131   0.00000  Uiso   1.00
C5     C     0.87948   0.55816   0.22273   0.00000  Uiso   1.00
C6     C     0.98008   0.73771   0.81633   0.00000  Uiso   1.00
C7     C     0.03293   0.74773   0.79254   0.00000  Uiso   1.00
C8     C     0.05262   0.73096   0.67873   0.00000  Uiso   1.00
C9     C     0.10348   0.71177   0.50819   0.00000  Uiso   1.00
C10    C     0.90371   0.78605   0.89306   0.00000  Uiso   1.00
C11    C     0.89235   0.83672   0.93375   0.00000  Uiso   1.00
C12    C     0.84775   0.86065   0.88452   0.00000  Uiso   1.00
C13    C     0.78003   0.91651   0.83311   0.00000  Uiso   1.00
C14    C     0.89148   0.70501   0.77482   0.00000  Uiso   1.00
C15    C     0.89515   0.67560   0.89822   0.00000  Uiso   1.00
C16    C     0.87030   0.62832   0.92627   0.00000  Uiso   1.00
C17    C     0.87864   0.60778   0.04435   0.00000  Uiso   1.00
C18    C     0.94805   0.71186   0.72952   0.00000  Uiso   1.00
C19    C     0.96767   0.69507   0.61571   0.00000  Uiso   1.00
C20    C     0.02053   0.70506   0.59176   0.00000  Uiso   1.00
C21    C     0.87167   0.76019   0.80625   0.00000  Uiso   1.00
C22    C     0.82709   0.78405   0.75693   0.00000  Uiso   1.00
C23    C     0.81566   0.83475   0.79755   0.00000  Uiso   1.00
H24    H     0.97541   0.77274   0.00223   0.00000  Uiso   1.00
H25    H     0.96036   0.70099   0.17025   0.00000  Uiso   1.00
H26    H     0.05771   0.76774   0.85973   0.00000  Uiso   1.00
H27    H     0.91714   0.85671   0.00093   0.00000  Uiso   1.00
H28    H     0.92956   0.61004   0.31822   0.00000  Uiso   1.00
H29    H     0.13482   0.75080   0.66348   0.00000  Uiso   1.00
H30    H     0.83842   0.93841   0.96122   0.00000  Uiso   1.00
H31    H     0.86654   0.68488   0.70723   0.00000  Uiso   1.00
H32    H     0.84552   0.60832   0.85907   0.00000  Uiso   1.00
H33    H     0.94287   0.67507   0.54855   0.00000  Uiso   1.00
H34    H     0.80231   0.76404   0.68975   0.00000  Uiso   1.00
H35    H     0.83635   0.53482   0.06566   0.00000  Uiso   1.00
H36    H     0.04161   0.67558   0.41090   0.00000  Uiso   1.00
H37    H     0.74521   0.86319   0.70865   0.00000  Uiso   1.00
O38    O     0.87110   0.52364   0.29713   0.00000  Uiso   1.00
O39    O     0.14039   0.70832   0.43812   0.00000  Uiso   1.00
O40    O     0.75152   0.95446   0.82875   0.00000  Uiso   1.00
N41    N     0.91050   0.60285   0.23795   0.00000  Uiso   1.00
N42    N     0.10241   0.73445   0.62581   0.00000  Uiso   1.00
N43    N     0.82531   0.90985   0.90415   0.00000  Uiso   1.00
N44    N     0.86035   0.56238   0.10205   0.00000  Uiso   1.00
N45    N     0.05225   0.69397   0.48991   0.00000  Uiso   1.00
N46    N     0.77515   0.86938   0.76825   0.00000  Uiso   1.00
C47    C     0.04954   0.24739   0.93465   0.00000  Uiso   1.00
C48    C     0.07281   0.29855   0.98503   0.00000  Uiso   1.00
C49    C     0.06444   0.31902   0.10309   0.00000  Uiso   1.00
C50    C     0.08927   0.36632   0.13131   0.00000  Uiso   1.00
C51    C     0.12052   0.44184   0.22273   0.00000  Uiso   1.00
C52    C     0.01992   0.26229   0.81633   0.00000  Uiso   1.00
C53    C     0.96707   0.25227   0.79254   0.00000  Uiso   1.00
C54    C     0.94738   0.26904   0.67873   0.00000  Uiso   1.00
C55    C     0.89652   0.28823   0.50819   0.00000  Uiso   1.00
C56    C     0.09629   0.21395   0.89306   0.00000  Uiso   1.00
C57    C     0.10765   0.16328   0.93375   0.00000  Uiso   1.00
C58    C     0.15225   0.13935   0.88452   0.00000  Uiso   1.00
C59    C     0.21997   0.08349   0.83311   0.00000  Uiso   1.00
C60    C     0.10852   0.29499   0.77482   0.00000  Uiso   1.00
C61    C     0.10485   0.32440   0.89822   0.00000  Uiso   1.00
C62    C     0.12970   0.37168   0.92627   0.00000  Uiso   1.00
C63    C     0.12136   0.39222   0.04435   0.00000  Uiso   1.00
C64    C     0.05195   0.28814   0.72952   0.00000  Uiso   1.00
C65    C     0.03233   0.30493   0.61571   0.00000  Uiso   1.00
C66    C     0.97947   0.29494   0.59176   0.00000  Uiso   1.00
C67    C     0.12833   0.23981   0.80625   0.00000  Uiso   1.00
C68    C     0.17291   0.21595   0.75693   0.00000  Uiso   1.00
C69    C     0.18434   0.16525   0.79755   0.00000  Uiso   1.00
H70    H     0.02459   0.22726   0.00223   0.00000  Uiso   1.00
H71    H     0.03964   0.29901   0.17025   0.00000  Uiso   1.00
H72    H     0.94229   0.23226   0.85973   0.00000  Uiso   1.00
H73    H     0.08286   0.14329   0.00093   0.00000  Uiso   1.00
H74    H     0.07044   0.38996   0.31822   0.00000  Uiso   1.00
H75    H     0.86518   0.24920   0.66348   0.00000  Uiso   1.00
H76    H     0.16158   0.06159   0.96122   0.00000  Uiso   1.00
H77    H     0.13346   0.31512   0.70723   0.00000  Uiso   1.00
H78    H     0.15448   0.39168   0.85907   0.00000  Uiso   1.00
H79    H     0.05713   0.32493   0.54855   0.00000  Uiso   1.00
H80    H     0.19769   0.23596   0.68975   0.00000  Uiso   1.00
H81    H     0.16365   0.46518   0.06566   0.00000  Uiso   1.00
H82    H     0.95839   0.32442   0.41090   0.00000  Uiso   1.00
H83    H     0.25479   0.13681   0.70865   0.00000  Uiso   1.00
O84    O     0.12890   0.47636   0.29713   0.00000  Uiso   1.00
O85    O     0.85961   0.29168   0.43812   0.00000  Uiso   1.00
O86    O     0.24848   0.04554   0.82875   0.00000  Uiso   1.00
N87    N     0.08950   0.39715   0.23795   0.00000  Uiso   1.00
N88    N     0.89759   0.26555   0.62581   0.00000  Uiso   1.00
N89    N     0.17469   0.09015   0.90415   0.00000  Uiso   1.00
N90    N     0.13965   0.43762   0.10205   0.00000  Uiso   1.00
N91    N     0.94775   0.30603   0.48991   0.00000  Uiso   1.00
N92    N     0.22485   0.13062   0.76825   0.00000  Uiso   1.00
C93    C     0.74739   0.45046   0.93465   0.00000  Uiso   1.00
C94    C     0.79855   0.42719   0.98503   0.00000  Uiso   1.00
C95    C     0.81902   0.43556   0.10309   0.00000  Uiso   1.00
C96    C     0.86632   0.41073   0.13131   0.00000  Uiso   1.00
C97    C     0.94184   0.37948   0.22273   0.00000  Uiso   1.00
C98    C     0.76229   0.48008   0.81633   0.00000  Uiso   1.00
C99    C     0.75227   0.53293   0.79254   0.00000  Uiso   1.00
C100   C     0.76904   0.55262   0.67873   0.00000  Uiso   1.00
C101   C     0.78823   0.60348   0.50819   0.00000  Uiso   1.00
C102   C     0.71395   0.40371   0.89306   0.00000  Uiso   1.00
C103   C     0.66328   0.39235   0.93375   0.00000  Uiso   1.00
C104   C     0.63935   0.34775   0.88452   0.00000  Uiso   1.00
C105   C     0.58349   0.28003   0.83311   0.00000  Uiso   1.00
C106   C     0.79499   0.39148   0.77482   0.00000  Uiso   1.00
C107   C     0.82440   0.39515   0.89822   0.00000  Uiso   1.00
C108   C     0.87168   0.37030   0.92627   0.00000  Uiso   1.00
C109   C     0.89222   0.37864   0.04435   0.00000  Uiso   1.00
C110   C     0.78814   0.44805   0.72952   0.00000  Uiso   1.00
C111   C     0.80493   0.46767   0.61571   0.00000  Uiso   1.00
C112   C     0.79494   0.52053   0.59176   0.00000  Uiso   1.00
C113   C     0.73981   0.37167   0.80625   0.00000  Uiso   1.00
C114   C     0.71595   0.32709   0.75693   0.00000  Uiso   1.00
C115   C     0.66525   0.31566   0.79755   0.00000  Uiso   1.00
H116   H     0.72726   0.47541   0.00223   0.00000  Uiso   1.00
H117   H     0.79901   0.46036   0.17025   0.00000  Uiso   1.00
H118   H     0.73226   0.55771   0.85973   0.00000  Uiso   1.00
H119   H     0.64329   0.41714   0.00093   0.00000  Uiso   1.00
H120   H     0.88996   0.42956   0.31822   0.00000  Uiso   1.00
H121   H     0.74920   0.63482   0.66348   0.00000  Uiso   1.00
H122   H     0.56159   0.33842   0.96122   0.00000  Uiso   1.00
H123   H     0.81512   0.36654   0.70723   0.00000  Uiso   1.00
H124   H     0.89168   0.34552   0.85907   0.00000  Uiso   1.00
H125   H     0.82493   0.44287   0.54855   0.00000  Uiso   1.00
H126   H     0.73596   0.30231   0.68975   0.00000  Uiso   1.00
H127   H     0.96518   0.33635   0.06566   0.00000  Uiso   1.00
H128   H     0.82442   0.54161   0.41090   0.00000  Uiso   1.00
H129   H     0.63681   0.24521   0.70865   0.00000  Uiso   1.00
O130   O     0.97636   0.37110   0.29713   0.00000  Uiso   1.00
O131   O     0.79168   0.64039   0.43812   0.00000  Uiso   1.00
O132   O     0.54554   0.25152   0.82875   0.00000  Uiso   1.00
N133   N     0.89715   0.41050   0.23795   0.00000  Uiso   1.00
N134   N     0.76555   0.60241   0.62581   0.00000  Uiso   1.00
N135   N     0.59015   0.32531   0.90415   0.00000  Uiso   1.00
N136   N     0.93762   0.36035   0.10205   0.00000  Uiso   1.00
N137   N     0.80603   0.55225   0.48991   0.00000  Uiso   1.00
N138   N     0.63062   0.27515   0.76825   0.00000  Uiso   1.00
C139   C     0.25261   0.54954   0.93465   0.00000  Uiso   1.00
C140   C     0.20145   0.57281   0.98503   0.00000  Uiso   1.00
C141   C     0.18098   0.56444   0.10309   0.00000  Uiso   1.00
C142   C     0.13368   0.58927   0.13131   0.00000  Uiso   1.00
C143   C     0.05816   0.62052   0.22273   0.00000  Uiso   1.00
C144   C     0.23771   0.51992   0.81633   0.00000  Uiso   1.00
C145   C     0.24773   0.46707   0.79254   0.00000  Uiso   1.00
C146   C     0.23096   0.44738   0.67873   0.00000  Uiso   1.00
C147   C     0.21177   0.39652   0.50819   0.00000  Uiso   1.00
C148   C     0.28605   0.59629   0.89306   0.00000  Uiso   1.00
C149   C     0.33672   0.60765   0.93375   0.00000  Uiso   1.00
C150   C     0.36065   0.65225   0.88452   0.00000  Uiso   1.00
C151   C     0.41651   0.71997   0.83311   0.00000  Uiso   1.00
C152   C     0.20501   0.60852   0.77482   0.00000  Uiso   1.00
C153   C     0.17560   0.60485   0.89822   0.00000  Uiso   1.00
C154   C     0.12832   0.62970   0.92627   0.00000  Uiso   1.00
C155   C     0.10778   0.62136   0.04435   0.00000  Uiso   1.00
C156   C     0.21186   0.55195   0.72952   0.00000  Uiso   1.00
C157   C     0.19507   0.53233   0.61571   0.00000  Uiso   1.00
C158   C     0.20506   0.47947   0.59176   0.00000  Uiso   1.00
C159   C     0.26019   0.62833   0.80625   0.00000  Uiso   1.00
C160   C     0.28405   0.67291   0.75693   0.00000  Uiso   1.00
C161   C     0.33475   0.68434   0.79755   0.00000  Uiso   1.00
H162   H     0.27274   0.52459   0.00223   0.00000  Uiso   1.00
H163   H     0.20099   0.53964   0.17025   0.00000  Uiso   1.00
H164   H     0.26774   0.44229   0.85973   0.00000  Uiso   1.00
H165   H     0.35671   0.58286   0.00093   0.00000  Uiso   1.00
H166   H     0.11004   0.57044   0.31822   0.00000  Uiso   1.00
H167   H     0.25080   0.36518   0.66348   0.00000  Uiso   1.00
H168   H     0.43841   0.66158   0.96122   0.00000  Uiso   1.00
H169   H     0.18488   0.63346   0.70723   0.00000  Uiso   1.00
H170   H     0.10832   0.65448   0.85907   0.00000  Uiso   1.00
H171   H     0.17507   0.55713   0.54855   0.00000  Uiso   1.00
H172   H     0.26404   0.69769   0.68975   0.00000  Uiso   1.00
H173   H     0.03482   0.66365   0.06566   0.00000  Uiso   1.00
H174   H     0.17558   0.45839   0.41090   0.00000  Uiso   1.00
H175   H     0.36319   0.75479   0.70865   0.00000  Uiso   1.00
O176   O     0.02364   0.62890   0.29713   0.00000  Uiso   1.00
O177   O     0.20832   0.35961   0.43812   0.00000  Uiso   1.00
O178   O     0.45446   0.74848   0.82875   0.00000  Uiso   1.00
N179   N     0.10285   0.58950   0.23795   0.00000  Uiso   1.00
N180   N     0.23445   0.39759   0.62581   0.00000  Uiso   1.00
N181   N     0.40985   0.67469   0.90415   0.00000  Uiso   1.00
N182   N     0.06238   0.63965   0.10205   0.00000  Uiso   1.00
N183   N     0.19397   0.44775   0.48991   0.00000  Uiso   1.00
N184   N     0.36938   0.72485   0.76825   0.00000  Uiso   1.00
C185   C     0.54954   0.74739   0.06535   0.00000  Uiso   1.00
C186   C     0.57281   0.79855   0.01497   0.00000  Uiso   1.00
C187   C     0.56444   0.81902   0.89691   0.00000  Uiso   1.00
C188   C     0.58927   0.86632   0.86869   0.00000  Uiso   1.00
C189   C     0.62052   0.94184   0.77727   0.00000  Uiso   1.00
C190   C     0.51992   0.76229   0.18367   0.00000  Uiso   1.00
C191   C     0.46707   0.75227   0.20746   0.00000  Uiso   1.00
C192   C     0.44738   0.76904   0.32127   0.00000  Uiso   1.00
C193   C     0.39652   0.78823   0.49181   0.00000  Uiso   1.00
C194   C     0.59629   0.71395   0.10694   0.00000  Uiso   1.00
C195   C     0.60765   0.66328   0.06625   0.00000  Uiso   1.00
C196   C     0.65225   0.63935   0.11548   0.00000  Uiso   1.00
C197   C     0.71997   0.58349   0.16689   0.00000  Uiso   1.00
C198   C     0.60852   0.79499   0.22518   0.00000  Uiso   1.00
C199   C     0.60485   0.82440   0.10178   0.00000  Uiso   1.00
C200   C     0.62970   0.87168   0.07373   0.00000  Uiso   1.00
C201   C     0.62136   0.89222   0.95565   0.00000  Uiso   1.00
C202   C     0.55195   0.78814   0.27048   0.00000  Uiso   1.00
C203   C     0.53233   0.80493   0.38429   0.00000  Uiso   1.00
C204   C     0.47947   0.79494   0.40824   0.00000  Uiso   1.00
C205   C     0.62833   0.73981   0.19375   0.00000  Uiso   1.00
C206   C     0.67291   0.71595   0.24307   0.00000  Uiso   1.00
C207   C     0.68434   0.66525   0.20245   0.00000  Uiso   1.00
H208   H     0.52459   0.72726   0.99777   0.00000  Uiso   1.00
H209   H     0.53964   0.79901   0.82975   0.00000  Uiso   1.00
H210   H     0.44229   0.73226   0.14027   0.00000  Uiso   1.00
H211   H     0.58286   0.64329   0.99907   0.00000  Uiso   1.00
H212   H     0.57044   0.88996   0.68178   0.00000  Uiso   1.00
H213   H     0.36518   0.74920   0.33652   0.00000  Uiso   1.00
H214   H     0.66158   0.56159   0.03878   0.00000  Uiso   1.00
H215   H     0.63346   0.81512   0.29277   0.00000  Uiso   1.00
H216   H     0.65448   0.89168   0.14093   0.00000  Uiso   1.00
H217   H     0.55713   0.82493   0.45145   0.00000  Uiso   1.00
H218   H     0.69769   0.73596   0.31025   0.00000  Uiso   1.00
H219   H     0.66365   0.96518   0.93434   0.00000  Uiso   1.00
H220   H     0.45839   0.82442   0.58910   0.00000  Uiso   1.00
H221   H     0.75479   0.63681   0.29135   0.00000  Uiso   1.00
O222   O     0.62890   0.97636   0.70287   0.00000  Uiso   1.00
O223   O     0.35961   0.79168   0.56188   0.00000  Uiso   1.00
O224   O     0.74848   0.54554   0.17125   0.00000  Uiso   1.00
N225   N     0.58950   0.89715   0.76205   0.00000  Uiso   1.00
N226   N     0.39759   0.76555   0.37419   0.00000  Uiso   1.00
N227   N     0.67469   0.59015   0.09585   0.00000  Uiso   1.00
N228   N     0.63965   0.93762   0.89795   0.00000  Uiso   1.00
N229   N     0.44775   0.80603   0.51009   0.00000  Uiso   1.00
N230   N     0.72485   0.63062   0.23175   0.00000  Uiso   1.00
C231   C     0.45046   0.25261   0.06535   0.00000  Uiso   1.00
C232   C     0.42719   0.20145   0.01497   0.00000  Uiso   1.00
C233   C     0.43556   0.18098   0.89691   0.00000  Uiso   1.00
C234   C     0.41073   0.13368   0.86869   0.00000  Uiso   1.00
C235   C     0.37948   0.05816   0.77727   0.00000  Uiso   1.00
C236   C     0.48008   0.23771   0.18367   0.00000  Uiso   1.00
C237   C     0.53293   0.24773   0.20746   0.00000  Uiso   1.00
C238   C     0.55262   0.23096   0.32127   0.00000  Uiso   1.00
C239   C     0.60348   0.21177   0.49181   0.00000  Uiso   1.00
C240   C     0.40371   0.28605   0.10694   0.00000  Uiso   1.00
C241   C     0.39235   0.33672   0.06625   0.00000  Uiso   1.00
C242   C     0.34775   0.36065   0.11548   0.00000  Uiso   1.00
C243   C     0.28003   0.41651   0.16689   0.00000  Uiso   1.00
C244   C     0.39148   0.20501   0.22518   0.00000  Uiso   1.00
C245   C     0.39515   0.17560   0.10178   0.00000  Uiso   1.00
C246   C     0.37030   0.12832   0.07373   0.00000  Uiso   1.00
C247   C     0.37864   0.10778   0.95565   0.00000  Uiso   1.00
C248   C     0.44805   0.21186   0.27048   0.00000  Uiso   1.00
C249   C     0.46767   0.19507   0.38429   0.00000  Uiso   1.00
C250   C     0.52053   0.20506   0.40824   0.00000  Uiso   1.00
C251   C     0.37167   0.26019   0.19375   0.00000  Uiso   1.00
C252   C     0.32709   0.28405   0.24307   0.00000  Uiso   1.00
C253   C     0.31566   0.33475   0.20245   0.00000  Uiso   1.00
H254   H     0.47541   0.27274   0.99777   0.00000  Uiso   1.00
H255   H     0.46036   0.20099   0.82975   0.00000  Uiso   1.00
H256   H     0.55771   0.26774   0.14027   0.00000  Uiso   1.00
H257   H     0.41714   0.35671   0.99907   0.00000  Uiso   1.00
H258   H     0.42956   0.11004   0.68178   0.00000  Uiso   1.00
H259   H     0.63482   0.25080   0.33652   0.00000  Uiso   1.00
H260   H     0.33842   0.43841   0.03878   0.00000  Uiso   1.00
H261   H     0.36654   0.18488   0.29277   0.00000  Uiso   1.00
H262   H     0.34552   0.10832   0.14093   0.00000  Uiso   1.00
H263   H     0.44287   0.17507   0.45145   0.00000  Uiso   1.00
H264   H     0.30231   0.26404   0.31025   0.00000  Uiso   1.00
H265   H     0.33635   0.03482   0.93434   0.00000  Uiso   1.00
H266   H     0.54161   0.17558   0.58910   0.00000  Uiso   1.00
H267   H     0.24521   0.36319   0.29135   0.00000  Uiso   1.00
O268   O     0.37110   0.02364   0.70287   0.00000  Uiso   1.00
O269   O     0.64039   0.20832   0.56188   0.00000  Uiso   1.00
O270   O     0.25152   0.45446   0.17125   0.00000  Uiso   1.00
N271   N     0.41050   0.10285   0.76205   0.00000  Uiso   1.00
N272   N     0.60241   0.23445   0.37419   0.00000  Uiso   1.00
N273   N     0.32531   0.40985   0.09585   0.00000  Uiso   1.00
N274   N     0.36035   0.06238   0.89795   0.00000  Uiso   1.00
N275   N     0.55225   0.19397   0.51009   0.00000  Uiso   1.00
N276   N     0.27515   0.36938   0.23175   0.00000  Uiso   1.00
C277   C     0.75261   0.04954   0.06535   0.00000  Uiso   1.00
C278   C     0.70145   0.07281   0.01497   0.00000  Uiso   1.00
C279   C     0.68098   0.06444   0.89691   0.00000  Uiso   1.00
C280   C     0.63368   0.08927   0.86869   0.00000  Uiso   1.00
C281   C     0.55816   0.12052   0.77727   0.00000  Uiso   1.00
C282   C     0.73771   0.01992   0.18367   0.00000  Uiso   1.00
C283   C     0.74773   0.96707   0.20746   0.00000  Uiso   1.00
C284   C     0.73096   0.94738   0.32127   0.00000  Uiso   1.00
C285   C     0.71177   0.89652   0.49181   0.00000  Uiso   1.00
C286   C     0.78605   0.09629   0.10694   0.00000  Uiso   1.00
C287   C     0.83672   0.10765   0.06625   0.00000  Uiso   1.00
C288   C     0.86065   0.15225   0.11548   0.00000  Uiso   1.00
C289   C     0.91651   0.21997   0.16689   0.00000  Uiso   1.00
C290   C     0.70501   0.10852   0.22518   0.00000  Uiso   1.00
C291   C     0.67560   0.10485   0.10178   0.00000  Uiso   1.00
C292   C     0.62832   0.12970   0.07373   0.00000  Uiso   1.00
C293   C     0.60778   0.12136   0.95565   0.00000  Uiso   1.00
C294   C     0.71186   0.05195   0.27048   0.00000  Uiso   1.00
C295   C     0.69507   0.03233   0.38429   0.00000  Uiso   1.00
C296   C     0.70506   0.97947   0.40824   0.00000  Uiso   1.00
C297   C     0.76019   0.12833   0.19375   0.00000  Uiso   1.00
C298   C     0.78405   0.17291   0.24307   0.00000  Uiso   1.00
C299   C     0.83475   0.18434   0.20245   0.00000  Uiso   1.00
H300   H     0.77274   0.02459   0.99777   0.00000  Uiso   1.00
H301   H     0.70099   0.03964   0.82975   0.00000  Uiso   1.00
H302   H     0.76774   0.94229   0.14027   0.00000  Uiso   1.00
H303   H     0.85671   0.08286   0.99907   0.00000  Uiso   1.00
H304   H     0.61004   0.07044   0.68178   0.00000  Uiso   1.00
H305   H     0.75080   0.86518   0.33652   0.00000  Uiso   1.00
H306   H     0.93841   0.16158   0.03878   0.00000  Uiso   1.00
H307   H     0.68488   0.13346   0.29277   0.00000  Uiso   1.00
H308   H     0.60832   0.15448   0.14093   0.00000  Uiso   1.00
H309   H     0.67507   0.05713   0.45145   0.00000  Uiso   1.00
H310   H     0.76404   0.19769   0.31025   0.00000  Uiso   1.00
H311   H     0.53482   0.16365   0.93434   0.00000  Uiso   1.00
H312   H     0.67558   0.95839   0.58910   0.00000  Uiso   1.00
H313   H     0.86319   0.25479   0.29135   0.00000  Uiso   1.00
O314   O     0.52364   0.12890   0.70287   0.00000  Uiso   1.00
O315   O     0.70832   0.85961   0.56188   0.00000  Uiso   1.00
O316   O     0.95446   0.24848   0.17125   0.00000  Uiso   1.00
N317   N     0.60285   0.08950   0.76205   0.00000  Uiso   1.00
N318   N     0.73445   0.89759   0.37419   0.00000  Uiso   1.00
N319   N     0.90985   0.17469   0.09585   0.00000  Uiso   1.00
N320   N     0.56238   0.13965   0.89795   0.00000  Uiso   1.00
N321   N     0.69397   0.94775   0.51009   0.00000  Uiso   1.00
N322   N     0.86938   0.22485   0.23175   0.00000  Uiso   1.00
C323   C     0.24739   0.95046   0.06535   0.00000  Uiso   1.00
C324   C     0.29855   0.92719   0.01497   0.00000  Uiso   1.00
C325   C     0.31902   0.93556   0.89691   0.00000  Uiso   1.00
C326   C     0.36632   0.91073   0.86869   0.00000  Uiso   1.00
C327   C     0.44184   0.87948   0.77727   0.00000  Uiso   1.00
C328   C     0.26229   0.98008   0.18367   0.00000  Uiso   1.00
C329   C     0.25227   0.03293   0.20746   0.00000  Uiso   1.00
C330   C     0.26904   0.05262   0.32127   0.00000  Uiso   1.00
C331   C     0.28823   0.10348   0.49181   0.00000  Uiso   1.00
C332   C     0.21395   0.90371   0.10694   0.00000  Uiso   1.00
C333   C     0.16328   0.89235   0.06625   0.00000  Uiso   1.00
C334   C     0.13935   0.84775   0.11548   0.00000  Uiso   1.00
C335   C     0.08349   0.78003   0.16689   0.00000  Uiso   1.00
C336   C     0.29499   0.89148   0.22518   0.00000  Uiso   1.00
C337   C     0.32440   0.89515   0.10178   0.00000  Uiso   1.00
C338   C     0.37168   0.87030   0.07373   0.00000  Uiso   1.00
C339   C     0.39222   0.87864   0.95565   0.00000  Uiso   1.00
C340   C     0.28814   0.94805   0.27048   0.00000  Uiso   1.00
C341   C     0.30493   0.96767   0.38429   0.00000  Uiso   1.00
C342   C     0.29494   0.02053   0.40824   0.00000  Uiso   1.00
C343   C     0.23981   0.87167   0.19375   0.00000  Uiso   1.00
C344   C     0.21595   0.82709   0.24307   0.00000  Uiso   1.00
C345   C     0.16525   0.81566   0.20245   0.00000  Uiso   1.00
H346   H     0.22726   0.97541   0.99777   0.00000  Uiso   1.00
H347   H     0.29901   0.96036   0.82975   0.00000  Uiso   1.00
H348   H     0.23226   0.05771   0.14027   0.00000  Uiso   1.00
H349   H     0.14329   0.91714   0.99907   0.00000  Uiso   1.00
H350   H     0.38996   0.92956   0.68178   0.00000  Uiso   1.00
H351   H     0.24920   0.13482   0.33652   0.00000  Uiso   1.00
H352   H     0.06159   0.83842   0.03878   0.00000  Uiso   1.00
H353   H     0.31512   0.86654   0.29277   0.00000  Uiso   1.00
H354   H     0.39168   0.84552   0.14093   0.00000  Uiso   1.00
H355   H     0.32493   0.94287   0.45145   0.00000  Uiso   1.00
H356   H     0.23596   0.80231   0.31025   0.00000  Uiso   1.00
H357   H     0.46518   0.83635   0.93434   0.00000  Uiso   1.00
H358   H     0.32442   0.04161   0.58910   0.00000  Uiso   1.00
H359   H     0.13681   0.74521   0.29135   0.00000  Uiso   1.00
O360   O     0.47636   0.87110   0.70287   0.00000  Uiso   1.00
O361   O     0.29168   0.14039   0.56188   0.00000  Uiso   1.00
O362   O     0.04554   0.75152   0.17125   0.00000  Uiso   1.00
N363   N     0.39715   0.91050   0.76205   0.00000  Uiso   1.00
N364   N     0.26555   0.10241   0.37419   0.00000  Uiso   1.00
N365   N     0.09015   0.82531   0.09585   0.00000  Uiso   1.00
N366   N     0.43762   0.86035   0.89795   0.00000  Uiso   1.00
N367   N     0.30603   0.05225   0.51009   0.00000  Uiso   1.00
N368   N     0.13062   0.77515   0.23175   0.00000  Uiso   1.00
