data_job_00316
_audit_creation_date              2018-12-19
_audit_creation_method            'Materials Studio'
_symmetry_space_group_name_H-M    'P1'
_symmetry_Int_Tables_number       1
_symmetry_cell_setting            triclinic
loop_
_symmetry_equiv_pos_as_xyz
  x,y,z
_cell_length_a                    15.2485
_cell_length_b                    27.9249
_cell_length_c                    11.7904
_cell_angle_alpha                 90.0000
_cell_angle_beta                  96.7693
_cell_angle_gamma                 90.0000
loop_
_atom_site_label
_atom_site_type_symbol
_atom_site_fract_x
_atom_site_fract_y
_atom_site_fract_z
_atom_site_U_iso_or_equiv
_atom_site_adp_type
_atom_site_occupancy
C1     C     0.86074   0.38114   0.24504   0.00000  Uiso   1.00
C2     C     0.84717   0.39538   0.11933   0.00000  Uiso   1.00
C3     C     0.90969   0.41692   0.05955   0.00000  Uiso   1.00
C4     C     0.88442   0.42711   0.94510   0.00000  Uiso   1.00
C5     C     0.87626   0.45086   0.75790   0.00000  Uiso   1.00
C6     C     0.83992   0.32779   0.24854   0.00000  Uiso   1.00
C7     C     0.89634   0.29251   0.29742   0.00000  Uiso   1.00
C8     C     0.86495   0.24579   0.29175   0.00000  Uiso   1.00
C9     C     0.84551   0.16461   0.30523   0.00000  Uiso   1.00
C10    C     0.78818   0.40640   0.30081   0.00000  Uiso   1.00
C11    C     0.80110   0.43720   0.39365   0.00000  Uiso   1.00
C12    C     0.72615   0.45665   0.43201   0.00000  Uiso   1.00
C13    C     0.62637   0.49753   0.52664   0.00000  Uiso   1.00
C14    C     0.70468   0.36092   0.14809   0.00000  Uiso   1.00
C15    C     0.76240   0.38439   0.06667   0.00000  Uiso   1.00
C16    C     0.73702   0.39455   0.95228   0.00000  Uiso   1.00
C17    C     0.79949   0.41610   0.89235   0.00000  Uiso   1.00
C18    C     0.75516   0.31680   0.19588   0.00000  Uiso   1.00
C19    C     0.72367   0.27013   0.19015   0.00000  Uiso   1.00
C20    C     0.78003   0.23478   0.23900   0.00000  Uiso   1.00
C21    C     0.70341   0.39541   0.24815   0.00000  Uiso   1.00
C22    C     0.62843   0.41482   0.28638   0.00000  Uiso   1.00
C23    C     0.64122   0.44565   0.37926   0.00000  Uiso   1.00
H24    H     0.92674   0.38969   0.28604   0.00000  Uiso   1.00
H25    H     0.97529   0.42542   0.10033   0.00000  Uiso   1.00
H26    H     0.96193   0.30102   0.33817   0.00000  Uiso   1.00
H27    H     0.86671   0.44569   0.43438   0.00000  Uiso   1.00
H28    H     0.99175   0.46016   0.87120   0.00000  Uiso   1.00
H29    H     0.96357   0.19786   0.37273   0.00000  Uiso   1.00
H30    H     0.76277   0.50293   0.57563   0.00000  Uiso   1.00
H31    H     0.63868   0.35236   0.10709   0.00000  Uiso   1.00
H32    H     0.67142   0.38604   0.91156   0.00000  Uiso   1.00
H33    H     0.65807   0.26164   0.14940   0.00000  Uiso   1.00
H34    H     0.56284   0.40631   0.24561   0.00000  Uiso   1.00
H35    H     0.74511   0.42820   0.71799   0.00000  Uiso   1.00
H36    H     0.71694   0.16590   0.21953   0.00000  Uiso   1.00
H37    H     0.51614   0.47097   0.42241   0.00000  Uiso   1.00
O38    O     0.89518   0.46699   0.66919   0.00000  Uiso   1.00
O39    O     0.85821   0.12287   0.32720   0.00000  Uiso   1.00
O40    O     0.59476   0.52311   0.59338   0.00000  Uiso   1.00
N41    N     0.92920   0.44803   0.86198   0.00000  Uiso   1.00
N42    N     0.90287   0.20279   0.33087   0.00000  Uiso   1.00
N43    N     0.71513   0.48799   0.52057   0.00000  Uiso   1.00
N44    N     0.79649   0.43083   0.77954   0.00000  Uiso   1.00
N45    N     0.77016   0.18560   0.24843   0.00000  Uiso   1.00
N46    N     0.58242   0.47079   0.43813   0.00000  Uiso   1.00
C47    C     0.36074   0.88114   0.24504   0.00000  Uiso   1.00
C48    C     0.34717   0.89538   0.11933   0.00000  Uiso   1.00
C49    C     0.40969   0.91692   0.05955   0.00000  Uiso   1.00
C50    C     0.38442   0.92711   0.94510   0.00000  Uiso   1.00
C51    C     0.37626   0.95086   0.75790   0.00000  Uiso   1.00
C52    C     0.33992   0.82779   0.24854   0.00000  Uiso   1.00
C53    C     0.39634   0.79251   0.29742   0.00000  Uiso   1.00
C54    C     0.36495   0.74579   0.29175   0.00000  Uiso   1.00
C55    C     0.34551   0.66461   0.30523   0.00000  Uiso   1.00
C56    C     0.28818   0.90640   0.30081   0.00000  Uiso   1.00
C57    C     0.30110   0.93720   0.39365   0.00000  Uiso   1.00
C58    C     0.22615   0.95665   0.43201   0.00000  Uiso   1.00
C59    C     0.12637   0.99753   0.52664   0.00000  Uiso   1.00
C60    C     0.20468   0.86092   0.14809   0.00000  Uiso   1.00
C61    C     0.26240   0.88439   0.06667   0.00000  Uiso   1.00
C62    C     0.23702   0.89455   0.95228   0.00000  Uiso   1.00
C63    C     0.29949   0.91610   0.89235   0.00000  Uiso   1.00
C64    C     0.25516   0.81680   0.19588   0.00000  Uiso   1.00
C65    C     0.22367   0.77013   0.19015   0.00000  Uiso   1.00
C66    C     0.28003   0.73478   0.23900   0.00000  Uiso   1.00
C67    C     0.20341   0.89541   0.24815   0.00000  Uiso   1.00
C68    C     0.12843   0.91482   0.28638   0.00000  Uiso   1.00
C69    C     0.14122   0.94565   0.37926   0.00000  Uiso   1.00
H70    H     0.42674   0.88969   0.28604   0.00000  Uiso   1.00
H71    H     0.47529   0.92542   0.10033   0.00000  Uiso   1.00
H72    H     0.46193   0.80102   0.33817   0.00000  Uiso   1.00
H73    H     0.36671   0.94569   0.43438   0.00000  Uiso   1.00
H74    H     0.49175   0.96016   0.87120   0.00000  Uiso   1.00
H75    H     0.46357   0.69786   0.37273   0.00000  Uiso   1.00
H76    H     0.26277   0.00293   0.57563   0.00000  Uiso   1.00
H77    H     0.13868   0.85236   0.10709   0.00000  Uiso   1.00
H78    H     0.17142   0.88604   0.91156   0.00000  Uiso   1.00
H79    H     0.15807   0.76164   0.14940   0.00000  Uiso   1.00
H80    H     0.06284   0.90631   0.24561   0.00000  Uiso   1.00
H81    H     0.24511   0.92820   0.71799   0.00000  Uiso   1.00
H82    H     0.21694   0.66590   0.21953   0.00000  Uiso   1.00
H83    H     0.01614   0.97097   0.42241   0.00000  Uiso   1.00
O84    O     0.39518   0.96699   0.66919   0.00000  Uiso   1.00
O85    O     0.35821   0.62287   0.32720   0.00000  Uiso   1.00
O86    O     0.09476   0.02311   0.59338   0.00000  Uiso   1.00
N87    N     0.42920   0.94803   0.86198   0.00000  Uiso   1.00
N88    N     0.40287   0.70279   0.33087   0.00000  Uiso   1.00
N89    N     0.21513   0.98799   0.52057   0.00000  Uiso   1.00
N90    N     0.29649   0.93083   0.77954   0.00000  Uiso   1.00
N91    N     0.27016   0.68560   0.24843   0.00000  Uiso   1.00
N92    N     0.08242   0.97079   0.43813   0.00000  Uiso   1.00
C93    C     0.13926   0.38114   0.25496   0.00000  Uiso   1.00
C94    C     0.15283   0.39538   0.38067   0.00000  Uiso   1.00
C95    C     0.09031   0.41692   0.44045   0.00000  Uiso   1.00
C96    C     0.11558   0.42711   0.55490   0.00000  Uiso   1.00
C97    C     0.12374   0.45086   0.74210   0.00000  Uiso   1.00
C98    C     0.16008   0.32779   0.25146   0.00000  Uiso   1.00
C99    C     0.10366   0.29251   0.20258   0.00000  Uiso   1.00
C100   C     0.13505   0.24579   0.20825   0.00000  Uiso   1.00
C101   C     0.15449   0.16461   0.19477   0.00000  Uiso   1.00
C102   C     0.21182   0.40640   0.19919   0.00000  Uiso   1.00
C103   C     0.19890   0.43720   0.10635   0.00000  Uiso   1.00
C104   C     0.27385   0.45665   0.06799   0.00000  Uiso   1.00
C105   C     0.37363   0.49753   0.97336   0.00000  Uiso   1.00
C106   C     0.29532   0.36092   0.35191   0.00000  Uiso   1.00
C107   C     0.23760   0.38439   0.43333   0.00000  Uiso   1.00
C108   C     0.26298   0.39455   0.54772   0.00000  Uiso   1.00
C109   C     0.20051   0.41610   0.60765   0.00000  Uiso   1.00
C110   C     0.24484   0.31680   0.30412   0.00000  Uiso   1.00
C111   C     0.27633   0.27013   0.30985   0.00000  Uiso   1.00
C112   C     0.21997   0.23478   0.26100   0.00000  Uiso   1.00
C113   C     0.29659   0.39541   0.25185   0.00000  Uiso   1.00
C114   C     0.37157   0.41482   0.21362   0.00000  Uiso   1.00
C115   C     0.35878   0.44565   0.12074   0.00000  Uiso   1.00
H116   H     0.07326   0.38969   0.21396   0.00000  Uiso   1.00
H117   H     0.02471   0.42542   0.39967   0.00000  Uiso   1.00
H118   H     0.03807   0.30102   0.16183   0.00000  Uiso   1.00
H119   H     0.13329   0.44569   0.06562   0.00000  Uiso   1.00
H120   H     0.00825   0.46016   0.62880   0.00000  Uiso   1.00
H121   H     0.03643   0.19786   0.12727   0.00000  Uiso   1.00
H122   H     0.23723   0.50293   0.92437   0.00000  Uiso   1.00
H123   H     0.36132   0.35236   0.39291   0.00000  Uiso   1.00
H124   H     0.32858   0.38604   0.58844   0.00000  Uiso   1.00
H125   H     0.34193   0.26164   0.35060   0.00000  Uiso   1.00
H126   H     0.43716   0.40631   0.25439   0.00000  Uiso   1.00
H127   H     0.25489   0.42820   0.78201   0.00000  Uiso   1.00
H128   H     0.28306   0.16590   0.28047   0.00000  Uiso   1.00
H129   H     0.48386   0.47097   0.07759   0.00000  Uiso   1.00
O130   O     0.10482   0.46699   0.83081   0.00000  Uiso   1.00
O131   O     0.14179   0.12287   0.17280   0.00000  Uiso   1.00
O132   O     0.40524   0.52311   0.90662   0.00000  Uiso   1.00
N133   N     0.07080   0.44803   0.63802   0.00000  Uiso   1.00
N134   N     0.09713   0.20279   0.16913   0.00000  Uiso   1.00
N135   N     0.28487   0.48799   0.97943   0.00000  Uiso   1.00
N136   N     0.20351   0.43083   0.72046   0.00000  Uiso   1.00
N137   N     0.22984   0.18560   0.25157   0.00000  Uiso   1.00
N138   N     0.41758   0.47079   0.06187   0.00000  Uiso   1.00
C139   C     0.63926   0.88114   0.25496   0.00000  Uiso   1.00
C140   C     0.65283   0.89538   0.38067   0.00000  Uiso   1.00
C141   C     0.59031   0.91692   0.44045   0.00000  Uiso   1.00
C142   C     0.61558   0.92711   0.55490   0.00000  Uiso   1.00
C143   C     0.62374   0.95086   0.74210   0.00000  Uiso   1.00
C144   C     0.66008   0.82779   0.25146   0.00000  Uiso   1.00
C145   C     0.60366   0.79251   0.20258   0.00000  Uiso   1.00
C146   C     0.63505   0.74579   0.20825   0.00000  Uiso   1.00
C147   C     0.65449   0.66461   0.19477   0.00000  Uiso   1.00
C148   C     0.71182   0.90640   0.19919   0.00000  Uiso   1.00
C149   C     0.69890   0.93720   0.10635   0.00000  Uiso   1.00
C150   C     0.77385   0.95665   0.06799   0.00000  Uiso   1.00
C151   C     0.87363   0.99753   0.97336   0.00000  Uiso   1.00
C152   C     0.79532   0.86092   0.35191   0.00000  Uiso   1.00
C153   C     0.73760   0.88439   0.43333   0.00000  Uiso   1.00
C154   C     0.76298   0.89455   0.54772   0.00000  Uiso   1.00
C155   C     0.70051   0.91610   0.60765   0.00000  Uiso   1.00
C156   C     0.74484   0.81680   0.30412   0.00000  Uiso   1.00
C157   C     0.77633   0.77013   0.30985   0.00000  Uiso   1.00
C158   C     0.71997   0.73478   0.26100   0.00000  Uiso   1.00
C159   C     0.79659   0.89541   0.25185   0.00000  Uiso   1.00
C160   C     0.87157   0.91482   0.21362   0.00000  Uiso   1.00
C161   C     0.85878   0.94565   0.12074   0.00000  Uiso   1.00
H162   H     0.57326   0.88969   0.21396   0.00000  Uiso   1.00
H163   H     0.52471   0.92542   0.39967   0.00000  Uiso   1.00
H164   H     0.53807   0.80102   0.16183   0.00000  Uiso   1.00
H165   H     0.63329   0.94569   0.06562   0.00000  Uiso   1.00
H166   H     0.50825   0.96016   0.62880   0.00000  Uiso   1.00
H167   H     0.53643   0.69786   0.12727   0.00000  Uiso   1.00
H168   H     0.73723   0.00293   0.92437   0.00000  Uiso   1.00
H169   H     0.86132   0.85236   0.39291   0.00000  Uiso   1.00
H170   H     0.82858   0.88604   0.58844   0.00000  Uiso   1.00
H171   H     0.84193   0.76164   0.35060   0.00000  Uiso   1.00
H172   H     0.93716   0.90631   0.25439   0.00000  Uiso   1.00
H173   H     0.75489   0.92820   0.78201   0.00000  Uiso   1.00
H174   H     0.78306   0.66590   0.28047   0.00000  Uiso   1.00
H175   H     0.98386   0.97097   0.07759   0.00000  Uiso   1.00
O176   O     0.60482   0.96699   0.83081   0.00000  Uiso   1.00
O177   O     0.64179   0.62287   0.17280   0.00000  Uiso   1.00
O178   O     0.90524   0.02311   0.90662   0.00000  Uiso   1.00
N179   N     0.57080   0.94803   0.63802   0.00000  Uiso   1.00
N180   N     0.59713   0.70279   0.16913   0.00000  Uiso   1.00
N181   N     0.78487   0.98799   0.97943   0.00000  Uiso   1.00
N182   N     0.70351   0.93083   0.72046   0.00000  Uiso   1.00
N183   N     0.72984   0.68560   0.25157   0.00000  Uiso   1.00
N184   N     0.91758   0.97079   0.06187   0.00000  Uiso   1.00
C185   C     0.13926   0.61886   0.75496   0.00000  Uiso   1.00
C186   C     0.15283   0.60462   0.88067   0.00000  Uiso   1.00
C187   C     0.09031   0.58308   0.94045   0.00000  Uiso   1.00
C188   C     0.11558   0.57289   0.05490   0.00000  Uiso   1.00
C189   C     0.12374   0.54914   0.24210   0.00000  Uiso   1.00
C190   C     0.16008   0.67221   0.75146   0.00000  Uiso   1.00
C191   C     0.10366   0.70749   0.70258   0.00000  Uiso   1.00
C192   C     0.13505   0.75421   0.70825   0.00000  Uiso   1.00
C193   C     0.15449   0.83539   0.69477   0.00000  Uiso   1.00
C194   C     0.21182   0.59360   0.69919   0.00000  Uiso   1.00
C195   C     0.19890   0.56280   0.60635   0.00000  Uiso   1.00
C196   C     0.27385   0.54335   0.56799   0.00000  Uiso   1.00
C197   C     0.37363   0.50247   0.47336   0.00000  Uiso   1.00
C198   C     0.29532   0.63908   0.85191   0.00000  Uiso   1.00
C199   C     0.23760   0.61561   0.93333   0.00000  Uiso   1.00
C200   C     0.26298   0.60545   0.04772   0.00000  Uiso   1.00
C201   C     0.20051   0.58390   0.10765   0.00000  Uiso   1.00
C202   C     0.24484   0.68320   0.80412   0.00000  Uiso   1.00
C203   C     0.27633   0.72987   0.80985   0.00000  Uiso   1.00
C204   C     0.21997   0.76522   0.76100   0.00000  Uiso   1.00
C205   C     0.29659   0.60459   0.75185   0.00000  Uiso   1.00
C206   C     0.37157   0.58518   0.71362   0.00000  Uiso   1.00
C207   C     0.35878   0.55435   0.62074   0.00000  Uiso   1.00
H208   H     0.07326   0.61031   0.71396   0.00000  Uiso   1.00
H209   H     0.02471   0.57458   0.89967   0.00000  Uiso   1.00
H210   H     0.03807   0.69898   0.66183   0.00000  Uiso   1.00
H211   H     0.13329   0.55431   0.56562   0.00000  Uiso   1.00
H212   H     0.00825   0.53984   0.12880   0.00000  Uiso   1.00
H213   H     0.03643   0.80214   0.62727   0.00000  Uiso   1.00
H214   H     0.23723   0.49707   0.42437   0.00000  Uiso   1.00
H215   H     0.36132   0.64764   0.89291   0.00000  Uiso   1.00
H216   H     0.32858   0.61396   0.08844   0.00000  Uiso   1.00
H217   H     0.34193   0.73836   0.85060   0.00000  Uiso   1.00
H218   H     0.43716   0.59369   0.75439   0.00000  Uiso   1.00
H219   H     0.25489   0.57180   0.28201   0.00000  Uiso   1.00
H220   H     0.28306   0.83410   0.78047   0.00000  Uiso   1.00
H221   H     0.48386   0.52903   0.57759   0.00000  Uiso   1.00
O222   O     0.10482   0.53301   0.33081   0.00000  Uiso   1.00
O223   O     0.14179   0.87713   0.67280   0.00000  Uiso   1.00
O224   O     0.40524   0.47689   0.40662   0.00000  Uiso   1.00
N225   N     0.07080   0.55197   0.13802   0.00000  Uiso   1.00
N226   N     0.09713   0.79721   0.66913   0.00000  Uiso   1.00
N227   N     0.28487   0.51201   0.47943   0.00000  Uiso   1.00
N228   N     0.20351   0.56917   0.22046   0.00000  Uiso   1.00
N229   N     0.22984   0.81440   0.75157   0.00000  Uiso   1.00
N230   N     0.41758   0.52921   0.56187   0.00000  Uiso   1.00
C231   C     0.63926   0.11886   0.75496   0.00000  Uiso   1.00
C232   C     0.65283   0.10462   0.88067   0.00000  Uiso   1.00
C233   C     0.59031   0.08308   0.94045   0.00000  Uiso   1.00
C234   C     0.61558   0.07289   0.05490   0.00000  Uiso   1.00
C235   C     0.62374   0.04914   0.24210   0.00000  Uiso   1.00
C236   C     0.66008   0.17221   0.75146   0.00000  Uiso   1.00
C237   C     0.60366   0.20749   0.70258   0.00000  Uiso   1.00
C238   C     0.63505   0.25421   0.70825   0.00000  Uiso   1.00
C239   C     0.65449   0.33539   0.69477   0.00000  Uiso   1.00
C240   C     0.71182   0.09360   0.69919   0.00000  Uiso   1.00
C241   C     0.69890   0.06280   0.60635   0.00000  Uiso   1.00
C242   C     0.77385   0.04335   0.56799   0.00000  Uiso   1.00
C243   C     0.87363   0.00247   0.47336   0.00000  Uiso   1.00
C244   C     0.79532   0.13908   0.85191   0.00000  Uiso   1.00
C245   C     0.73760   0.11561   0.93333   0.00000  Uiso   1.00
C246   C     0.76298   0.10545   0.04772   0.00000  Uiso   1.00
C247   C     0.70051   0.08390   0.10765   0.00000  Uiso   1.00
C248   C     0.74484   0.18320   0.80412   0.00000  Uiso   1.00
C249   C     0.77633   0.22987   0.80985   0.00000  Uiso   1.00
C250   C     0.71997   0.26522   0.76100   0.00000  Uiso   1.00
C251   C     0.79659   0.10459   0.75185   0.00000  Uiso   1.00
C252   C     0.87157   0.08518   0.71362   0.00000  Uiso   1.00
C253   C     0.85878   0.05435   0.62074   0.00000  Uiso   1.00
H254   H     0.57326   0.11031   0.71396   0.00000  Uiso   1.00
H255   H     0.52471   0.07458   0.89967   0.00000  Uiso   1.00
H256   H     0.53807   0.19898   0.66183   0.00000  Uiso   1.00
H257   H     0.63329   0.05431   0.56562   0.00000  Uiso   1.00
H258   H     0.50825   0.03984   0.12880   0.00000  Uiso   1.00
H259   H     0.53643   0.30214   0.62727   0.00000  Uiso   1.00
H260   H     0.73723   0.99707   0.42437   0.00000  Uiso   1.00
H261   H     0.86132   0.14764   0.89291   0.00000  Uiso   1.00
H262   H     0.82858   0.11396   0.08844   0.00000  Uiso   1.00
H263   H     0.84193   0.23836   0.85060   0.00000  Uiso   1.00
H264   H     0.93716   0.09369   0.75439   0.00000  Uiso   1.00
H265   H     0.75489   0.07180   0.28201   0.00000  Uiso   1.00
H266   H     0.78306   0.33410   0.78047   0.00000  Uiso   1.00
H267   H     0.98386   0.02903   0.57759   0.00000  Uiso   1.00
O268   O     0.60482   0.03301   0.33081   0.00000  Uiso   1.00
O269   O     0.64179   0.37713   0.67280   0.00000  Uiso   1.00
O270   O     0.90524   0.97689   0.40662   0.00000  Uiso   1.00
N271   N     0.57080   0.05197   0.13802   0.00000  Uiso   1.00
N272   N     0.59713   0.29721   0.66913   0.00000  Uiso   1.00
N273   N     0.78487   0.01201   0.47943   0.00000  Uiso   1.00
N274   N     0.70351   0.06917   0.22046   0.00000  Uiso   1.00
N275   N     0.72984   0.31440   0.75157   0.00000  Uiso   1.00
N276   N     0.91758   0.02921   0.56187   0.00000  Uiso   1.00
C277   C     0.86074   0.61886   0.74504   0.00000  Uiso   1.00
C278   C     0.84717   0.60462   0.61933   0.00000  Uiso   1.00
C279   C     0.90969   0.58308   0.55955   0.00000  Uiso   1.00
C280   C     0.88442   0.57289   0.44510   0.00000  Uiso   1.00
C281   C     0.87626   0.54914   0.25790   0.00000  Uiso   1.00
C282   C     0.83992   0.67221   0.74854   0.00000  Uiso   1.00
C283   C     0.89634   0.70749   0.79742   0.00000  Uiso   1.00
C284   C     0.86495   0.75421   0.79175   0.00000  Uiso   1.00
C285   C     0.84551   0.83539   0.80523   0.00000  Uiso   1.00
C286   C     0.78818   0.59360   0.80081   0.00000  Uiso   1.00
C287   C     0.80110   0.56280   0.89365   0.00000  Uiso   1.00
C288   C     0.72615   0.54335   0.93201   0.00000  Uiso   1.00
C289   C     0.62637   0.50247   0.02664   0.00000  Uiso   1.00
C290   C     0.70468   0.63908   0.64809   0.00000  Uiso   1.00
C291   C     0.76240   0.61561   0.56667   0.00000  Uiso   1.00
C292   C     0.73702   0.60545   0.45228   0.00000  Uiso   1.00
C293   C     0.79949   0.58390   0.39235   0.00000  Uiso   1.00
C294   C     0.75516   0.68320   0.69588   0.00000  Uiso   1.00
C295   C     0.72367   0.72987   0.69015   0.00000  Uiso   1.00
C296   C     0.78003   0.76522   0.73900   0.00000  Uiso   1.00
C297   C     0.70341   0.60459   0.74815   0.00000  Uiso   1.00
C298   C     0.62843   0.58518   0.78638   0.00000  Uiso   1.00
C299   C     0.64122   0.55435   0.87926   0.00000  Uiso   1.00
H300   H     0.92674   0.61031   0.78604   0.00000  Uiso   1.00
H301   H     0.97529   0.57458   0.60033   0.00000  Uiso   1.00
H302   H     0.96193   0.69898   0.83817   0.00000  Uiso   1.00
H303   H     0.86671   0.55431   0.93438   0.00000  Uiso   1.00
H304   H     0.99175   0.53984   0.37120   0.00000  Uiso   1.00
H305   H     0.96357   0.80214   0.87273   0.00000  Uiso   1.00
H306   H     0.76277   0.49707   0.07563   0.00000  Uiso   1.00
H307   H     0.63868   0.64764   0.60709   0.00000  Uiso   1.00
H308   H     0.67142   0.61396   0.41156   0.00000  Uiso   1.00
H309   H     0.65807   0.73836   0.64940   0.00000  Uiso   1.00
H310   H     0.56284   0.59369   0.74561   0.00000  Uiso   1.00
H311   H     0.74511   0.57180   0.21799   0.00000  Uiso   1.00
H312   H     0.71694   0.83410   0.71953   0.00000  Uiso   1.00
H313   H     0.51614   0.52903   0.92241   0.00000  Uiso   1.00
O314   O     0.89518   0.53301   0.16919   0.00000  Uiso   1.00
O315   O     0.85821   0.87713   0.82720   0.00000  Uiso   1.00
O316   O     0.59476   0.47689   0.09338   0.00000  Uiso   1.00
N317   N     0.92920   0.55197   0.36198   0.00000  Uiso   1.00
N318   N     0.90287   0.79721   0.83087   0.00000  Uiso   1.00
N319   N     0.71513   0.51201   0.02057   0.00000  Uiso   1.00
N320   N     0.79649   0.56917   0.27954   0.00000  Uiso   1.00
N321   N     0.77016   0.81440   0.74843   0.00000  Uiso   1.00
N322   N     0.58242   0.52921   0.93813   0.00000  Uiso   1.00
C323   C     0.36074   0.11886   0.74504   0.00000  Uiso   1.00
C324   C     0.34717   0.10462   0.61933   0.00000  Uiso   1.00
C325   C     0.40969   0.08308   0.55955   0.00000  Uiso   1.00
C326   C     0.38442   0.07289   0.44510   0.00000  Uiso   1.00
C327   C     0.37626   0.04914   0.25790   0.00000  Uiso   1.00
C328   C     0.33992   0.17221   0.74854   0.00000  Uiso   1.00
C329   C     0.39634   0.20749   0.79742   0.00000  Uiso   1.00
C330   C     0.36495   0.25421   0.79175   0.00000  Uiso   1.00
C331   C     0.34551   0.33539   0.80523   0.00000  Uiso   1.00
C332   C     0.28818   0.09360   0.80081   0.00000  Uiso   1.00
C333   C     0.30110   0.06280   0.89365   0.00000  Uiso   1.00
C334   C     0.22615   0.04335   0.93201   0.00000  Uiso   1.00
C335   C     0.12637   0.00247   0.02664   0.00000  Uiso   1.00
C336   C     0.20468   0.13908   0.64809   0.00000  Uiso   1.00
C337   C     0.26240   0.11561   0.56667   0.00000  Uiso   1.00
C338   C     0.23702   0.10545   0.45228   0.00000  Uiso   1.00
C339   C     0.29949   0.08390   0.39235   0.00000  Uiso   1.00
C340   C     0.25516   0.18320   0.69588   0.00000  Uiso   1.00
C341   C     0.22367   0.22987   0.69015   0.00000  Uiso   1.00
C342   C     0.28003   0.26522   0.73900   0.00000  Uiso   1.00
C343   C     0.20341   0.10459   0.74815   0.00000  Uiso   1.00
C344   C     0.12843   0.08518   0.78638   0.00000  Uiso   1.00
C345   C     0.14122   0.05435   0.87926   0.00000  Uiso   1.00
H346   H     0.42674   0.11031   0.78604   0.00000  Uiso   1.00
H347   H     0.47529   0.07458   0.60033   0.00000  Uiso   1.00
H348   H     0.46193   0.19898   0.83817   0.00000  Uiso   1.00
H349   H     0.36671   0.05431   0.93438   0.00000  Uiso   1.00
H350   H     0.49175   0.03984   0.37120   0.00000  Uiso   1.00
H351   H     0.46357   0.30214   0.87273   0.00000  Uiso   1.00
H352   H     0.26277   0.99707   0.07563   0.00000  Uiso   1.00
H353   H     0.13868   0.14764   0.60709   0.00000  Uiso   1.00
H354   H     0.17142   0.11396   0.41156   0.00000  Uiso   1.00
H355   H     0.15807   0.23836   0.64940   0.00000  Uiso   1.00
H356   H     0.06284   0.09369   0.74561   0.00000  Uiso   1.00
H357   H     0.24511   0.07180   0.21799   0.00000  Uiso   1.00
H358   H     0.21694   0.33410   0.71953   0.00000  Uiso   1.00
H359   H     0.01614   0.02903   0.92241   0.00000  Uiso   1.00
O360   O     0.39518   0.03301   0.16919   0.00000  Uiso   1.00
O361   O     0.35821   0.37713   0.82720   0.00000  Uiso   1.00
O362   O     0.09476   0.97689   0.09338   0.00000  Uiso   1.00
N363   N     0.42920   0.05197   0.36198   0.00000  Uiso   1.00
N364   N     0.40287   0.29721   0.83087   0.00000  Uiso   1.00
N365   N     0.21513   0.01201   0.02057   0.00000  Uiso   1.00
N366   N     0.29649   0.06917   0.27954   0.00000  Uiso   1.00
N367   N     0.27016   0.31440   0.74843   0.00000  Uiso   1.00
N368   N     0.08242   0.02921   0.93813   0.00000  Uiso   1.00
