data_job_00496
_audit_creation_date              2018-12-19
_audit_creation_method            'Materials Studio'
_symmetry_space_group_name_H-M    'P1'
_symmetry_Int_Tables_number       1
_symmetry_cell_setting            triclinic
loop_
_symmetry_equiv_pos_as_xyz
  x,y,z
_cell_length_a                    20.6006
_cell_length_b                    7.4087
_cell_length_c                    33.8859
_cell_angle_alpha                 90.0000
_cell_angle_beta                  144.6509
_cell_angle_gamma                 90.0000
loop_
_atom_site_label
_atom_site_type_symbol
_atom_site_fract_x
_atom_site_fract_y
_atom_site_fract_z
_atom_site_U_iso_or_equiv
_atom_site_adp_type
_atom_site_occupancy
C1     C     0.22127   0.07608   0.28345   0.00000  Uiso   1.00
C2     C     0.27984   0.15565   0.27646   0.00000  Uiso   1.00
C3     C     0.32912   0.05772   0.27059   0.00000  Uiso   1.00
C4     C     0.37844   0.15561   0.26472   0.00000  Uiso   1.00
C5     C     0.46944   0.25042   0.25391   0.00000  Uiso   1.00
C6     C     0.28070   0.15553   0.34879   0.00000  Uiso   1.00
C7     C     0.33069   0.05748   0.40372   0.00000  Uiso   1.00
C8     C     0.38073   0.15528   0.45873   0.00000  Uiso   1.00
C9     C     0.47299   0.24990   0.56018   0.00000  Uiso   1.00
C10    C     0.10325   0.15554   0.22511   0.00000  Uiso   1.00
C11    C     0.00403   0.05750   0.17607   0.00000  Uiso   1.00
C12    C     0.90466   0.15531   0.12696   0.00000  Uiso   1.00
C13    C     0.72140   0.24993   0.03639   0.00000  Uiso   1.00
C14    C     0.22123   0.42409   0.28346   0.00000  Uiso   1.00
C15    C     0.27982   0.34468   0.27647   0.00000  Uiso   1.00
C16    C     0.32908   0.44275   0.27060   0.00000  Uiso   1.00
C17    C     0.37842   0.34497   0.26473   0.00000  Uiso   1.00
C18    C     0.28068   0.34455   0.34879   0.00000  Uiso   1.00
C19    C     0.33065   0.44252   0.40373   0.00000  Uiso   1.00
C20    C     0.38071   0.34465   0.45873   0.00000  Uiso   1.00
C21    C     0.10323   0.34456   0.22512   0.00000  Uiso   1.00
C22    C     0.00399   0.44254   0.17608   0.00000  Uiso   1.00
C23    C     0.90464   0.34468   0.12697   0.00000  Uiso   1.00
H24    H     0.22129   0.92891   0.28345   0.00000  Uiso   1.00
H25    H     0.32913   0.91143   0.27060   0.00000  Uiso   1.00
H26    H     0.33068   0.91121   0.40370   0.00000  Uiso   1.00
H27    H     0.00408   0.91123   0.17608   0.00000  Uiso   1.00
H28    H     0.44871   0.97541   0.25638   0.00000  Uiso   1.00
H29    H     0.45197   0.97493   0.53702   0.00000  Uiso   1.00
H30    H     0.76324   0.97497   0.05704   0.00000  Uiso   1.00
H31    H     0.22122   0.57126   0.28346   0.00000  Uiso   1.00
H32    H     0.32905   0.58903   0.27061   0.00000  Uiso   1.00
H33    H     0.33061   0.58879   0.40372   0.00000  Uiso   1.00
H34    H     0.00400   0.58881   0.17610   0.00000  Uiso   1.00
H35    H     0.44865   0.52537   0.25639   0.00000  Uiso   1.00
H36    H     0.45190   0.52489   0.53703   0.00000  Uiso   1.00
H37    H     0.76319   0.52493   0.05706   0.00000  Uiso   1.00
O38    O     0.51965   0.25049   0.24795   0.00000  Uiso   1.00
O39    O     0.52390   0.24986   0.61613   0.00000  Uiso   1.00
O40    O     0.62032   0.24991   0.98642   0.00000  Uiso   1.00
N41    N     0.43388   0.10241   0.25813   0.00000  Uiso   1.00
N42    N     0.43694   0.10196   0.52052   0.00000  Uiso   1.00
N43    N     0.79304   0.10200   0.07179   0.00000  Uiso   1.00
N44    N     0.43385   0.39833   0.25814   0.00000  Uiso   1.00
N45    N     0.43691   0.39789   0.52053   0.00000  Uiso   1.00
N46    N     0.79301   0.39792   0.07180   0.00000  Uiso   1.00
C47    C     0.77873   0.57608   0.21655   0.00000  Uiso   1.00
C48    C     0.72016   0.65565   0.22354   0.00000  Uiso   1.00
C49    C     0.67088   0.55772   0.22941   0.00000  Uiso   1.00
C50    C     0.62156   0.65561   0.23528   0.00000  Uiso   1.00
C51    C     0.53056   0.75042   0.24609   0.00000  Uiso   1.00
C52    C     0.71930   0.65553   0.15121   0.00000  Uiso   1.00
C53    C     0.66931   0.55748   0.09628   0.00000  Uiso   1.00
C54    C     0.61927   0.65528   0.04127   0.00000  Uiso   1.00
C55    C     0.52701   0.74990   0.93982   0.00000  Uiso   1.00
C56    C     0.89675   0.65554   0.27489   0.00000  Uiso   1.00
C57    C     0.99597   0.55750   0.32393   0.00000  Uiso   1.00
C58    C     0.09534   0.65531   0.37304   0.00000  Uiso   1.00
C59    C     0.27860   0.74993   0.46361   0.00000  Uiso   1.00
C60    C     0.77877   0.92409   0.21654   0.00000  Uiso   1.00
C61    C     0.72018   0.84468   0.22353   0.00000  Uiso   1.00
C62    C     0.67092   0.94275   0.22940   0.00000  Uiso   1.00
C63    C     0.62158   0.84497   0.23527   0.00000  Uiso   1.00
C64    C     0.71932   0.84455   0.15121   0.00000  Uiso   1.00
C65    C     0.66935   0.94252   0.09627   0.00000  Uiso   1.00
C66    C     0.61929   0.84465   0.04127   0.00000  Uiso   1.00
C67    C     0.89677   0.84456   0.27488   0.00000  Uiso   1.00
C68    C     0.99601   0.94254   0.32392   0.00000  Uiso   1.00
C69    C     0.09536   0.84468   0.37303   0.00000  Uiso   1.00
H70    H     0.77871   0.42891   0.21655   0.00000  Uiso   1.00
H71    H     0.67087   0.41143   0.22940   0.00000  Uiso   1.00
H72    H     0.66932   0.41121   0.09630   0.00000  Uiso   1.00
H73    H     0.99592   0.41123   0.32392   0.00000  Uiso   1.00
H74    H     0.55129   0.47541   0.24362   0.00000  Uiso   1.00
H75    H     0.54803   0.47493   0.96298   0.00000  Uiso   1.00
H76    H     0.23676   0.47497   0.44296   0.00000  Uiso   1.00
H77    H     0.77878   0.07126   0.21654   0.00000  Uiso   1.00
H78    H     0.67095   0.08903   0.22939   0.00000  Uiso   1.00
H79    H     0.66939   0.08879   0.09628   0.00000  Uiso   1.00
H80    H     0.99600   0.08881   0.32390   0.00000  Uiso   1.00
H81    H     0.55135   0.02537   0.24361   0.00000  Uiso   1.00
H82    H     0.54810   0.02489   0.96297   0.00000  Uiso   1.00
H83    H     0.23681   0.02493   0.44294   0.00000  Uiso   1.00
O84    O     0.48035   0.75049   0.25205   0.00000  Uiso   1.00
O85    O     0.47610   0.74986   0.88387   0.00000  Uiso   1.00
O86    O     0.37968   0.74991   0.51358   0.00000  Uiso   1.00
N87    N     0.56612   0.60241   0.24187   0.00000  Uiso   1.00
N88    N     0.56306   0.60196   0.97948   0.00000  Uiso   1.00
N89    N     0.20696   0.60200   0.42821   0.00000  Uiso   1.00
N90    N     0.56615   0.89833   0.24186   0.00000  Uiso   1.00
N91    N     0.56309   0.89789   0.97947   0.00000  Uiso   1.00
N92    N     0.20699   0.89792   0.42820   0.00000  Uiso   1.00
C93    C     0.77873   0.92392   0.71655   0.00000  Uiso   1.00
C94    C     0.72016   0.84435   0.72354   0.00000  Uiso   1.00
C95    C     0.67088   0.94228   0.72941   0.00000  Uiso   1.00
C96    C     0.62156   0.84439   0.73528   0.00000  Uiso   1.00
C97    C     0.53056   0.74958   0.74609   0.00000  Uiso   1.00
C98    C     0.71930   0.84447   0.65121   0.00000  Uiso   1.00
C99    C     0.66931   0.94252   0.59628   0.00000  Uiso   1.00
C100   C     0.61927   0.84472   0.54127   0.00000  Uiso   1.00
C101   C     0.52701   0.75010   0.43982   0.00000  Uiso   1.00
C102   C     0.89675   0.84446   0.77489   0.00000  Uiso   1.00
C103   C     0.99597   0.94250   0.82393   0.00000  Uiso   1.00
C104   C     0.09534   0.84469   0.87304   0.00000  Uiso   1.00
C105   C     0.27860   0.75007   0.96361   0.00000  Uiso   1.00
C106   C     0.77877   0.57591   0.71654   0.00000  Uiso   1.00
C107   C     0.72018   0.65532   0.72353   0.00000  Uiso   1.00
C108   C     0.67092   0.55725   0.72940   0.00000  Uiso   1.00
C109   C     0.62158   0.65503   0.73527   0.00000  Uiso   1.00
C110   C     0.71932   0.65545   0.65121   0.00000  Uiso   1.00
C111   C     0.66935   0.55748   0.59627   0.00000  Uiso   1.00
C112   C     0.61929   0.65535   0.54127   0.00000  Uiso   1.00
C113   C     0.89677   0.65544   0.77488   0.00000  Uiso   1.00
C114   C     0.99601   0.55746   0.82392   0.00000  Uiso   1.00
C115   C     0.09536   0.65532   0.87303   0.00000  Uiso   1.00
H116   H     0.77871   0.07109   0.71655   0.00000  Uiso   1.00
H117   H     0.67087   0.08857   0.72940   0.00000  Uiso   1.00
H118   H     0.66932   0.08879   0.59630   0.00000  Uiso   1.00
H119   H     0.99592   0.08877   0.82392   0.00000  Uiso   1.00
H120   H     0.55129   0.02459   0.74362   0.00000  Uiso   1.00
H121   H     0.54803   0.02507   0.46298   0.00000  Uiso   1.00
H122   H     0.23676   0.02503   0.94296   0.00000  Uiso   1.00
H123   H     0.77878   0.42874   0.71654   0.00000  Uiso   1.00
H124   H     0.67095   0.41097   0.72939   0.00000  Uiso   1.00
H125   H     0.66939   0.41121   0.59628   0.00000  Uiso   1.00
H126   H     0.99600   0.41119   0.82390   0.00000  Uiso   1.00
H127   H     0.55135   0.47463   0.74361   0.00000  Uiso   1.00
H128   H     0.54810   0.47511   0.46297   0.00000  Uiso   1.00
H129   H     0.23681   0.47507   0.94294   0.00000  Uiso   1.00
O130   O     0.48035   0.74951   0.75205   0.00000  Uiso   1.00
O131   O     0.47610   0.75014   0.38387   0.00000  Uiso   1.00
O132   O     0.37968   0.75009   0.01358   0.00000  Uiso   1.00
N133   N     0.56612   0.89759   0.74187   0.00000  Uiso   1.00
N134   N     0.56306   0.89804   0.47948   0.00000  Uiso   1.00
N135   N     0.20696   0.89800   0.92821   0.00000  Uiso   1.00
N136   N     0.56615   0.60167   0.74186   0.00000  Uiso   1.00
N137   N     0.56309   0.60211   0.47947   0.00000  Uiso   1.00
N138   N     0.20699   0.60208   0.92820   0.00000  Uiso   1.00
C139   C     0.22127   0.42392   0.78345   0.00000  Uiso   1.00
C140   C     0.27984   0.34435   0.77646   0.00000  Uiso   1.00
C141   C     0.32912   0.44228   0.77059   0.00000  Uiso   1.00
C142   C     0.37844   0.34439   0.76472   0.00000  Uiso   1.00
C143   C     0.46944   0.24958   0.75391   0.00000  Uiso   1.00
C144   C     0.28070   0.34447   0.84879   0.00000  Uiso   1.00
C145   C     0.33069   0.44252   0.90372   0.00000  Uiso   1.00
C146   C     0.38073   0.34472   0.95873   0.00000  Uiso   1.00
C147   C     0.47299   0.25010   0.06018   0.00000  Uiso   1.00
C148   C     0.10325   0.34446   0.72511   0.00000  Uiso   1.00
C149   C     0.00403   0.44250   0.67607   0.00000  Uiso   1.00
C150   C     0.90466   0.34469   0.62696   0.00000  Uiso   1.00
C151   C     0.72140   0.25007   0.53639   0.00000  Uiso   1.00
C152   C     0.22123   0.07591   0.78346   0.00000  Uiso   1.00
C153   C     0.27982   0.15532   0.77647   0.00000  Uiso   1.00
C154   C     0.32908   0.05725   0.77060   0.00000  Uiso   1.00
C155   C     0.37842   0.15503   0.76473   0.00000  Uiso   1.00
C156   C     0.28068   0.15545   0.84879   0.00000  Uiso   1.00
C157   C     0.33065   0.05748   0.90373   0.00000  Uiso   1.00
C158   C     0.38071   0.15535   0.95873   0.00000  Uiso   1.00
C159   C     0.10323   0.15544   0.72512   0.00000  Uiso   1.00
C160   C     0.00399   0.05746   0.67608   0.00000  Uiso   1.00
C161   C     0.90464   0.15532   0.62697   0.00000  Uiso   1.00
H162   H     0.22129   0.57109   0.78345   0.00000  Uiso   1.00
H163   H     0.32913   0.58857   0.77060   0.00000  Uiso   1.00
H164   H     0.33068   0.58879   0.90370   0.00000  Uiso   1.00
H165   H     0.00408   0.58877   0.67608   0.00000  Uiso   1.00
H166   H     0.44871   0.52459   0.75638   0.00000  Uiso   1.00
H167   H     0.45197   0.52507   0.03702   0.00000  Uiso   1.00
H168   H     0.76324   0.52503   0.55704   0.00000  Uiso   1.00
H169   H     0.22122   0.92874   0.78346   0.00000  Uiso   1.00
H170   H     0.32905   0.91097   0.77061   0.00000  Uiso   1.00
H171   H     0.33061   0.91121   0.90372   0.00000  Uiso   1.00
H172   H     0.00400   0.91119   0.67610   0.00000  Uiso   1.00
H173   H     0.44865   0.97463   0.75639   0.00000  Uiso   1.00
H174   H     0.45190   0.97511   0.03703   0.00000  Uiso   1.00
H175   H     0.76319   0.97507   0.55706   0.00000  Uiso   1.00
O176   O     0.51965   0.24951   0.74795   0.00000  Uiso   1.00
O177   O     0.52390   0.25014   0.11613   0.00000  Uiso   1.00
O178   O     0.62032   0.25009   0.48642   0.00000  Uiso   1.00
N179   N     0.43388   0.39759   0.75813   0.00000  Uiso   1.00
N180   N     0.43694   0.39804   0.02052   0.00000  Uiso   1.00
N181   N     0.79304   0.39800   0.57179   0.00000  Uiso   1.00
N182   N     0.43385   0.10167   0.75814   0.00000  Uiso   1.00
N183   N     0.43691   0.10211   0.02053   0.00000  Uiso   1.00
N184   N     0.79301   0.10208   0.57180   0.00000  Uiso   1.00
