data_job_06557
_audit_creation_date              2018-12-19
_audit_creation_method            'Materials Studio'
_symmetry_space_group_name_H-M    'P1'
_symmetry_Int_Tables_number       1
_symmetry_cell_setting            triclinic
loop_
_symmetry_equiv_pos_as_xyz
  x,y,z
_cell_length_a                    19.2390
_cell_length_b                    21.0989
_cell_length_c                    21.0233
_cell_angle_alpha                 94.8754
_cell_angle_beta                  108.1030
_cell_angle_gamma                 114.8640
loop_
_atom_site_label
_atom_site_type_symbol
_atom_site_fract_x
_atom_site_fract_y
_atom_site_fract_z
_atom_site_U_iso_or_equiv
_atom_site_adp_type
_atom_site_occupancy
C1     C     0.84244   0.11763   0.73714   0.00000  Uiso   1.00
C2     C     0.75421   0.09396   0.73294   0.00000  Uiso   1.00
C3     C     0.69113   0.09527   0.67938   0.00000  Uiso   1.00
C4     C     0.61476   0.07139   0.68523   0.00000  Uiso   1.00
C5     C     0.47970   0.03837   0.66999   0.00000  Uiso   1.00
C6     C     0.89935   0.17526   0.80495   0.00000  Uiso   1.00
C7     C     0.95832   0.24491   0.81193   0.00000  Uiso   1.00
C8     C     0.00415   0.28946   0.87840   0.00000  Uiso   1.00
C9     C     0.09447   0.38264   0.97497   0.00000  Uiso   1.00
C10    C     0.85771   0.05301   0.74593   0.00000  Uiso   1.00
C11    C     0.88168   0.01988   0.70329   0.00000  Uiso   1.00
C12    C     0.89247   0.96151   0.72008   0.00000  Uiso   1.00
C13    C     0.91813   0.86487   0.72500   0.00000  Uiso   1.00
C14    C     0.81901   0.07288   0.84278   0.00000  Uiso   1.00
C15    C     0.74148   0.06966   0.79032   0.00000  Uiso   1.00
C16    C     0.66519   0.04576   0.79625   0.00000  Uiso   1.00
C17    C     0.60201   0.04703   0.74271   0.00000  Uiso   1.00
C18    C     0.88663   0.15096   0.86233   0.00000  Uiso   1.00
C19    C     0.93238   0.19540   0.92881   0.00000  Uiso   1.00
C20    C     0.99139   0.26511   0.93589   0.00000  Uiso   1.00
C21    C     0.84498   0.02870   0.80331   0.00000  Uiso   1.00
C22    C     0.85574   0.97037   0.82017   0.00000  Uiso   1.00
C23    C     0.87972   0.93716   0.77756   0.00000  Uiso   1.00
H24    H     0.85236   0.13655   0.69247   0.00000  Uiso   1.00
H25    H     0.70101   0.11409   0.63498   0.00000  Uiso   1.00
H26    H     0.96816   0.26370   0.76752   0.00000  Uiso   1.00
H27    H     0.89153   0.03870   0.65890   0.00000  Uiso   1.00
H28    H     0.52759   0.07849   0.59656   0.00000  Uiso   1.00
H29    H     0.09092   0.39395   0.87602   0.00000  Uiso   1.00
H30    H     0.92933   0.91950   0.64697   0.00000  Uiso   1.00
H31    H     0.80909   0.05396   0.88745   0.00000  Uiso   1.00
H32    H     0.65536   0.02696   0.84066   0.00000  Uiso   1.00
H33    H     0.92252   0.17658   0.97320   0.00000  Uiso   1.00
H34    H     0.84588   0.95158   0.86457   0.00000  Uiso   1.00
H35    H     0.49055   0.00778   0.76350   0.00000  Uiso   1.00
H36    H     0.05388   0.32324   0.04296   0.00000  Uiso   1.00
H37    H     0.89229   0.84878   0.81390   0.00000  Uiso   1.00
O38    O     0.40873   0.02689   0.64574   0.00000  Uiso   1.00
O39    O     0.14781   0.44075   0.01239   0.00000  Uiso   1.00
O40    O     0.93580   0.81828   0.71186   0.00000  Uiso   1.00
N41    N     0.53997   0.06554   0.64227   0.00000  Uiso   1.00
N42    N     0.06664   0.36048   0.90355   0.00000  Uiso   1.00
N43    N     0.91559   0.91692   0.68941   0.00000  Uiso   1.00
N44    N     0.52003   0.02749   0.73209   0.00000  Uiso   1.00
N45    N     0.04670   0.32243   0.99337   0.00000  Uiso   1.00
N46    N     0.89565   0.87887   0.77923   0.00000  Uiso   1.00
C47    C     0.98440   0.67285   0.17374   0.00000  Uiso   1.00
C48    C     0.00373   0.61240   0.15495   0.00000  Uiso   1.00
C49    C     0.95834   0.54046   0.15334   0.00000  Uiso   1.00
C50    C     0.98618   0.49353   0.13487   0.00000  Uiso   1.00
C51    C     0.00546   0.39599   0.10821   0.00000  Uiso   1.00
C52    C     0.06230   0.72991   0.23335   0.00000  Uiso   1.00
C53    C     0.06616   0.75678   0.29766   0.00000  Uiso   1.00
C54    C     0.14331   0.80877   0.34519   0.00000  Uiso   1.00
C55    C     0.25352   0.89371   0.44023   0.00000  Uiso   1.00
C56    C     0.97636   0.70680   0.11241   0.00000  Uiso   1.00
C57    C     0.90796   0.71424   0.07504   0.00000  Uiso   1.00
C58    C     0.91275   0.74680   0.02075   0.00000  Uiso   1.00
C59    C     0.88951   0.79584   0.92802   0.00000  Uiso   1.00
C60    C     0.11454   0.71744   0.14382   0.00000  Uiso   1.00
C61    C     0.07442   0.63662   0.13870   0.00000  Uiso   1.00
C62    C     0.10232   0.58979   0.12024   0.00000  Uiso   1.00
C63    C     0.05699   0.51779   0.11859   0.00000  Uiso   1.00
C64    C     0.13299   0.75413   0.21711   0.00000  Uiso   1.00
C65    C     0.21015   0.80611   0.26456   0.00000  Uiso   1.00
C66    C     0.21412   0.83304   0.32891   0.00000  Uiso   1.00
C67    C     0.04704   0.73101   0.09616   0.00000  Uiso   1.00
C68    C     0.05194   0.76357   0.04193   0.00000  Uiso   1.00
C69    C     0.98356   0.77106   0.00448   0.00000  Uiso   1.00
H70    H     0.92937   0.65400   0.18639   0.00000  Uiso   1.00
H71    H     0.90365   0.52174   0.16592   0.00000  Uiso   1.00
H72    H     0.01145   0.73803   0.31021   0.00000  Uiso   1.00
H73    H     0.85327   0.69550   0.08763   0.00000  Uiso   1.00
H74    H     0.90632   0.38578   0.13608   0.00000  Uiso   1.00
H75    H     0.13362   0.84186   0.44032   0.00000  Uiso   1.00
H76    H     0.80007   0.75218   0.97095   0.00000  Uiso   1.00
H77    H     0.16957   0.73630   0.13117   0.00000  Uiso   1.00
H78    H     0.15703   0.60855   0.10766   0.00000  Uiso   1.00
H79    H     0.26483   0.82484   0.25196   0.00000  Uiso   1.00
H80    H     0.10665   0.78231   0.02937   0.00000  Uiso   1.00
H81    H     0.11197   0.45624   0.08880   0.00000  Uiso   1.00
H82    H     0.33928   0.91232   0.39305   0.00000  Uiso   1.00
H83    H     0.00572   0.82264   0.92368   0.00000  Uiso   1.00
O84    O     0.99657   0.33550   0.09800   0.00000  Uiso   1.00
O85    O     0.29478   0.93386   0.49715   0.00000  Uiso   1.00
O86    O     0.85717   0.81620   0.88135   0.00000  Uiso   1.00
N87    N     0.95643   0.41990   0.12817   0.00000  Uiso   1.00
N88    N     0.16895   0.84629   0.41262   0.00000  Uiso   1.00
N89    N     0.85711   0.76247   0.97381   0.00000  Uiso   1.00
N90    N     0.06709   0.45781   0.10273   0.00000  Uiso   1.00
N91    N     0.27961   0.88421   0.38718   0.00000  Uiso   1.00
N92    N     0.96777   0.80038   0.94837   0.00000  Uiso   1.00
C93    C     0.37134   0.71124   0.69823   0.00000  Uiso   1.00
C94    C     0.35236   0.71718   0.62362   0.00000  Uiso   1.00
C95    C     0.39335   0.70786   0.58265   0.00000  Uiso   1.00
C96    C     0.36670   0.71557   0.51576   0.00000  Uiso   1.00
C97    C     0.34719   0.72234   0.40372   0.00000  Uiso   1.00
C98    C     0.38893   0.78278   0.74003   0.00000  Uiso   1.00
C99    C     0.46066   0.82860   0.79695   0.00000  Uiso   1.00
C100   C     0.46479   0.89151   0.82806   0.00000  Uiso   1.00
C101   C     0.50202   0.00009   0.89679   0.00000  Uiso   1.00
C102   C     0.29037   0.65450   0.69955   0.00000  Uiso   1.00
C103   C     0.27922   0.59246   0.72245   0.00000  Uiso   1.00
C104   C     0.20037   0.54739   0.71950   0.00000  Uiso   1.00
C105   C     0.08457   0.45679   0.72537   0.00000  Uiso   1.00
C106   C     0.25113   0.74150   0.65228   0.00000  Uiso   1.00
C107   C     0.28707   0.73362   0.59866   0.00000  Uiso   1.00
C108   C     0.26035   0.74134   0.53182   0.00000  Uiso   1.00
C109   C     0.30129   0.73203   0.49076   0.00000  Uiso   1.00
C110   C     0.32364   0.79922   0.71508   0.00000  Uiso   1.00
C111   C     0.32766   0.86208   0.74612   0.00000  Uiso   1.00
C112   C     0.39938   0.90798   0.80306   0.00000  Uiso   1.00
C113   C     0.22507   0.67093   0.67459   0.00000  Uiso   1.00
C114   C     0.14623   0.62595   0.67161   0.00000  Uiso   1.00
C115   C     0.13496   0.56385   0.69450   0.00000  Uiso   1.00
H116   H     0.42218   0.69844   0.71766   0.00000  Uiso   1.00
H117   H     0.44388   0.69515   0.60199   0.00000  Uiso   1.00
H118   H     0.51117   0.81586   0.81625   0.00000  Uiso   1.00
H119   H     0.32976   0.57976   0.74176   0.00000  Uiso   1.00
H120   H     0.43917   0.69877   0.46274   0.00000  Uiso   1.00
H121   H     0.58105   0.95328   0.91455   0.00000  Uiso   1.00
H122   H     0.19851   0.45543   0.75747   0.00000  Uiso   1.00
H123   H     0.20030   0.75430   0.63286   0.00000  Uiso   1.00
H124   H     0.20982   0.75406   0.51252   0.00000  Uiso   1.00
H125   H     0.27712   0.87478   0.72679   0.00000  Uiso   1.00
H126   H     0.09571   0.63868   0.65230   0.00000  Uiso   1.00
H127   H     0.24920   0.74659   0.39013   0.00000  Uiso   1.00
H128   H     0.39108   0.00110   0.84195   0.00000  Uiso   1.00
H129   H     0.00855   0.50325   0.68486   0.00000  Uiso   1.00
O130   O     0.35447   0.72154   0.34882   0.00000  Uiso   1.00
O131   O     0.54061   0.05544   0.94158   0.00000  Uiso   1.00
O132   O     0.03873   0.40227   0.73549   0.00000  Uiso   1.00
N133   N     0.39314   0.71004   0.46216   0.00000  Uiso   1.00
N134   N     0.52580   0.94800   0.88457   0.00000  Uiso   1.00
N135   N     0.16816   0.48256   0.73773   0.00000  Uiso   1.00
N136   N     0.29092   0.73577   0.42309   0.00000  Uiso   1.00
N137   N     0.42358   0.97373   0.84550   0.00000  Uiso   1.00
N138   N     0.06594   0.50829   0.69866   0.00000  Uiso   1.00
C139   C     0.33749   0.21469   0.68206   0.00000  Uiso   1.00
C140   C     0.26350   0.22935   0.66593   0.00000  Uiso   1.00
C141   C     0.19571   0.19485   0.68383   0.00000  Uiso   1.00
C142   C     0.13447   0.21598   0.66436   0.00000  Uiso   1.00
C143   C     0.01862   0.23061   0.64484   0.00000  Uiso   1.00
C144   C     0.41412   0.28695   0.72196   0.00000  Uiso   1.00
C145   C     0.47297   0.30086   0.78695   0.00000  Uiso   1.00
C146   C     0.53853   0.37048   0.81465   0.00000  Uiso   1.00
C147   C     0.65655   0.47451   0.88208   0.00000  Uiso   1.00
C148   C     0.34295   0.19554   0.61280   0.00000  Uiso   1.00
C149   C     0.34198   0.13260   0.58602   0.00000  Uiso   1.00
C150   C     0.34764   0.12527   0.52181   0.00000  Uiso   1.00
C151   C     0.35517   0.08738   0.41975   0.00000  Uiso   1.00
C152   C     0.34930   0.31358   0.61566   0.00000  Uiso   1.00
C153   C     0.26992   0.28307   0.62987   0.00000  Uiso   1.00
C154   C     0.20877   0.30426   0.61037   0.00000  Uiso   1.00
C155   C     0.14089   0.26979   0.62823   0.00000  Uiso   1.00
C156   C     0.42053   0.34066   0.68589   0.00000  Uiso   1.00
C157   C     0.48603   0.41028   0.71350   0.00000  Uiso   1.00
C158   C     0.54495   0.42429   0.77852   0.00000  Uiso   1.00
C159   C     0.34936   0.24926   0.57673   0.00000  Uiso   1.00
C160   C     0.35504   0.24202   0.51256   0.00000  Uiso   1.00
C161   C     0.35407   0.17909   0.48568   0.00000  Uiso   1.00
H162   H     0.33251   0.17287   0.71014   0.00000  Uiso   1.00
H163   H     0.19077   0.15328   0.71174   0.00000  Uiso   1.00
H164   H     0.46799   0.25928   0.81485   0.00000  Uiso   1.00
H165   H     0.33702   0.09105   0.61394   0.00000  Uiso   1.00
H166   H     0.03647   0.15527   0.69764   0.00000  Uiso   1.00
H167   H     0.62102   0.37876   0.91503   0.00000  Uiso   1.00
H168   H     0.34485   0.02402   0.49138   0.00000  Uiso   1.00
H169   H     0.35429   0.35541   0.58759   0.00000  Uiso   1.00
H170   H     0.21374   0.34584   0.58246   0.00000  Uiso   1.00
H171   H     0.49097   0.45183   0.68557   0.00000  Uiso   1.00
H172   H     0.36000   0.28360   0.48466   0.00000  Uiso   1.00
H173   H     0.05512   0.31156   0.59271   0.00000  Uiso   1.00
H174   H     0.63968   0.53505   0.81011   0.00000  Uiso   1.00
H175   H     0.36349   0.18031   0.38645   0.00000  Uiso   1.00
O176   O     0.95296   0.22384   0.64404   0.00000  Uiso   1.00
O177   O     0.71988   0.51705   0.92924   0.00000  Uiso   1.00
O178   O     0.35753   0.05163   0.37342   0.00000  Uiso   1.00
N179   N     0.06014   0.19336   0.67364   0.00000  Uiso   1.00
N180   N     0.60666   0.40231   0.87689   0.00000  Uiso   1.00
N181   N     0.34847   0.07066   0.48082   0.00000  Uiso   1.00
N182   N     0.07017   0.27746   0.61718   0.00000  Uiso   1.00
N183   N     0.61669   0.48641   0.82043   0.00000  Uiso   1.00
N184   N     0.35851   0.15476   0.42436   0.00000  Uiso   1.00
C185   C     0.42427   0.54854   0.21613   0.00000  Uiso   1.00
C186   C     0.44265   0.52424   0.15565   0.00000  Uiso   1.00
C187   C     0.40132   0.51882   0.08669   0.00000  Uiso   1.00
C188   C     0.42745   0.49557   0.03917   0.00000  Uiso   1.00
C189   C     0.44610   0.46049   0.94211   0.00000  Uiso   1.00
C190   C     0.50555   0.61210   0.26620   0.00000  Uiso   1.00
C191   C     0.51711   0.68055   0.29019   0.00000  Uiso   1.00
C192   C     0.59619   0.73125   0.33574   0.00000  Uiso   1.00
C193   C     0.71249   0.83256   0.41034   0.00000  Uiso   1.00
C194   C     0.40677   0.48758   0.25274   0.00000  Uiso   1.00
C195   C     0.33529   0.45134   0.26544   0.00000  Uiso   1.00
C196   C     0.33121   0.39721   0.29967   0.00000  Uiso   1.00
C197   C     0.29414   0.30518   0.35337   0.00000  Uiso   1.00
C198   C     0.54415   0.51686   0.25435   0.00000  Uiso   1.00
C199   C     0.50777   0.50704   0.17641   0.00000  Uiso   1.00
C200   C     0.53396   0.48378   0.12899   0.00000  Uiso   1.00
C201   C     0.49268   0.47833   0.05997   0.00000  Uiso   1.00
C202   C     0.57067   0.59490   0.28696   0.00000  Uiso   1.00
C203   C     0.64975   0.64551   0.33248   0.00000  Uiso   1.00
C204   C     0.66142   0.71402   0.35654   0.00000  Uiso   1.00
C205   C     0.47189   0.47037   0.27350   0.00000  Uiso   1.00
C206   C     0.46792   0.41629   0.30772   0.00000  Uiso   1.00
C207   C     0.39644   0.37997   0.32047   0.00000  Uiso   1.00
H208   H     0.37358   0.56194   0.19997   0.00000  Uiso   1.00
H209   H     0.35094   0.53215   0.07065   0.00000  Uiso   1.00
H210   H     0.46671   0.69385   0.27412   0.00000  Uiso   1.00
H211   H     0.28491   0.46467   0.24936   0.00000  Uiso   1.00
H212   H     0.35457   0.49157   0.93643   0.00000  Uiso   1.00
H213   H     0.59867   0.83250   0.36548   0.00000  Uiso   1.00
H214   H     0.21531   0.34923   0.31328   0.00000  Uiso   1.00
H215   H     0.59485   0.50347   0.27052   0.00000  Uiso   1.00
H216   H     0.58435   0.47047   0.14507   0.00000  Uiso   1.00
H217   H     0.70012   0.63217   0.34854   0.00000  Uiso   1.00
H218   H     0.51832   0.40299   0.32378   0.00000  Uiso   1.00
H219   H     0.54402   0.44151   0.99683   0.00000  Uiso   1.00
H220   H     0.78812   0.78245   0.42589   0.00000  Uiso   1.00
H221   H     0.40476   0.29917   0.37368   0.00000  Uiso   1.00
O222   O     0.43841   0.44591   0.88284   0.00000  Uiso   1.00
O223   O     0.75865   0.89320   0.44575   0.00000  Uiso   1.00
O224   O     0.25570   0.25916   0.37725   0.00000  Uiso   1.00
N225   N     0.40059   0.48430   0.96786   0.00000  Uiso   1.00
N226   N     0.62881   0.80306   0.36899   0.00000  Uiso   1.00
N227   N     0.27041   0.35125   0.32020   0.00000  Uiso   1.00
N228   N     0.50253   0.45736   0.00036   0.00000  Uiso   1.00
N229   N     0.73075   0.77612   0.40149   0.00000  Uiso   1.00
N230   N     0.37235   0.32432   0.35271   0.00000  Uiso   1.00
C231   C     0.80801   0.17677   0.20647   0.00000  Uiso   1.00
C232   C     0.75386   0.09881   0.20519   0.00000  Uiso   1.00
C233   C     0.76004   0.03936   0.17967   0.00000  Uiso   1.00
C234   C     0.70478   0.97259   0.18320   0.00000  Uiso   1.00
C235   C     0.62975   0.85262   0.17699   0.00000  Uiso   1.00
C236   C     0.84677   0.21920   0.28173   0.00000  Uiso   1.00
C237   C     0.93107   0.26097   0.32055   0.00000  Uiso   1.00
C238   C     0.95401   0.29555   0.38849   0.00000  Uiso   1.00
C239   C     0.02323   0.36252   0.50108   0.00000  Uiso   1.00
C240   C     0.74860   0.20348   0.16788   0.00000  Uiso   1.00
C241   C     0.75037   0.23206   0.11098   0.00000  Uiso   1.00
C242   C     0.69067   0.25342   0.08308   0.00000  Uiso   1.00
C243   C     0.60746   0.29599   0.01890   0.00000  Uiso   1.00
C244   C     0.69887   0.16391   0.25810   0.00000  Uiso   1.00
C245   C     0.69459   0.09183   0.23324   0.00000  Uiso   1.00
C246   C     0.63930   0.02513   0.23680   0.00000  Uiso   1.00
C247   C     0.64539   0.96559   0.21129   0.00000  Uiso   1.00
C248   C     0.78750   0.21221   0.30977   0.00000  Uiso   1.00
C249   C     0.81033   0.24674   0.37768   0.00000  Uiso   1.00
C250   C     0.89463   0.28855   0.41659   0.00000  Uiso   1.00
C251   C     0.68932   0.19649   0.19592   0.00000  Uiso   1.00
C252   C     0.62962   0.21783   0.16811   0.00000  Uiso   1.00
C253   C     0.63129   0.24643   0.11118   0.00000  Uiso   1.00
H254   H     0.85416   0.18221   0.18464   0.00000  Uiso   1.00
H255   H     0.80593   0.04479   0.15798   0.00000  Uiso   1.00
H256   H     0.97692   0.26637   0.29883   0.00000  Uiso   1.00
H257   H     0.79624   0.23746   0.08929   0.00000  Uiso   1.00
H258   H     0.72633   0.88936   0.14082   0.00000  Uiso   1.00
H259   H     0.08689   0.35660   0.43780   0.00000  Uiso   1.00
H260   H     0.70590   0.29563   0.99595   0.00000  Uiso   1.00
H261   H     0.65273   0.15847   0.27994   0.00000  Uiso   1.00
H262   H     0.59343   0.01974   0.25851   0.00000  Uiso   1.00
H263   H     0.76444   0.24133   0.39936   0.00000  Uiso   1.00
H264   H     0.58376   0.21241   0.18983   0.00000  Uiso   1.00
H265   H     0.55387   0.86903   0.22242   0.00000  Uiso   1.00
H266   H     0.91443   0.33627   0.51940   0.00000  Uiso   1.00
H267   H     0.53343   0.27530   0.07755   0.00000  Uiso   1.00
O268   O     0.60475   0.78837   0.16582   0.00000  Uiso   1.00
O269   O     0.07778   0.40138   0.55544   0.00000  Uiso   1.00
O270   O     0.57793   0.32138   0.97575   0.00000  Uiso   1.00
N271   N     0.69387   0.90361   0.16295   0.00000  Uiso   1.00
N272   N     0.03097   0.34044   0.44061   0.00000  Uiso   1.00
N273   N     0.67479   0.28346   0.02753   0.00000  Uiso   1.00
N274   N     0.60107   0.89267   0.20686   0.00000  Uiso   1.00
N275   N     0.93817   0.32950   0.48452   0.00000  Uiso   1.00
N276   N     0.58198   0.27252   0.07144   0.00000  Uiso   1.00
C277   C     0.34544   0.67890   0.03131   0.00000  Uiso   1.00
C278   C     0.41914   0.70630   0.00923   0.00000  Uiso   1.00
C279   C     0.46730   0.67275   0.00778   0.00000  Uiso   1.00
C280   C     0.53193   0.70642   0.98598   0.00000  Uiso   1.00
C281   C     0.64394   0.73909   0.95465   0.00000  Uiso   1.00
C282   C     0.27224   0.67246   0.97055   0.00000  Uiso   1.00
C283   C     0.19687   0.61046   0.93659   0.00000  Uiso   1.00
C284   C     0.13783   0.61566   0.88223   0.00000  Uiso   1.00
C285   C     0.02174   0.59580   0.79088   0.00000  Uiso   1.00
C286   C     0.36491   0.73979   0.08936   0.00000  Uiso   1.00
C287   C     0.36744   0.73440   0.15529   0.00000  Uiso   1.00
C288   C     0.38640   0.79627   0.20095   0.00000  Uiso   1.00
C289   C     0.41420   0.88095   0.29408   0.00000  Uiso   1.00
C290   C     0.37458   0.79837   0.99515   0.00000  Uiso   1.00
C291   C     0.43497   0.77119   0.98959   0.00000  Uiso   1.00
C292   C     0.49954   0.80493   0.96779   0.00000  Uiso   1.00
C293   C     0.54779   0.77143   0.96631   0.00000  Uiso   1.00
C294   C     0.28806   0.73735   0.95091   0.00000  Uiso   1.00
C295   C     0.22911   0.74264   0.89659   0.00000  Uiso   1.00
C296   C     0.15368   0.68066   0.86255   0.00000  Uiso   1.00
C297   C     0.38073   0.80468   0.06972   0.00000  Uiso   1.00
C298   C     0.39969   0.86658   0.11529   0.00000  Uiso   1.00
C299   C     0.40226   0.86128   0.18128   0.00000  Uiso   1.00
H300   H     0.33311   0.62838   0.04659   0.00000  Uiso   1.00
H301   H     0.45503   0.62253   0.02298   0.00000  Uiso   1.00
H302   H     0.18464   0.56026   0.95180   0.00000  Uiso   1.00
H303   H     0.35519   0.68418   0.17047   0.00000  Uiso   1.00
H304   H     0.59716   0.64465   0.98812   0.00000  Uiso   1.00
H305   H     0.02702   0.51335   0.83805   0.00000  Uiso   1.00
H306   H     0.38665   0.77465   0.29915   0.00000  Uiso   1.00
H307   H     0.38690   0.84889   0.97987   0.00000  Uiso   1.00
H308   H     0.51177   0.85514   0.95259   0.00000  Uiso   1.00
H309   H     0.24138   0.79287   0.88141   0.00000  Uiso   1.00
H310   H     0.41193   0.91678   0.10008   0.00000  Uiso   1.00
H311   H     0.64321   0.83345   0.93098   0.00000  Uiso   1.00
H312   H     0.07306   0.70214   0.78091   0.00000  Uiso   1.00
H313   H     0.43270   0.96345   0.24202   0.00000  Uiso   1.00
O314   O     0.70134   0.73917   0.94279   0.00000  Uiso   1.00
O315   O     0.95333   0.56691   0.74591   0.00000  Uiso   1.00
O316   O     0.42517   0.90974   0.35087   0.00000  Uiso   1.00
N317   N     0.59087   0.68823   0.97843   0.00000  Uiso   1.00
N318   N     0.05782   0.56547   0.83811   0.00000  Uiso   1.00
N319   N     0.39403   0.80976   0.26920   0.00000  Uiso   1.00
N320   N     0.61565   0.78982   0.94768   0.00000  Uiso   1.00
N321   N     0.08260   0.66706   0.80737   0.00000  Uiso   1.00
N322   N     0.41881   0.91135   0.23846   0.00000  Uiso   1.00
C323   C     0.33672   0.12524   0.85309   0.00000  Uiso   1.00
C324   C     0.29028   0.16883   0.85184   0.00000  Uiso   1.00
C325   C     0.31974   0.24062   0.84950   0.00000  Uiso   1.00
C326   C     0.26780   0.27073   0.84867   0.00000  Uiso   1.00
C327   C     0.20763   0.34454   0.84646   0.00000  Uiso   1.00
C328   C     0.28031   0.05952   0.79171   0.00000  Uiso   1.00
C329   C     0.30141   0.03941   0.73883   0.00000  Uiso   1.00
C330   C     0.24108   0.97749   0.68739   0.00000  Uiso   1.00
C331   C     0.16546   0.88158   0.59187   0.00000  Uiso   1.00
C332   C     0.34042   0.09651   0.91756   0.00000  Uiso   1.00
C333   C     0.41206   0.10748   0.97048   0.00000  Uiso   1.00
C334   C     0.40234   0.07670   0.02500   0.00000  Uiso   1.00
C335   C     0.42005   0.03821   0.12487   0.00000  Uiso   1.00
C336   C     0.19207   0.05105   0.85578   0.00000  Uiso   1.00
C337   C     0.21171   0.12853   0.85330   0.00000  Uiso   1.00
C338   C     0.15971   0.15854   0.85248   0.00000  Uiso   1.00
C339   C     0.18909   0.23036   0.85014   0.00000  Uiso   1.00
C340   C     0.20175   0.01923   0.79317   0.00000  Uiso   1.00
C341   C     0.14137   0.95733   0.74180   0.00000  Uiso   1.00
C342   C     0.16237   0.93713   0.68885   0.00000  Uiso   1.00
C343   C     0.26186   0.05622   0.91902   0.00000  Uiso   1.00
C344   C     0.25202   0.02541   0.97346   0.00000  Uiso   1.00
C345   C     0.32363   0.03633   0.02646   0.00000  Uiso   1.00
H346   H     0.39788   0.15660   0.85195   0.00000  Uiso   1.00
H347   H     0.38055   0.27178   0.84836   0.00000  Uiso   1.00
H348   H     0.36222   0.07059   0.73771   0.00000  Uiso   1.00
H349   H     0.47285   0.13866   0.96933   0.00000  Uiso   1.00
H350   H     0.32667   0.38170   0.84500   0.00000  Uiso   1.00
H351   H     0.28803   0.95748   0.61170   0.00000  Uiso   1.00
H352   H     0.52132   0.10101   0.10013   0.00000  Uiso   1.00
H353   H     0.13089   0.01968   0.85692   0.00000  Uiso   1.00
H354   H     0.09891   0.12735   0.85361   0.00000  Uiso   1.00
H355   H     0.08058   0.92616   0.74296   0.00000  Uiso   1.00
H356   H     0.19121   0.99423   0.97458   0.00000  Uiso   1.00
H357   H     0.09808   0.26447   0.84926   0.00000  Uiso   1.00
H358   H     0.05944   0.84024   0.61596   0.00000  Uiso   1.00
H359   H     0.29273   0.98378   0.10438   0.00000  Uiso   1.00
O360   O     0.19614   0.39638   0.84483   0.00000  Uiso   1.00
O361   O     0.14546   0.83981   0.53877   0.00000  Uiso   1.00
O362   O     0.45152   0.02812   0.17956   0.00000  Uiso   1.00
N363   N     0.27726   0.33934   0.84647   0.00000  Uiso   1.00
N364   N     0.24114   0.94272   0.62835   0.00000  Uiso   1.00
N365   N     0.45924   0.07690   0.08497   0.00000  Uiso   1.00
N366   N     0.15426   0.27626   0.84876   0.00000  Uiso   1.00
N367   N     0.11814   0.87964   0.63064   0.00000  Uiso   1.00
N368   N     0.33624   0.01382   0.08726   0.00000  Uiso   1.00
C369   C     0.08432   0.13835   0.19815   0.00000  Uiso   1.00
C370   C     0.09838   0.09904   0.25460   0.00000  Uiso   1.00
C371   C     0.10513   0.11948   0.32165   0.00000  Uiso   1.00
C372   C     0.11790   0.07635   0.36549   0.00000  Uiso   1.00
C373   C     0.13881   0.02463   0.45654   0.00000  Uiso   1.00
C374   C     0.00624   0.08275   0.13772   0.00000  Uiso   1.00
C375   C     0.93552   0.08951   0.10650   0.00000  Uiso   1.00
C376   C     0.87074   0.03267   0.05195   0.00000  Uiso   1.00
C377   C     0.74862   0.95569   0.96151   0.00000  Uiso   1.00
C378   C     0.15565   0.15585   0.17379   0.00000  Uiso   1.00
C379   C     0.21055   0.22406   0.17287   0.00000  Uiso   1.00
C380   C     0.27155   0.22876   0.14867   0.00000  Uiso   1.00
C381   C     0.38142   0.26527   0.11423   0.00000  Uiso   1.00
C382   C     0.09501   0.02541   0.15677   0.00000  Uiso   1.00
C383   C     0.10419   0.03770   0.23212   0.00000  Uiso   1.00
C384   C     0.11696   0.99453   0.27587   0.00000  Uiso   1.00
C385   C     0.12373   0.01491   0.34298   0.00000  Uiso   1.00
C386   C     0.01205   0.02142   0.11524   0.00000  Uiso   1.00
C387   C     0.94735   0.96456   0.06072   0.00000  Uiso   1.00
C388   C     0.87655   0.97122   0.02943   0.00000  Uiso   1.00
C389   C     0.16146   0.09451   0.15131   0.00000  Uiso   1.00
C390   C     0.22239   0.09911   0.12710   0.00000  Uiso   1.00
C391   C     0.27737   0.16731   0.12615   0.00000  Uiso   1.00
H392   H     0.07979   0.18610   0.21565   0.00000  Uiso   1.00
H393   H     0.10062   0.16695   0.33902   0.00000  Uiso   1.00
H394   H     0.93105   0.13698   0.12390   0.00000  Uiso   1.00
H395   H     0.20604   0.27151   0.19027   0.00000  Uiso   1.00
H396   H     0.12625   0.11865   0.46589   0.00000  Uiso   1.00
H397   H     0.76870   0.05548   0.01228   0.00000  Uiso   1.00
H398   H     0.34857   0.33916   0.15222   0.00000  Uiso   1.00
H399   H     0.09953   0.97766   0.13927   0.00000  Uiso   1.00
H400   H     0.12145   0.94707   0.25846   0.00000  Uiso   1.00
H401   H     0.95187   0.91710   0.04334   0.00000  Uiso   1.00
H402   H     0.22686   0.05163   0.10971   0.00000  Uiso   1.00
H403   H     0.14315   0.94019   0.40050   0.00000  Uiso   1.00
H404   H     0.78560   0.87702   0.94689   0.00000  Uiso   1.00
H405   H     0.36547   0.16069   0.08683   0.00000  Uiso   1.00
O406   O     0.14873   0.01304   0.51297   0.00000  Uiso   1.00
O407   O     0.67965   0.93018   0.91785   0.00000  Uiso   1.00
O408   O     0.44043   0.30235   0.10145   0.00000  Uiso   1.00
N409   N     0.12723   0.08085   0.43414   0.00000  Uiso   1.00
N410   N     0.79294   0.02179   0.01006   0.00000  Uiso   1.00
N411   N     0.33506   0.28700   0.14087   0.00000  Uiso   1.00
N412   N     0.13633   0.98483   0.39896   0.00000  Uiso   1.00
N413   N     0.80204   0.92576   0.97487   0.00000  Uiso   1.00
N414   N     0.34416   0.19097   0.10569   0.00000  Uiso   1.00
C415   C     0.88600   0.58256   0.34213   0.00000  Uiso   1.00
C416   C     0.96148   0.56993   0.36556   0.00000  Uiso   1.00
C417   C     0.01507   0.57886   0.33159   0.00000  Uiso   1.00
C418   C     0.08045   0.56454   0.36137   0.00000  Uiso   1.00
C419   C     0.19590   0.54831   0.38837   0.00000  Uiso   1.00
C420   C     0.81226   0.51202   0.33617   0.00000  Uiso   1.00
C421   C     0.74040   0.47228   0.27748   0.00000  Uiso   1.00
C422   C     0.68017   0.40923   0.28253   0.00000  Uiso   1.00
C423   C     0.56393   0.30312   0.26391   0.00000  Uiso   1.00
C424   C     0.89852   0.63741   0.40230   0.00000  Uiso   1.00
C425   C     0.89916   0.70309   0.39922   0.00000  Uiso   1.00
C426   C     0.91154   0.74561   0.45994   0.00000  Uiso   1.00
C427   C     0.92923   0.83419   0.54401   0.00000  Uiso   1.00
C428   C     0.90682   0.54126   0.45544   0.00000  Uiso   1.00
C429   C     0.97278   0.54749   0.42710   0.00000  Uiso   1.00
C430   C     0.03810   0.53317   0.45695   0.00000  Uiso   1.00
C431   C     0.09178   0.54208   0.42303   0.00000  Uiso   1.00
C432   C     0.82357   0.48959   0.39771   0.00000  Uiso   1.00
C433   C     0.76343   0.42659   0.40284   0.00000  Uiso   1.00
C434   C     0.69149   0.38675   0.34418   0.00000  Uiso   1.00
C435   C     0.90983   0.61498   0.46385   0.00000  Uiso   1.00
C436   C     0.92220   0.65740   0.52458   0.00000  Uiso   1.00
C437   C     0.92286   0.72313   0.52160   0.00000  Uiso   1.00
H438   H     0.87720   0.60002   0.29421   0.00000  Uiso   1.00
H439   H     0.00630   0.59621   0.28395   0.00000  Uiso   1.00
H440   H     0.73166   0.48965   0.22986   0.00000  Uiso   1.00
H441   H     0.89041   0.72043   0.35158   0.00000  Uiso   1.00
H442   H     0.15440   0.58207   0.29971   0.00000  Uiso   1.00
H443   H     0.57531   0.35740   0.18566   0.00000  Uiso   1.00
H444   H     0.91005   0.84405   0.44233   0.00000  Uiso   1.00
H445   H     0.91562   0.52379   0.50335   0.00000  Uiso   1.00
H446   H     0.04683   0.51581   0.50458   0.00000  Uiso   1.00
H447   H     0.77220   0.40925   0.45048   0.00000  Uiso   1.00
H448   H     0.93094   0.64003   0.57220   0.00000  Uiso   1.00
H449   H     0.18730   0.51681   0.47877   0.00000  Uiso   1.00
H450   H     0.60820   0.29214   0.36472   0.00000  Uiso   1.00
H451   H     0.94295   0.77878   0.62139   0.00000  Uiso   1.00
O452   O     0.25645   0.54554   0.38626   0.00000  Uiso   1.00
O453   O     0.49670   0.25079   0.23664   0.00000  Uiso   1.00
O454   O     0.93589   0.88925   0.57338   0.00000  Uiso   1.00
N455   N     0.14414   0.56782   0.34169   0.00000  Uiso   1.00
N456   N     0.60273   0.35776   0.23506   0.00000  Uiso   1.00
N457   N     0.91567   0.81273   0.47502   0.00000  Uiso   1.00
N458   N     0.16185   0.53271   0.43805   0.00000  Uiso   1.00
N459   N     0.62043   0.32265   0.33141   0.00000  Uiso   1.00
N460   N     0.93337   0.77761   0.57137   0.00000  Uiso   1.00
C461   C     0.76104   0.30000   0.61186   0.00000  Uiso   1.00
C462   C     0.74172   0.28936   0.67641   0.00000  Uiso   1.00
C463   C     0.79977   0.30877   0.74311   0.00000  Uiso   1.00
C464   C     0.76958   0.29449   0.79513   0.00000  Uiso   1.00
C465   C     0.75255   0.28290   0.89753   0.00000  Uiso   1.00
C466   C     0.71342   0.22553   0.56177   0.00000  Uiso   1.00
C467   C     0.74768   0.19128   0.53207   0.00000  Uiso   1.00
C468   C     0.69367   0.12327   0.48758   0.00000  Uiso   1.00
C469   C     0.63269   0.01260   0.41195   0.00000  Uiso   1.00
C470   C     0.72048   0.34406   0.57942   0.00000  Uiso   1.00
C471   C     0.76067   0.40945   0.56453   0.00000  Uiso   1.00
C472   C     0.71260   0.44123   0.53488   0.00000  Uiso   1.00
C473   C     0.66258   0.51458   0.48665   0.00000  Uiso   1.00
C474   C     0.60419   0.24013   0.58563   0.00000  Uiso   1.00
C475   C     0.65653   0.25684   0.66216   0.00000  Uiso   1.00
C476   C     0.62624   0.24253   0.71410   0.00000  Uiso   1.00
C477   C     0.68424   0.26192   0.78086   0.00000  Uiso   1.00
C478   C     0.62823   0.19301   0.54752   0.00000  Uiso   1.00
C479   C     0.57415   0.12504   0.50305   0.00000  Uiso   1.00
C480   C     0.60832   0.09069   0.47330   0.00000  Uiso   1.00
C481   C     0.63529   0.31154   0.56517   0.00000  Uiso   1.00
C482   C     0.58714   0.34322   0.53552   0.00000  Uiso   1.00
C483   C     0.62725   0.40865   0.52060   0.00000  Uiso   1.00
H484   H     0.82736   0.32531   0.62295   0.00000  Uiso   1.00
H485   H     0.86570   0.33393   0.75412   0.00000  Uiso   1.00
H486   H     0.81361   0.21646   0.54310   0.00000  Uiso   1.00
H487   H     0.82660   0.43460   0.57557   0.00000  Uiso   1.00
H488   H     0.87063   0.32913   0.89326   0.00000  Uiso   1.00
H489   H     0.76080   0.08144   0.44831   0.00000  Uiso   1.00
H490   H     0.78819   0.54143   0.51676   0.00000  Uiso   1.00
H491   H     0.53786   0.21481   0.57454   0.00000  Uiso   1.00
H492   H     0.56031   0.21737   0.70305   0.00000  Uiso   1.00
H493   H     0.50823   0.09990   0.49204   0.00000  Uiso   1.00
H494   H     0.52122   0.31804   0.52450   0.00000  Uiso   1.00
H495   H     0.62276   0.23452   0.85181   0.00000  Uiso   1.00
H496   H     0.51293   0.98683   0.40686   0.00000  Uiso   1.00
H497   H     0.54032   0.44682   0.47531   0.00000  Uiso   1.00
O498   O     0.76668   0.28548   0.95795   0.00000  Uiso   1.00
O499   O     0.62259   0.96053   0.37418   0.00000  Uiso   1.00
O500   O     0.65853   0.56403   0.46399   0.00000  Uiso   1.00
N501   N     0.80921   0.30652   0.86587   0.00000  Uiso   1.00
N502   N     0.70653   0.07495   0.44987   0.00000  Uiso   1.00
N503   N     0.73214   0.50499   0.51385   0.00000  Uiso   1.00
N504   N     0.67584   0.25561   0.84357   0.00000  Uiso   1.00
N505   N     0.57316   0.02404   0.42757   0.00000  Uiso   1.00
N506   N     0.59876   0.45408   0.49155   0.00000  Uiso   1.00
C507   C     0.58463   0.67747   0.68743   0.00000  Uiso   1.00
C508   C     0.61682   0.73889   0.65357   0.00000  Uiso   1.00
C509   C     0.62478   0.80711   0.67171   0.00000  Uiso   1.00
C510   C     0.65545   0.85570   0.63446   0.00000  Uiso   1.00
C511   C     0.70206   0.95395   0.58998   0.00000  Uiso   1.00
C512   C     0.51198   0.61399   0.62936   0.00000  Uiso   1.00
C513   C     0.43181   0.57720   0.62715   0.00000  Uiso   1.00
C514   C     0.37423   0.52065   0.56951   0.00000  Uiso   1.00
C515   C     0.25811   0.42496   0.48747   0.00000  Uiso   1.00
C516   C     0.65268   0.65552   0.71192   0.00000  Uiso   1.00
C517   C     0.69081   0.65364   0.77913   0.00000  Uiso   1.00
C518   C     0.75168   0.63204   0.79100   0.00000  Uiso   1.00
C519   C     0.85401   0.60084   0.83715   0.00000  Uiso   1.00
C520   C     0.62492   0.64244   0.58900   0.00000  Uiso   1.00
C521   C     0.63870   0.71986   0.60011   0.00000  Uiso   1.00
C522   C     0.66936   0.76836   0.56281   0.00000  Uiso   1.00
C523   C     0.67737   0.83664   0.58090   0.00000  Uiso   1.00
C524   C     0.53386   0.59496   0.57589   0.00000  Uiso   1.00
C525   C     0.47639   0.53845   0.51825   0.00000  Uiso   1.00
C526   C     0.39615   0.50159   0.51595   0.00000  Uiso   1.00
C527   C     0.67457   0.63650   0.65846   0.00000  Uiso   1.00
C528   C     0.73538   0.61489   0.67023   0.00000  Uiso   1.00
C529   C     0.77360   0.61297   0.73744   0.00000  Uiso   1.00
H530   H     0.56759   0.69228   0.72906   0.00000  Uiso   1.00
H531   H     0.60783   0.82181   0.71309   0.00000  Uiso   1.00
H532   H     0.41490   0.59193   0.66853   0.00000  Uiso   1.00
H533   H     0.67386   0.66836   0.82049   0.00000  Uiso   1.00
H534   H     0.66208   0.95703   0.67179   0.00000  Uiso   1.00
H535   H     0.25527   0.47230   0.57785   0.00000  Uiso   1.00
H536   H     0.80133   0.63347   0.89828   0.00000  Uiso   1.00
H537   H     0.64195   0.62762   0.54738   0.00000  Uiso   1.00
H538   H     0.68629   0.75362   0.52144   0.00000  Uiso   1.00
H539   H     0.49335   0.52374   0.47688   0.00000  Uiso   1.00
H540   H     0.75230   0.60017   0.62884   0.00000  Uiso   1.00
H541   H     0.72575   0.90168   0.51624   0.00000  Uiso   1.00
H542   H     0.31894   0.41695   0.42230   0.00000  Uiso   1.00
H543   H     0.86500   0.57811   0.74273   0.00000  Uiso   1.00
O544   O     0.72171   0.01339   0.58022   0.00000  Uiso   1.00
O545   O     0.18800   0.37744   0.45698   0.00000  Uiso   1.00
O546   O     0.90442   0.58889   0.87738   0.00000  Uiso   1.00
N547   N     0.67100   0.92671   0.63875   0.00000  Uiso   1.00
N548   N     0.29065   0.47353   0.55092   0.00000  Uiso   1.00
N549   N     0.80115   0.62419   0.85049   0.00000  Uiso   1.00
N550   N     0.70526   0.89693   0.55505   0.00000  Uiso   1.00
N551   N     0.32491   0.44375   0.46722   0.00000  Uiso   1.00
N552   N     0.83542   0.59441   0.76679   0.00000  Uiso   1.00
