data_job_01564
_audit_creation_date              2018-12-19
_audit_creation_method            'Materials Studio'
_symmetry_space_group_name_H-M    'P1'
_symmetry_Int_Tables_number       1
_symmetry_cell_setting            triclinic
loop_
_symmetry_equiv_pos_as_xyz
  x,y,z
_cell_length_a                    26.1520
_cell_length_b                    19.9030
_cell_length_c                    23.8132
_cell_angle_alpha                 90.0000
_cell_angle_beta                  153.5056
_cell_angle_gamma                 90.0000
loop_
_atom_site_label
_atom_site_type_symbol
_atom_site_fract_x
_atom_site_fract_y
_atom_site_fract_z
_atom_site_U_iso_or_equiv
_atom_site_adp_type
_atom_site_occupancy
C1     C     0.45079   0.79504   0.13606   0.00000  Uiso   1.00
C2     C     0.49985   0.73421   0.15366   0.00000  Uiso   1.00
C3     C     0.50792   0.66961   0.18317   0.00000  Uiso   1.00
C4     C     0.55546   0.62092   0.19524   0.00000  Uiso   1.00
C5     C     0.62590   0.52412   0.22518   0.00000  Uiso   1.00
C6     C     0.54508   0.84810   0.22834   0.00000  Uiso   1.00
C7     C     0.59116   0.87927   0.32063   0.00000  Uiso   1.00
C8     C     0.67676   0.92647   0.39555   0.00000  Uiso   1.00
C9     C     0.81735   0.00653   0.54138   0.00000  Uiso   1.00
C10    C     0.35548   0.82228   0.00494   0.00000  Uiso   1.00
C11    C     0.24215   0.83175   0.90940   0.00000  Uiso   1.00
C12    C     0.16813   0.85722   0.79626   0.00000  Uiso   1.00
C13    C     0.01435   0.89718   0.59523   0.00000  Uiso   1.00
C14    C     0.52086   0.82344   0.10503   0.00000  Uiso   1.00
C15    C     0.53791   0.74964   0.13680   0.00000  Uiso   1.00
C16    C     0.58545   0.70103   0.14883   0.00000  Uiso   1.00
C17    C     0.59359   0.63637   0.17835   0.00000  Uiso   1.00
C18    C     0.58314   0.86353   0.21148   0.00000  Uiso   1.00
C19    C     0.66868   0.91070   0.28629   0.00000  Uiso   1.00
C20    C     0.71489   0.94192   0.37867   0.00000  Uiso   1.00
C21    C     0.39354   0.83770   0.98808   0.00000  Uiso   1.00
C22    C     0.31968   0.86317   0.87507   0.00000  Uiso   1.00
C23    C     0.20626   0.87267   0.77937   0.00000  Uiso   1.00
H24    H     0.42117   0.78303   0.14919   0.00000  Uiso   1.00
H25    H     0.47847   0.65769   0.19622   0.00000  Uiso   1.00
H26    H     0.56168   0.86733   0.33364   0.00000  Uiso   1.00
H27    H     0.21273   0.81981   0.92248   0.00000  Uiso   1.00
H28    H     0.55882   0.52553   0.24096   0.00000  Uiso   1.00
H29    H     0.73426   0.96758   0.53070   0.00000  Uiso   1.00
H30    H     0.99842   0.86738   0.66370   0.00000  Uiso   1.00
H31    H     0.55049   0.83546   0.09190   0.00000  Uiso   1.00
H32    H     0.61489   0.71298   0.13578   0.00000  Uiso   1.00
H33    H     0.69811   0.92262   0.27321   0.00000  Uiso   1.00
H34    H     0.34916   0.87510   0.86205   0.00000  Uiso   1.00
H35    H     0.66955   0.57041   0.19191   0.00000  Uiso   1.00
H36    H     0.84499   0.01246   0.48165   0.00000  Uiso   1.00
H37    H     0.10915   0.91226   0.61465   0.00000  Uiso   1.00
O38    O     0.65425   0.46646   0.24637   0.00000  Uiso   1.00
O39    O     0.88440   0.04643   0.62648   0.00000  Uiso   1.00
O40    O     0.91901   0.91495   0.48900   0.00000  Uiso   1.00
N41    N     0.57603   0.55290   0.22337   0.00000  Uiso   1.00
N42    N     0.74006   0.96618   0.49428   0.00000  Uiso   1.00
N43    N     0.05212   0.87251   0.68371   0.00000  Uiso   1.00
N44    N     0.63561   0.57705   0.19698   0.00000  Uiso   1.00
N45    N     0.79964   0.99033   0.46788   0.00000  Uiso   1.00
N46    N     0.11170   0.89666   0.65732   0.00000  Uiso   1.00
C47    C     0.52575   0.22020   0.20375   0.00000  Uiso   1.00
C48    C     0.47674   0.27335   0.11620   0.00000  Uiso   1.00
C49    C     0.46542   0.34125   0.11713   0.00000  Uiso   1.00
C50    C     0.41854   0.38165   0.02944   0.00000  Uiso   1.00
C51    C     0.34761   0.46822   0.90647   0.00000  Uiso   1.00
C52    C     0.43314   0.16659   0.11860   0.00000  Uiso   1.00
C53    C     0.38518   0.14471   0.12156   0.00000  Uiso   1.00
C54    C     0.30160   0.09522   0.03589   0.00000  Uiso   1.00
C55    C     0.16304   0.01601   0.91671   0.00000  Uiso   1.00
C56    C     0.62409   0.18708   0.26858   0.00000  Uiso   1.00
C57    C     0.73667   0.18242   0.39764   0.00000  Uiso   1.00
C58    C     0.81386   0.15017   0.43825   0.00000  Uiso   1.00
C59    C     0.97178   0.10278   0.55192   0.00000  Uiso   1.00
C60    C     0.46262   0.17121   0.04636   0.00000  Uiso   1.00
C61    C     0.44245   0.24674   0.03071   0.00000  Uiso   1.00
C62    C     0.39558   0.28705   0.94300   0.00000  Uiso   1.00
C63    C     0.38420   0.35499   0.94381   0.00000  Uiso   1.00
C64    C     0.39885   0.13998   0.03311   0.00000  Uiso   1.00
C65    C     0.31534   0.09051   0.94743   0.00000  Uiso   1.00
C66    C     0.26725   0.06856   0.95025   0.00000  Uiso   1.00
C67    C     0.58980   0.16047   0.18309   0.00000  Uiso   1.00
C68    C     0.66683   0.12822   0.22351   0.00000  Uiso   1.00
C69    C     0.77951   0.12351   0.35261   0.00000  Uiso   1.00
H70    H     0.55244   0.24091   0.27030   0.00000  Uiso   1.00
H71    H     0.49196   0.36182   0.18330   0.00000  Uiso   1.00
H72    H     0.41174   0.16530   0.18773   0.00000  Uiso   1.00
H73    H     0.76318   0.20301   0.46377   0.00000  Uiso   1.00
H74    H     0.40975   0.48413   0.04911   0.00000  Uiso   1.00
H75    H     0.24062   0.06975   0.05849   0.00000  Uiso   1.00
H76    H     0.98170   0.14926   0.64057   0.00000  Uiso   1.00
H77    H     0.43592   0.15049   0.97980   0.00000  Uiso   1.00
H78    H     0.36905   0.26644   0.87686   0.00000  Uiso   1.00
H79    H     0.28883   0.06992   0.88129   0.00000  Uiso   1.00
H80    H     0.64026   0.10763   0.15733   0.00000  Uiso   1.00
H81    H     0.30999   0.40672   0.80039   0.00000  Uiso   1.00
H82    H     0.14086   0.99234   0.80977   0.00000  Uiso   1.00
H83    H     0.88194   0.07185   0.39185   0.00000  Uiso   1.00
O84    O     0.31795   0.52333   0.86224   0.00000  Uiso   1.00
O85    O     0.09608   0.97967   0.87457   0.00000  Uiso   1.00
O86    O     0.06835   0.08399   0.63824   0.00000  Uiso   1.00
N87    N     0.39547   0.45000   0.00472   0.00000  Uiso   1.00
N88    N     0.23733   0.06259   0.01347   0.00000  Uiso   1.00
N89    N     0.93017   0.13691   0.55767   0.00000  Uiso   1.00
N90    N     0.34179   0.40835   0.87089   0.00000  Uiso   1.00
N91    N     0.18365   0.02093   0.87964   0.00000  Uiso   1.00
N92    N     0.87649   0.09525   0.42383   0.00000  Uiso   1.00
C93    C     0.95079   0.29504   0.13606   0.00000  Uiso   1.00
C94    C     0.99985   0.23421   0.15366   0.00000  Uiso   1.00
C95    C     0.00792   0.16961   0.18317   0.00000  Uiso   1.00
C96    C     0.05546   0.12092   0.19524   0.00000  Uiso   1.00
C97    C     0.12590   0.02412   0.22518   0.00000  Uiso   1.00
C98    C     0.04508   0.34810   0.22834   0.00000  Uiso   1.00
C99    C     0.09116   0.37927   0.32063   0.00000  Uiso   1.00
C100   C     0.17676   0.42647   0.39555   0.00000  Uiso   1.00
C101   C     0.31735   0.50653   0.54138   0.00000  Uiso   1.00
C102   C     0.85548   0.32228   0.00494   0.00000  Uiso   1.00
C103   C     0.74215   0.33175   0.90940   0.00000  Uiso   1.00
C104   C     0.66813   0.35722   0.79626   0.00000  Uiso   1.00
C105   C     0.51435   0.39718   0.59523   0.00000  Uiso   1.00
C106   C     0.02086   0.32344   0.10503   0.00000  Uiso   1.00
C107   C     0.03791   0.24964   0.13680   0.00000  Uiso   1.00
C108   C     0.08545   0.20103   0.14883   0.00000  Uiso   1.00
C109   C     0.09359   0.13637   0.17835   0.00000  Uiso   1.00
C110   C     0.08314   0.36353   0.21148   0.00000  Uiso   1.00
C111   C     0.16868   0.41070   0.28629   0.00000  Uiso   1.00
C112   C     0.21489   0.44192   0.37867   0.00000  Uiso   1.00
C113   C     0.89354   0.33770   0.98808   0.00000  Uiso   1.00
C114   C     0.81968   0.36317   0.87507   0.00000  Uiso   1.00
C115   C     0.70626   0.37267   0.77937   0.00000  Uiso   1.00
H116   H     0.92117   0.28303   0.14919   0.00000  Uiso   1.00
H117   H     0.97847   0.15769   0.19622   0.00000  Uiso   1.00
H118   H     0.06168   0.36733   0.33364   0.00000  Uiso   1.00
H119   H     0.71273   0.31981   0.92248   0.00000  Uiso   1.00
H120   H     0.05882   0.02553   0.24096   0.00000  Uiso   1.00
H121   H     0.23426   0.46758   0.53070   0.00000  Uiso   1.00
H122   H     0.49842   0.36738   0.66370   0.00000  Uiso   1.00
H123   H     0.05049   0.33546   0.09190   0.00000  Uiso   1.00
H124   H     0.11489   0.21298   0.13578   0.00000  Uiso   1.00
H125   H     0.19811   0.42262   0.27321   0.00000  Uiso   1.00
H126   H     0.84916   0.37510   0.86205   0.00000  Uiso   1.00
H127   H     0.16955   0.07041   0.19191   0.00000  Uiso   1.00
H128   H     0.34499   0.51246   0.48165   0.00000  Uiso   1.00
H129   H     0.60915   0.41226   0.61465   0.00000  Uiso   1.00
O130   O     0.15425   0.96646   0.24637   0.00000  Uiso   1.00
O131   O     0.38440   0.54643   0.62648   0.00000  Uiso   1.00
O132   O     0.41901   0.41495   0.48900   0.00000  Uiso   1.00
N133   N     0.07603   0.05290   0.22337   0.00000  Uiso   1.00
N134   N     0.24006   0.46618   0.49428   0.00000  Uiso   1.00
N135   N     0.55212   0.37251   0.68371   0.00000  Uiso   1.00
N136   N     0.13561   0.07705   0.19698   0.00000  Uiso   1.00
N137   N     0.29964   0.49033   0.46788   0.00000  Uiso   1.00
N138   N     0.61170   0.39666   0.65732   0.00000  Uiso   1.00
C139   C     0.02575   0.72020   0.20375   0.00000  Uiso   1.00
C140   C     0.97674   0.77335   0.11620   0.00000  Uiso   1.00
C141   C     0.96542   0.84125   0.11713   0.00000  Uiso   1.00
C142   C     0.91854   0.88165   0.02944   0.00000  Uiso   1.00
C143   C     0.84761   0.96822   0.90647   0.00000  Uiso   1.00
C144   C     0.93314   0.66659   0.11860   0.00000  Uiso   1.00
C145   C     0.88518   0.64471   0.12156   0.00000  Uiso   1.00
C146   C     0.80160   0.59522   0.03589   0.00000  Uiso   1.00
C147   C     0.66304   0.51601   0.91671   0.00000  Uiso   1.00
C148   C     0.12409   0.68708   0.26858   0.00000  Uiso   1.00
C149   C     0.23667   0.68242   0.39764   0.00000  Uiso   1.00
C150   C     0.31386   0.65017   0.43825   0.00000  Uiso   1.00
C151   C     0.47178   0.60278   0.55192   0.00000  Uiso   1.00
C152   C     0.96262   0.67121   0.04636   0.00000  Uiso   1.00
C153   C     0.94245   0.74674   0.03071   0.00000  Uiso   1.00
C154   C     0.89558   0.78705   0.94300   0.00000  Uiso   1.00
C155   C     0.88420   0.85499   0.94381   0.00000  Uiso   1.00
C156   C     0.89885   0.63998   0.03311   0.00000  Uiso   1.00
C157   C     0.81534   0.59051   0.94743   0.00000  Uiso   1.00
C158   C     0.76725   0.56856   0.95025   0.00000  Uiso   1.00
C159   C     0.08980   0.66047   0.18309   0.00000  Uiso   1.00
C160   C     0.16683   0.62822   0.22351   0.00000  Uiso   1.00
C161   C     0.27951   0.62351   0.35261   0.00000  Uiso   1.00
H162   H     0.05244   0.74091   0.27030   0.00000  Uiso   1.00
H163   H     0.99196   0.86182   0.18330   0.00000  Uiso   1.00
H164   H     0.91174   0.66530   0.18773   0.00000  Uiso   1.00
H165   H     0.26318   0.70301   0.46377   0.00000  Uiso   1.00
H166   H     0.90975   0.98413   0.04911   0.00000  Uiso   1.00
H167   H     0.74062   0.56975   0.05849   0.00000  Uiso   1.00
H168   H     0.48170   0.64926   0.64057   0.00000  Uiso   1.00
H169   H     0.93592   0.65049   0.97980   0.00000  Uiso   1.00
H170   H     0.86905   0.76644   0.87686   0.00000  Uiso   1.00
H171   H     0.78883   0.56992   0.88129   0.00000  Uiso   1.00
H172   H     0.14026   0.60763   0.15733   0.00000  Uiso   1.00
H173   H     0.80999   0.90672   0.80039   0.00000  Uiso   1.00
H174   H     0.64086   0.49234   0.80977   0.00000  Uiso   1.00
H175   H     0.38194   0.57185   0.39185   0.00000  Uiso   1.00
O176   O     0.81795   0.02333   0.86224   0.00000  Uiso   1.00
O177   O     0.59608   0.47967   0.87457   0.00000  Uiso   1.00
O178   O     0.56835   0.58399   0.63824   0.00000  Uiso   1.00
N179   N     0.89547   0.95000   0.00472   0.00000  Uiso   1.00
N180   N     0.73733   0.56259   0.01347   0.00000  Uiso   1.00
N181   N     0.43017   0.63691   0.55767   0.00000  Uiso   1.00
N182   N     0.84179   0.90835   0.87089   0.00000  Uiso   1.00
N183   N     0.68365   0.52093   0.87964   0.00000  Uiso   1.00
N184   N     0.37649   0.59525   0.42383   0.00000  Uiso   1.00
C185   C     0.54921   0.79504   0.86394   0.00000  Uiso   1.00
C186   C     0.50015   0.73421   0.84634   0.00000  Uiso   1.00
C187   C     0.49208   0.66961   0.81683   0.00000  Uiso   1.00
C188   C     0.44454   0.62092   0.80476   0.00000  Uiso   1.00
C189   C     0.37410   0.52412   0.77482   0.00000  Uiso   1.00
C190   C     0.45492   0.84810   0.77166   0.00000  Uiso   1.00
C191   C     0.40884   0.87927   0.67937   0.00000  Uiso   1.00
C192   C     0.32324   0.92647   0.60445   0.00000  Uiso   1.00
C193   C     0.18265   0.00653   0.45862   0.00000  Uiso   1.00
C194   C     0.64452   0.82228   0.99506   0.00000  Uiso   1.00
C195   C     0.75785   0.83175   0.09060   0.00000  Uiso   1.00
C196   C     0.83187   0.85722   0.20374   0.00000  Uiso   1.00
C197   C     0.98565   0.89718   0.40477   0.00000  Uiso   1.00
C198   C     0.47914   0.82344   0.89497   0.00000  Uiso   1.00
C199   C     0.46209   0.74964   0.86320   0.00000  Uiso   1.00
C200   C     0.41455   0.70103   0.85117   0.00000  Uiso   1.00
C201   C     0.40641   0.63637   0.82165   0.00000  Uiso   1.00
C202   C     0.41686   0.86353   0.78852   0.00000  Uiso   1.00
C203   C     0.33132   0.91070   0.71371   0.00000  Uiso   1.00
C204   C     0.28511   0.94192   0.62133   0.00000  Uiso   1.00
C205   C     0.60646   0.83770   0.01192   0.00000  Uiso   1.00
C206   C     0.68032   0.86317   0.12493   0.00000  Uiso   1.00
C207   C     0.79374   0.87267   0.22063   0.00000  Uiso   1.00
H208   H     0.57883   0.78303   0.85081   0.00000  Uiso   1.00
H209   H     0.52153   0.65769   0.80378   0.00000  Uiso   1.00
H210   H     0.43832   0.86733   0.66636   0.00000  Uiso   1.00
H211   H     0.78727   0.81981   0.07752   0.00000  Uiso   1.00
H212   H     0.44118   0.52553   0.75904   0.00000  Uiso   1.00
H213   H     0.26574   0.96758   0.46930   0.00000  Uiso   1.00
H214   H     0.00158   0.86738   0.33630   0.00000  Uiso   1.00
H215   H     0.44951   0.83546   0.90810   0.00000  Uiso   1.00
H216   H     0.38511   0.71298   0.86422   0.00000  Uiso   1.00
H217   H     0.30189   0.92262   0.72679   0.00000  Uiso   1.00
H218   H     0.65084   0.87510   0.13795   0.00000  Uiso   1.00
H219   H     0.33045   0.57041   0.80809   0.00000  Uiso   1.00
H220   H     0.15501   0.01246   0.51835   0.00000  Uiso   1.00
H221   H     0.89085   0.91226   0.38535   0.00000  Uiso   1.00
O222   O     0.34575   0.46646   0.75363   0.00000  Uiso   1.00
O223   O     0.11560   0.04643   0.37352   0.00000  Uiso   1.00
O224   O     0.08099   0.91495   0.51100   0.00000  Uiso   1.00
N225   N     0.42397   0.55290   0.77663   0.00000  Uiso   1.00
N226   N     0.25994   0.96618   0.50572   0.00000  Uiso   1.00
N227   N     0.94788   0.87251   0.31629   0.00000  Uiso   1.00
N228   N     0.36439   0.57705   0.80302   0.00000  Uiso   1.00
N229   N     0.20036   0.99033   0.53212   0.00000  Uiso   1.00
N230   N     0.88830   0.89666   0.34268   0.00000  Uiso   1.00
C231   C     0.47425   0.22020   0.79625   0.00000  Uiso   1.00
C232   C     0.52326   0.27335   0.88380   0.00000  Uiso   1.00
C233   C     0.53458   0.34125   0.88287   0.00000  Uiso   1.00
C234   C     0.58146   0.38165   0.97056   0.00000  Uiso   1.00
C235   C     0.65239   0.46822   0.09353   0.00000  Uiso   1.00
C236   C     0.56686   0.16659   0.88140   0.00000  Uiso   1.00
C237   C     0.61482   0.14471   0.87844   0.00000  Uiso   1.00
C238   C     0.69840   0.09522   0.96411   0.00000  Uiso   1.00
C239   C     0.83696   0.01601   0.08329   0.00000  Uiso   1.00
C240   C     0.37591   0.18708   0.73142   0.00000  Uiso   1.00
C241   C     0.26333   0.18242   0.60236   0.00000  Uiso   1.00
C242   C     0.18614   0.15017   0.56175   0.00000  Uiso   1.00
C243   C     0.02822   0.10278   0.44808   0.00000  Uiso   1.00
C244   C     0.53738   0.17121   0.95364   0.00000  Uiso   1.00
C245   C     0.55755   0.24674   0.96929   0.00000  Uiso   1.00
C246   C     0.60442   0.28705   0.05700   0.00000  Uiso   1.00
C247   C     0.61580   0.35499   0.05619   0.00000  Uiso   1.00
C248   C     0.60115   0.13998   0.96689   0.00000  Uiso   1.00
C249   C     0.68466   0.09051   0.05257   0.00000  Uiso   1.00
C250   C     0.73275   0.06856   0.04975   0.00000  Uiso   1.00
C251   C     0.41020   0.16047   0.81691   0.00000  Uiso   1.00
C252   C     0.33317   0.12822   0.77649   0.00000  Uiso   1.00
C253   C     0.22049   0.12351   0.64739   0.00000  Uiso   1.00
H254   H     0.44756   0.24091   0.72970   0.00000  Uiso   1.00
H255   H     0.50804   0.36182   0.81670   0.00000  Uiso   1.00
H256   H     0.58826   0.16530   0.81227   0.00000  Uiso   1.00
H257   H     0.23682   0.20301   0.53623   0.00000  Uiso   1.00
H258   H     0.59025   0.48413   0.95089   0.00000  Uiso   1.00
H259   H     0.75938   0.06975   0.94151   0.00000  Uiso   1.00
H260   H     0.01830   0.14926   0.35943   0.00000  Uiso   1.00
H261   H     0.56408   0.15049   0.02020   0.00000  Uiso   1.00
H262   H     0.63095   0.26644   0.12314   0.00000  Uiso   1.00
H263   H     0.71117   0.06992   0.11871   0.00000  Uiso   1.00
H264   H     0.35974   0.10763   0.84267   0.00000  Uiso   1.00
H265   H     0.69001   0.40672   0.19961   0.00000  Uiso   1.00
H266   H     0.85914   0.99234   0.19023   0.00000  Uiso   1.00
H267   H     0.11806   0.07185   0.60815   0.00000  Uiso   1.00
O268   O     0.68205   0.52333   0.13776   0.00000  Uiso   1.00
O269   O     0.90392   0.97967   0.12543   0.00000  Uiso   1.00
O270   O     0.93165   0.08399   0.36176   0.00000  Uiso   1.00
N271   N     0.60453   0.45000   0.99528   0.00000  Uiso   1.00
N272   N     0.76267   0.06259   0.98653   0.00000  Uiso   1.00
N273   N     0.06983   0.13691   0.44233   0.00000  Uiso   1.00
N274   N     0.65821   0.40835   0.12911   0.00000  Uiso   1.00
N275   N     0.81635   0.02093   0.12036   0.00000  Uiso   1.00
N276   N     0.12351   0.09525   0.57617   0.00000  Uiso   1.00
C277   C     0.04921   0.29504   0.86394   0.00000  Uiso   1.00
C278   C     0.00015   0.23421   0.84634   0.00000  Uiso   1.00
C279   C     0.99208   0.16961   0.81683   0.00000  Uiso   1.00
C280   C     0.94454   0.12092   0.80476   0.00000  Uiso   1.00
C281   C     0.87410   0.02412   0.77482   0.00000  Uiso   1.00
C282   C     0.95492   0.34810   0.77166   0.00000  Uiso   1.00
C283   C     0.90884   0.37927   0.67937   0.00000  Uiso   1.00
C284   C     0.82324   0.42647   0.60445   0.00000  Uiso   1.00
C285   C     0.68265   0.50653   0.45862   0.00000  Uiso   1.00
C286   C     0.14452   0.32228   0.99506   0.00000  Uiso   1.00
C287   C     0.25785   0.33175   0.09060   0.00000  Uiso   1.00
C288   C     0.33187   0.35722   0.20374   0.00000  Uiso   1.00
C289   C     0.48565   0.39718   0.40477   0.00000  Uiso   1.00
C290   C     0.97914   0.32344   0.89497   0.00000  Uiso   1.00
C291   C     0.96209   0.24964   0.86320   0.00000  Uiso   1.00
C292   C     0.91455   0.20103   0.85117   0.00000  Uiso   1.00
C293   C     0.90641   0.13637   0.82165   0.00000  Uiso   1.00
C294   C     0.91686   0.36353   0.78852   0.00000  Uiso   1.00
C295   C     0.83132   0.41070   0.71371   0.00000  Uiso   1.00
C296   C     0.78511   0.44192   0.62133   0.00000  Uiso   1.00
C297   C     0.10646   0.33770   0.01192   0.00000  Uiso   1.00
C298   C     0.18032   0.36317   0.12493   0.00000  Uiso   1.00
C299   C     0.29374   0.37267   0.22063   0.00000  Uiso   1.00
H300   H     0.07883   0.28303   0.85081   0.00000  Uiso   1.00
H301   H     0.02153   0.15769   0.80378   0.00000  Uiso   1.00
H302   H     0.93832   0.36733   0.66636   0.00000  Uiso   1.00
H303   H     0.28727   0.31981   0.07752   0.00000  Uiso   1.00
H304   H     0.94118   0.02553   0.75904   0.00000  Uiso   1.00
H305   H     0.76574   0.46758   0.46930   0.00000  Uiso   1.00
H306   H     0.50158   0.36738   0.33630   0.00000  Uiso   1.00
H307   H     0.94951   0.33546   0.90810   0.00000  Uiso   1.00
H308   H     0.88511   0.21298   0.86422   0.00000  Uiso   1.00
H309   H     0.80189   0.42262   0.72679   0.00000  Uiso   1.00
H310   H     0.15084   0.37510   0.13795   0.00000  Uiso   1.00
H311   H     0.83045   0.07041   0.80809   0.00000  Uiso   1.00
H312   H     0.65501   0.51246   0.51835   0.00000  Uiso   1.00
H313   H     0.39085   0.41226   0.38535   0.00000  Uiso   1.00
O314   O     0.84575   0.96646   0.75363   0.00000  Uiso   1.00
O315   O     0.61560   0.54643   0.37352   0.00000  Uiso   1.00
O316   O     0.58099   0.41495   0.51100   0.00000  Uiso   1.00
N317   N     0.92397   0.05290   0.77663   0.00000  Uiso   1.00
N318   N     0.75994   0.46618   0.50572   0.00000  Uiso   1.00
N319   N     0.44788   0.37251   0.31629   0.00000  Uiso   1.00
N320   N     0.86439   0.07705   0.80302   0.00000  Uiso   1.00
N321   N     0.70036   0.49033   0.53212   0.00000  Uiso   1.00
N322   N     0.38830   0.39666   0.34268   0.00000  Uiso   1.00
C323   C     0.97425   0.72020   0.79625   0.00000  Uiso   1.00
C324   C     0.02326   0.77335   0.88380   0.00000  Uiso   1.00
C325   C     0.03458   0.84125   0.88287   0.00000  Uiso   1.00
C326   C     0.08146   0.88165   0.97056   0.00000  Uiso   1.00
C327   C     0.15239   0.96822   0.09353   0.00000  Uiso   1.00
C328   C     0.06686   0.66659   0.88140   0.00000  Uiso   1.00
C329   C     0.11482   0.64471   0.87844   0.00000  Uiso   1.00
C330   C     0.19840   0.59522   0.96411   0.00000  Uiso   1.00
C331   C     0.33696   0.51601   0.08329   0.00000  Uiso   1.00
C332   C     0.87591   0.68708   0.73142   0.00000  Uiso   1.00
C333   C     0.76333   0.68242   0.60236   0.00000  Uiso   1.00
C334   C     0.68614   0.65017   0.56175   0.00000  Uiso   1.00
C335   C     0.52822   0.60278   0.44808   0.00000  Uiso   1.00
C336   C     0.03738   0.67121   0.95364   0.00000  Uiso   1.00
C337   C     0.05755   0.74674   0.96929   0.00000  Uiso   1.00
C338   C     0.10442   0.78705   0.05700   0.00000  Uiso   1.00
C339   C     0.11580   0.85499   0.05619   0.00000  Uiso   1.00
C340   C     0.10115   0.63998   0.96689   0.00000  Uiso   1.00
C341   C     0.18466   0.59051   0.05257   0.00000  Uiso   1.00
C342   C     0.23275   0.56856   0.04975   0.00000  Uiso   1.00
C343   C     0.91020   0.66047   0.81691   0.00000  Uiso   1.00
C344   C     0.83317   0.62822   0.77649   0.00000  Uiso   1.00
C345   C     0.72049   0.62351   0.64739   0.00000  Uiso   1.00
H346   H     0.94756   0.74091   0.72970   0.00000  Uiso   1.00
H347   H     0.00804   0.86182   0.81670   0.00000  Uiso   1.00
H348   H     0.08826   0.66530   0.81227   0.00000  Uiso   1.00
H349   H     0.73682   0.70301   0.53623   0.00000  Uiso   1.00
H350   H     0.09025   0.98413   0.95089   0.00000  Uiso   1.00
H351   H     0.25938   0.56975   0.94151   0.00000  Uiso   1.00
H352   H     0.51830   0.64926   0.35943   0.00000  Uiso   1.00
H353   H     0.06408   0.65049   0.02020   0.00000  Uiso   1.00
H354   H     0.13095   0.76644   0.12314   0.00000  Uiso   1.00
H355   H     0.21117   0.56992   0.11871   0.00000  Uiso   1.00
H356   H     0.85974   0.60763   0.84267   0.00000  Uiso   1.00
H357   H     0.19001   0.90672   0.19961   0.00000  Uiso   1.00
H358   H     0.35914   0.49234   0.19023   0.00000  Uiso   1.00
H359   H     0.61806   0.57185   0.60815   0.00000  Uiso   1.00
O360   O     0.18205   0.02333   0.13776   0.00000  Uiso   1.00
O361   O     0.40392   0.47967   0.12543   0.00000  Uiso   1.00
O362   O     0.43165   0.58399   0.36176   0.00000  Uiso   1.00
N363   N     0.10453   0.95000   0.99528   0.00000  Uiso   1.00
N364   N     0.26267   0.56259   0.98653   0.00000  Uiso   1.00
N365   N     0.56983   0.63691   0.44233   0.00000  Uiso   1.00
N366   N     0.15821   0.90835   0.12911   0.00000  Uiso   1.00
N367   N     0.31635   0.52093   0.12036   0.00000  Uiso   1.00
N368   N     0.62351   0.59525   0.57617   0.00000  Uiso   1.00
