data_job_04748
_audit_creation_date              2018-12-19
_audit_creation_method            'Materials Studio'
_symmetry_space_group_name_H-M    'P1'
_symmetry_Int_Tables_number       1
_symmetry_cell_setting            triclinic
loop_
_symmetry_equiv_pos_as_xyz
  x,y,z
_cell_length_a                    11.7156
_cell_length_b                    7.2028
_cell_length_c                    30.7799
_cell_angle_alpha                 90.0000
_cell_angle_beta                  62.8852
_cell_angle_gamma                 90.0000
loop_
_atom_site_label
_atom_site_type_symbol
_atom_site_fract_x
_atom_site_fract_y
_atom_site_fract_z
_atom_site_U_iso_or_equiv
_atom_site_adp_type
_atom_site_occupancy
C1     C     0.91409   0.04038   0.13057   0.00000  Uiso   1.00
C2     C     0.05611   0.00608   0.11459   0.00000  Uiso   1.00
C3     C     0.15360   0.13562   0.09289   0.00000  Uiso   1.00
C4     C     0.27728   0.07704   0.08098   0.00000  Uiso   1.00
C5     C     0.49399   0.05138   0.05470   0.00000  Uiso   1.00
C6     C     0.87338   0.89484   0.10440   0.00000  Uiso   1.00
C7     C     0.81721   0.93087   0.07415   0.00000  Uiso   1.00
C8     C     0.78705   0.77864   0.05366   0.00000  Uiso   1.00
C9     C     0.71998   0.58028   0.01159   0.00000  Uiso   1.00
C10    C     0.84449   0.99106   0.18466   0.00000  Uiso   1.00
C11    C     0.76400   0.10796   0.22188   0.00000  Uiso   1.00
C12    C     0.70949   0.03672   0.26897   0.00000  Uiso   1.00
C13    C     0.59756   0.98776   0.35152   0.00000  Uiso   1.00
C14    C     0.96036   0.70599   0.14800   0.00000  Uiso   1.00
C15    C     0.08124   0.82445   0.12406   0.00000  Uiso   1.00
C16    C     0.20480   0.76566   0.11217   0.00000  Uiso   1.00
C17    C     0.30246   0.89510   0.09046   0.00000  Uiso   1.00
C18    C     0.89851   0.71322   0.11387   0.00000  Uiso   1.00
C19    C     0.86841   0.56091   0.09342   0.00000  Uiso   1.00
C20    C     0.81223   0.59669   0.06314   0.00000  Uiso   1.00
C21    C     0.86962   0.80944   0.19413   0.00000  Uiso   1.00
C22    C     0.81521   0.73800   0.24116   0.00000  Uiso   1.00
C23    C     0.73467   0.85477   0.27845   0.00000  Uiso   1.00
H24    H     0.89451   0.18178   0.12320   0.00000  Uiso   1.00
H25    H     0.13411   0.27616   0.08557   0.00000  Uiso   1.00
H26    H     0.79777   0.07143   0.06683   0.00000  Uiso   1.00
H27    H     0.74458   0.24850   0.21455   0.00000  Uiso   1.00
H28    H     0.41084   0.30068   0.04801   0.00000  Uiso   1.00
H29    H     0.70160   0.86900   0.00851   0.00000  Uiso   1.00
H30    H     0.58943   0.24239   0.31999   0.00000  Uiso   1.00
H31    H     0.97993   0.56458   0.15537   0.00000  Uiso   1.00
H32    H     0.22422   0.62510   0.11950   0.00000  Uiso   1.00
H33    H     0.88787   0.42038   0.10076   0.00000  Uiso   1.00
H34    H     0.83468   0.59744   0.24847   0.00000  Uiso   1.00
H35    H     0.48398   0.77226   0.07554   0.00000  Uiso   1.00
H36    H     0.77473   0.34058   0.03604   0.00000  Uiso   1.00
H37    H     0.66256   0.71396   0.34753   0.00000  Uiso   1.00
O38    O     0.60658   0.08740   0.03759   0.00000  Uiso   1.00
O39    O     0.67605   0.52105   0.98577   0.00000  Uiso   1.00
O40    O     0.52890   0.01093   0.39443   0.00000  Uiso   1.00
N41    N     0.39453   0.16802   0.05942   0.00000  Uiso   1.00
N42    N     0.73144   0.76443   0.02248   0.00000  Uiso   1.00
N43    N     0.62655   0.11350   0.31369   0.00000  Uiso   1.00
N44    N     0.43388   0.88368   0.07424   0.00000  Uiso   1.00
N45    N     0.77080   0.48009   0.03730   0.00000  Uiso   1.00
N46    N     0.66590   0.82916   0.32851   0.00000  Uiso   1.00
C47    C     0.08591   0.54038   0.36943   0.00000  Uiso   1.00
C48    C     0.94389   0.50608   0.38541   0.00000  Uiso   1.00
C49    C     0.84640   0.63562   0.40711   0.00000  Uiso   1.00
C50    C     0.72272   0.57704   0.41902   0.00000  Uiso   1.00
C51    C     0.50601   0.55138   0.44530   0.00000  Uiso   1.00
C52    C     0.12662   0.39484   0.39560   0.00000  Uiso   1.00
C53    C     0.18279   0.43087   0.42585   0.00000  Uiso   1.00
C54    C     0.21295   0.27864   0.44634   0.00000  Uiso   1.00
C55    C     0.28002   0.08028   0.48841   0.00000  Uiso   1.00
C56    C     0.15551   0.49106   0.31534   0.00000  Uiso   1.00
C57    C     0.23600   0.60796   0.27812   0.00000  Uiso   1.00
C58    C     0.29051   0.53672   0.23103   0.00000  Uiso   1.00
C59    C     0.40244   0.48776   0.14848   0.00000  Uiso   1.00
C60    C     0.03964   0.20599   0.35200   0.00000  Uiso   1.00
C61    C     0.91876   0.32445   0.37594   0.00000  Uiso   1.00
C62    C     0.79520   0.26566   0.38783   0.00000  Uiso   1.00
C63    C     0.69754   0.39510   0.40954   0.00000  Uiso   1.00
C64    C     0.10149   0.21322   0.38613   0.00000  Uiso   1.00
C65    C     0.13159   0.06091   0.40658   0.00000  Uiso   1.00
C66    C     0.18777   0.09669   0.43686   0.00000  Uiso   1.00
C67    C     0.13038   0.30944   0.30587   0.00000  Uiso   1.00
C68    C     0.18479   0.23800   0.25884   0.00000  Uiso   1.00
C69    C     0.26533   0.35477   0.22155   0.00000  Uiso   1.00
H70    H     0.10549   0.68178   0.37680   0.00000  Uiso   1.00
H71    H     0.86589   0.77616   0.41443   0.00000  Uiso   1.00
H72    H     0.20223   0.57143   0.43317   0.00000  Uiso   1.00
H73    H     0.25542   0.74850   0.28545   0.00000  Uiso   1.00
H74    H     0.58916   0.80068   0.45199   0.00000  Uiso   1.00
H75    H     0.29840   0.36900   0.49149   0.00000  Uiso   1.00
H76    H     0.41057   0.74239   0.18001   0.00000  Uiso   1.00
H77    H     0.02007   0.06458   0.34463   0.00000  Uiso   1.00
H78    H     0.77578   0.12510   0.38050   0.00000  Uiso   1.00
H79    H     0.11213   0.92038   0.39924   0.00000  Uiso   1.00
H80    H     0.16532   0.09744   0.25153   0.00000  Uiso   1.00
H81    H     0.51602   0.27226   0.42446   0.00000  Uiso   1.00
H82    H     0.22527   0.84058   0.46396   0.00000  Uiso   1.00
H83    H     0.33744   0.21396   0.15247   0.00000  Uiso   1.00
O84    O     0.39342   0.58740   0.46241   0.00000  Uiso   1.00
O85    O     0.32395   0.02105   0.51423   0.00000  Uiso   1.00
O86    O     0.47110   0.51093   0.10557   0.00000  Uiso   1.00
N87    N     0.60547   0.66802   0.44058   0.00000  Uiso   1.00
N88    N     0.26856   0.26443   0.47752   0.00000  Uiso   1.00
N89    N     0.37345   0.61350   0.18631   0.00000  Uiso   1.00
N90    N     0.56612   0.38368   0.42576   0.00000  Uiso   1.00
N91    N     0.22920   0.98009   0.46270   0.00000  Uiso   1.00
N92    N     0.33410   0.32916   0.17149   0.00000  Uiso   1.00
C93    C     0.08591   0.95962   0.86943   0.00000  Uiso   1.00
C94    C     0.94389   0.99392   0.88541   0.00000  Uiso   1.00
C95    C     0.84640   0.86438   0.90711   0.00000  Uiso   1.00
C96    C     0.72272   0.92296   0.91902   0.00000  Uiso   1.00
C97    C     0.50601   0.94862   0.94530   0.00000  Uiso   1.00
C98    C     0.12662   0.10516   0.89560   0.00000  Uiso   1.00
C99    C     0.18279   0.06913   0.92585   0.00000  Uiso   1.00
C100   C     0.21295   0.22136   0.94634   0.00000  Uiso   1.00
C101   C     0.28002   0.41972   0.98841   0.00000  Uiso   1.00
C102   C     0.15551   0.00894   0.81534   0.00000  Uiso   1.00
C103   C     0.23600   0.89204   0.77812   0.00000  Uiso   1.00
C104   C     0.29051   0.96328   0.73103   0.00000  Uiso   1.00
C105   C     0.40244   0.01224   0.64848   0.00000  Uiso   1.00
C106   C     0.03964   0.29401   0.85200   0.00000  Uiso   1.00
C107   C     0.91876   0.17555   0.87594   0.00000  Uiso   1.00
C108   C     0.79520   0.23434   0.88783   0.00000  Uiso   1.00
C109   C     0.69754   0.10490   0.90954   0.00000  Uiso   1.00
C110   C     0.10149   0.28678   0.88613   0.00000  Uiso   1.00
C111   C     0.13159   0.43909   0.90658   0.00000  Uiso   1.00
C112   C     0.18777   0.40331   0.93686   0.00000  Uiso   1.00
C113   C     0.13038   0.19056   0.80587   0.00000  Uiso   1.00
C114   C     0.18479   0.26200   0.75884   0.00000  Uiso   1.00
C115   C     0.26533   0.14523   0.72155   0.00000  Uiso   1.00
H116   H     0.10549   0.81822   0.87680   0.00000  Uiso   1.00
H117   H     0.86589   0.72384   0.91443   0.00000  Uiso   1.00
H118   H     0.20223   0.92857   0.93317   0.00000  Uiso   1.00
H119   H     0.25542   0.75150   0.78545   0.00000  Uiso   1.00
H120   H     0.58916   0.69932   0.95199   0.00000  Uiso   1.00
H121   H     0.29840   0.13100   0.99149   0.00000  Uiso   1.00
H122   H     0.41057   0.75761   0.68001   0.00000  Uiso   1.00
H123   H     0.02007   0.43542   0.84463   0.00000  Uiso   1.00
H124   H     0.77578   0.37490   0.88050   0.00000  Uiso   1.00
H125   H     0.11213   0.57962   0.89924   0.00000  Uiso   1.00
H126   H     0.16532   0.40256   0.75153   0.00000  Uiso   1.00
H127   H     0.51602   0.22774   0.92446   0.00000  Uiso   1.00
H128   H     0.22527   0.65942   0.96396   0.00000  Uiso   1.00
H129   H     0.33744   0.28604   0.65247   0.00000  Uiso   1.00
O130   O     0.39342   0.91260   0.96241   0.00000  Uiso   1.00
O131   O     0.32395   0.47895   0.01423   0.00000  Uiso   1.00
O132   O     0.47110   0.98907   0.60557   0.00000  Uiso   1.00
N133   N     0.60547   0.83198   0.94058   0.00000  Uiso   1.00
N134   N     0.26856   0.23557   0.97752   0.00000  Uiso   1.00
N135   N     0.37345   0.88650   0.68631   0.00000  Uiso   1.00
N136   N     0.56612   0.11632   0.92576   0.00000  Uiso   1.00
N137   N     0.22920   0.51991   0.96270   0.00000  Uiso   1.00
N138   N     0.33410   0.17084   0.67149   0.00000  Uiso   1.00
C139   C     0.91409   0.45962   0.63057   0.00000  Uiso   1.00
C140   C     0.05611   0.49392   0.61459   0.00000  Uiso   1.00
C141   C     0.15360   0.36438   0.59289   0.00000  Uiso   1.00
C142   C     0.27728   0.42296   0.58098   0.00000  Uiso   1.00
C143   C     0.49399   0.44862   0.55470   0.00000  Uiso   1.00
C144   C     0.87338   0.60516   0.60440   0.00000  Uiso   1.00
C145   C     0.81721   0.56913   0.57415   0.00000  Uiso   1.00
C146   C     0.78705   0.72136   0.55366   0.00000  Uiso   1.00
C147   C     0.71998   0.91972   0.51159   0.00000  Uiso   1.00
C148   C     0.84449   0.50894   0.68466   0.00000  Uiso   1.00
C149   C     0.76400   0.39204   0.72188   0.00000  Uiso   1.00
C150   C     0.70949   0.46328   0.76897   0.00000  Uiso   1.00
C151   C     0.59756   0.51224   0.85152   0.00000  Uiso   1.00
C152   C     0.96036   0.79401   0.64800   0.00000  Uiso   1.00
C153   C     0.08124   0.67555   0.62406   0.00000  Uiso   1.00
C154   C     0.20480   0.73434   0.61217   0.00000  Uiso   1.00
C155   C     0.30246   0.60490   0.59046   0.00000  Uiso   1.00
C156   C     0.89851   0.78678   0.61387   0.00000  Uiso   1.00
C157   C     0.86841   0.93909   0.59342   0.00000  Uiso   1.00
C158   C     0.81223   0.90331   0.56314   0.00000  Uiso   1.00
C159   C     0.86962   0.69056   0.69413   0.00000  Uiso   1.00
C160   C     0.81521   0.76200   0.74116   0.00000  Uiso   1.00
C161   C     0.73467   0.64523   0.77845   0.00000  Uiso   1.00
H162   H     0.89451   0.31822   0.62320   0.00000  Uiso   1.00
H163   H     0.13411   0.22384   0.58557   0.00000  Uiso   1.00
H164   H     0.79777   0.42857   0.56683   0.00000  Uiso   1.00
H165   H     0.74458   0.25150   0.71455   0.00000  Uiso   1.00
H166   H     0.41084   0.19932   0.54801   0.00000  Uiso   1.00
H167   H     0.70160   0.63100   0.50851   0.00000  Uiso   1.00
H168   H     0.58943   0.25761   0.81999   0.00000  Uiso   1.00
H169   H     0.97993   0.93542   0.65537   0.00000  Uiso   1.00
H170   H     0.22422   0.87490   0.61950   0.00000  Uiso   1.00
H171   H     0.88787   0.07962   0.60076   0.00000  Uiso   1.00
H172   H     0.83468   0.90256   0.74847   0.00000  Uiso   1.00
H173   H     0.48398   0.72774   0.57554   0.00000  Uiso   1.00
H174   H     0.77473   0.15942   0.53604   0.00000  Uiso   1.00
H175   H     0.66256   0.78604   0.84753   0.00000  Uiso   1.00
O176   O     0.60658   0.41260   0.53759   0.00000  Uiso   1.00
O177   O     0.67605   0.97895   0.48577   0.00000  Uiso   1.00
O178   O     0.52890   0.48907   0.89443   0.00000  Uiso   1.00
N179   N     0.39453   0.33198   0.55942   0.00000  Uiso   1.00
N180   N     0.73144   0.73557   0.52248   0.00000  Uiso   1.00
N181   N     0.62655   0.38650   0.81369   0.00000  Uiso   1.00
N182   N     0.43388   0.61632   0.57424   0.00000  Uiso   1.00
N183   N     0.77080   0.01991   0.53730   0.00000  Uiso   1.00
N184   N     0.66590   0.67084   0.82851   0.00000  Uiso   1.00
