data_job_02478
_audit_creation_date              2018-12-19
_audit_creation_method            'Materials Studio'
_symmetry_space_group_name_H-M    'P1'
_symmetry_Int_Tables_number       1
_symmetry_cell_setting            triclinic
loop_
_symmetry_equiv_pos_as_xyz
  x,y,z
_cell_length_a                    39.7320
_cell_length_b                    8.7585
_cell_length_c                    17.1422
_cell_angle_alpha                 90.0000
_cell_angle_beta                  90.0000
_cell_angle_gamma                 90.0000
loop_
_atom_site_label
_atom_site_type_symbol
_atom_site_fract_x
_atom_site_fract_y
_atom_site_fract_z
_atom_site_U_iso_or_equiv
_atom_site_adp_type
_atom_site_occupancy
C1     C     0.09856   0.01189   0.23536   0.00000  Uiso   1.00
C2     C     0.09270   0.02154   0.14758   0.00000  Uiso   1.00
C3     C     0.09639   0.90237   0.09492   0.00000  Uiso   1.00
C4     C     0.08986   0.93436   0.01705   0.00000  Uiso   1.00
C5     C     0.08229   0.92716   0.88444   0.00000  Uiso   1.00
C6     C     0.12465   0.13400   0.25441   0.00000  Uiso   1.00
C7     C     0.15520   0.10937   0.29159   0.00000  Uiso   1.00
C8     C     0.17555   0.23605   0.30367   0.00000  Uiso   1.00
C9     C     0.21757   0.40345   0.33697   0.00000  Uiso   1.00
C10    C     0.06586   0.06431   0.27348   0.00000  Uiso   1.00
C11    C     0.04699   0.98110   0.32672   0.00000  Uiso   1.00
C12    C     0.01785   0.04911   0.35486   0.00000  Uiso   1.00
C13    C     0.96859   0.10831   0.41778   0.00000  Uiso   1.00
C14    C     0.08038   0.28064   0.19071   0.00000  Uiso   1.00
C15    C     0.08283   0.16752   0.12333   0.00000  Uiso   1.00
C16    C     0.07628   0.19970   0.04552   0.00000  Uiso   1.00
C17    C     0.07997   0.08060   0.99276   0.00000  Uiso   1.00
C18    C     0.11478   0.27997   0.23017   0.00000  Uiso   1.00
C19    C     0.13509   0.40671   0.24220   0.00000  Uiso   1.00
C20    C     0.16567   0.38228   0.27938   0.00000  Uiso   1.00
C21    C     0.05599   0.21028   0.24924   0.00000  Uiso   1.00
C22    C     0.02688   0.27844   0.27732   0.00000  Uiso   1.00
C23    C     0.00796   0.19535   0.33057   0.00000  Uiso   1.00
H24    H     0.10624   0.89825   0.25424   0.00000  Uiso   1.00
H25    H     0.10404   0.78942   0.11371   0.00000  Uiso   1.00
H26    H     0.16283   0.99640   0.31036   0.00000  Uiso   1.00
H27    H     0.05464   0.86815   0.34547   0.00000  Uiso   1.00
H28    H     0.09725   0.73315   0.94720   0.00000  Uiso   1.00
H29    H     0.22122   0.16958   0.36188   0.00000  Uiso   1.00
H30    H     0.99306   0.89914   0.43592   0.00000  Uiso   1.00
H31    H     0.07269   0.39429   0.17184   0.00000  Uiso   1.00
H32    H     0.06865   0.31268   0.02678   0.00000  Uiso   1.00
H33    H     0.12744   0.51966   0.22343   0.00000  Uiso   1.00
H34    H     0.01924   0.39140   0.25854   0.00000  Uiso   1.00
H35    H     0.06853   0.15785   0.87665   0.00000  Uiso   1.00
H36    H     0.19249   0.59428   0.29133   0.00000  Uiso   1.00
H37    H     0.96434   0.32383   0.36536   0.00000  Uiso   1.00
O38    O     0.08084   0.88287   0.81799   0.00000  Uiso   1.00
O39    O     0.24348   0.45546   0.36203   0.00000  Uiso   1.00
O40    O     0.94415   0.10063   0.45917   0.00000  Uiso   1.00
N41    N     0.09104   0.84429   0.95051   0.00000  Uiso   1.00
N42    N     0.20694   0.25233   0.33819   0.00000  Uiso   1.00
N43    N     0.99364   0.99950   0.40743   0.00000  Uiso   1.00
N44    N     0.07558   0.07282   0.91254   0.00000  Uiso   1.00
N45    N     0.19149   0.48086   0.30023   0.00000  Uiso   1.00
N46    N     0.97819   0.22803   0.36946   0.00000  Uiso   1.00
C47    C     0.40144   0.48811   0.23536   0.00000  Uiso   1.00
C48    C     0.40730   0.47846   0.14758   0.00000  Uiso   1.00
C49    C     0.40361   0.59763   0.09492   0.00000  Uiso   1.00
C50    C     0.41014   0.56564   0.01705   0.00000  Uiso   1.00
C51    C     0.41771   0.57284   0.88444   0.00000  Uiso   1.00
C52    C     0.37535   0.36600   0.25441   0.00000  Uiso   1.00
C53    C     0.34480   0.39063   0.29159   0.00000  Uiso   1.00
C54    C     0.32445   0.26395   0.30367   0.00000  Uiso   1.00
C55    C     0.28243   0.09655   0.33697   0.00000  Uiso   1.00
C56    C     0.43414   0.43569   0.27348   0.00000  Uiso   1.00
C57    C     0.45301   0.51890   0.32672   0.00000  Uiso   1.00
C58    C     0.48215   0.45089   0.35486   0.00000  Uiso   1.00
C59    C     0.53141   0.39169   0.41778   0.00000  Uiso   1.00
C60    C     0.41962   0.21936   0.19071   0.00000  Uiso   1.00
C61    C     0.41717   0.33248   0.12333   0.00000  Uiso   1.00
C62    C     0.42372   0.30030   0.04552   0.00000  Uiso   1.00
C63    C     0.42003   0.41940   0.99276   0.00000  Uiso   1.00
C64    C     0.38522   0.22003   0.23017   0.00000  Uiso   1.00
C65    C     0.36491   0.09329   0.24220   0.00000  Uiso   1.00
C66    C     0.33433   0.11772   0.27938   0.00000  Uiso   1.00
C67    C     0.44401   0.28972   0.24924   0.00000  Uiso   1.00
C68    C     0.47312   0.22156   0.27732   0.00000  Uiso   1.00
C69    C     0.49204   0.30465   0.33057   0.00000  Uiso   1.00
H70    H     0.39376   0.60175   0.25424   0.00000  Uiso   1.00
H71    H     0.39596   0.71058   0.11371   0.00000  Uiso   1.00
H72    H     0.33717   0.50360   0.31036   0.00000  Uiso   1.00
H73    H     0.44536   0.63185   0.34547   0.00000  Uiso   1.00
H74    H     0.40275   0.76685   0.94720   0.00000  Uiso   1.00
H75    H     0.27878   0.33042   0.36188   0.00000  Uiso   1.00
H76    H     0.50694   0.60086   0.43592   0.00000  Uiso   1.00
H77    H     0.42731   0.10571   0.17184   0.00000  Uiso   1.00
H78    H     0.43135   0.18732   0.02678   0.00000  Uiso   1.00
H79    H     0.37256   0.98034   0.22343   0.00000  Uiso   1.00
H80    H     0.48076   0.10860   0.25854   0.00000  Uiso   1.00
H81    H     0.43147   0.34215   0.87665   0.00000  Uiso   1.00
H82    H     0.30751   0.90572   0.29133   0.00000  Uiso   1.00
H83    H     0.53566   0.17617   0.36536   0.00000  Uiso   1.00
O84    O     0.41916   0.61713   0.81799   0.00000  Uiso   1.00
O85    O     0.25652   0.04454   0.36203   0.00000  Uiso   1.00
O86    O     0.55585   0.39937   0.45917   0.00000  Uiso   1.00
N87    N     0.40896   0.65571   0.95051   0.00000  Uiso   1.00
N88    N     0.29306   0.24767   0.33819   0.00000  Uiso   1.00
N89    N     0.50636   0.50050   0.40743   0.00000  Uiso   1.00
N90    N     0.42442   0.42718   0.91254   0.00000  Uiso   1.00
N91    N     0.30851   0.01914   0.30023   0.00000  Uiso   1.00
N92    N     0.52181   0.27197   0.36946   0.00000  Uiso   1.00
C93    C     0.90144   0.51189   0.26464   0.00000  Uiso   1.00
C94    C     0.90730   0.52154   0.35242   0.00000  Uiso   1.00
C95    C     0.90361   0.40237   0.40508   0.00000  Uiso   1.00
C96    C     0.91014   0.43436   0.48295   0.00000  Uiso   1.00
C97    C     0.91771   0.42716   0.61556   0.00000  Uiso   1.00
C98    C     0.87535   0.63400   0.24559   0.00000  Uiso   1.00
C99    C     0.84480   0.60937   0.20841   0.00000  Uiso   1.00
C100   C     0.82445   0.73605   0.19633   0.00000  Uiso   1.00
C101   C     0.78243   0.90345   0.16303   0.00000  Uiso   1.00
C102   C     0.93414   0.56431   0.22652   0.00000  Uiso   1.00
C103   C     0.95301   0.48110   0.17328   0.00000  Uiso   1.00
C104   C     0.98215   0.54911   0.14514   0.00000  Uiso   1.00
C105   C     0.03141   0.60831   0.08222   0.00000  Uiso   1.00
C106   C     0.91962   0.78064   0.30929   0.00000  Uiso   1.00
C107   C     0.91717   0.66752   0.37667   0.00000  Uiso   1.00
C108   C     0.92372   0.69970   0.45448   0.00000  Uiso   1.00
C109   C     0.92003   0.58060   0.50724   0.00000  Uiso   1.00
C110   C     0.88522   0.77997   0.26983   0.00000  Uiso   1.00
C111   C     0.86491   0.90671   0.25780   0.00000  Uiso   1.00
C112   C     0.83433   0.88228   0.22062   0.00000  Uiso   1.00
C113   C     0.94401   0.71028   0.25076   0.00000  Uiso   1.00
C114   C     0.97312   0.77844   0.22268   0.00000  Uiso   1.00
C115   C     0.99204   0.69535   0.16943   0.00000  Uiso   1.00
H116   H     0.89376   0.39825   0.24576   0.00000  Uiso   1.00
H117   H     0.89596   0.28942   0.38629   0.00000  Uiso   1.00
H118   H     0.83717   0.49640   0.18964   0.00000  Uiso   1.00
H119   H     0.94536   0.36815   0.15453   0.00000  Uiso   1.00
H120   H     0.90275   0.23315   0.55280   0.00000  Uiso   1.00
H121   H     0.77878   0.66958   0.13812   0.00000  Uiso   1.00
H122   H     0.00694   0.39914   0.06408   0.00000  Uiso   1.00
H123   H     0.92731   0.89429   0.32816   0.00000  Uiso   1.00
H124   H     0.93135   0.81268   0.47322   0.00000  Uiso   1.00
H125   H     0.87256   0.01966   0.27657   0.00000  Uiso   1.00
H126   H     0.98076   0.89140   0.24146   0.00000  Uiso   1.00
H127   H     0.93147   0.65785   0.62335   0.00000  Uiso   1.00
H128   H     0.80751   0.09428   0.20867   0.00000  Uiso   1.00
H129   H     0.03566   0.82383   0.13464   0.00000  Uiso   1.00
O130   O     0.91916   0.38287   0.68201   0.00000  Uiso   1.00
O131   O     0.75652   0.95546   0.13797   0.00000  Uiso   1.00
O132   O     0.05585   0.60063   0.04083   0.00000  Uiso   1.00
N133   N     0.90896   0.34429   0.54949   0.00000  Uiso   1.00
N134   N     0.79306   0.75233   0.16181   0.00000  Uiso   1.00
N135   N     0.00636   0.49950   0.09257   0.00000  Uiso   1.00
N136   N     0.92442   0.57282   0.58746   0.00000  Uiso   1.00
N137   N     0.80851   0.98086   0.19977   0.00000  Uiso   1.00
N138   N     0.02181   0.72803   0.13054   0.00000  Uiso   1.00
C139   C     0.59856   0.98811   0.26464   0.00000  Uiso   1.00
C140   C     0.59270   0.97846   0.35242   0.00000  Uiso   1.00
C141   C     0.59639   0.09763   0.40508   0.00000  Uiso   1.00
C142   C     0.58986   0.06564   0.48295   0.00000  Uiso   1.00
C143   C     0.58229   0.07284   0.61556   0.00000  Uiso   1.00
C144   C     0.62465   0.86600   0.24559   0.00000  Uiso   1.00
C145   C     0.65520   0.89063   0.20841   0.00000  Uiso   1.00
C146   C     0.67555   0.76395   0.19633   0.00000  Uiso   1.00
C147   C     0.71757   0.59655   0.16303   0.00000  Uiso   1.00
C148   C     0.56586   0.93569   0.22652   0.00000  Uiso   1.00
C149   C     0.54699   0.01890   0.17328   0.00000  Uiso   1.00
C150   C     0.51785   0.95089   0.14514   0.00000  Uiso   1.00
C151   C     0.46859   0.89169   0.08222   0.00000  Uiso   1.00
C152   C     0.58038   0.71936   0.30929   0.00000  Uiso   1.00
C153   C     0.58283   0.83248   0.37667   0.00000  Uiso   1.00
C154   C     0.57628   0.80030   0.45448   0.00000  Uiso   1.00
C155   C     0.57997   0.91940   0.50724   0.00000  Uiso   1.00
C156   C     0.61478   0.72003   0.26983   0.00000  Uiso   1.00
C157   C     0.63509   0.59329   0.25780   0.00000  Uiso   1.00
C158   C     0.66567   0.61772   0.22062   0.00000  Uiso   1.00
C159   C     0.55599   0.78972   0.25076   0.00000  Uiso   1.00
C160   C     0.52688   0.72156   0.22268   0.00000  Uiso   1.00
C161   C     0.50796   0.80465   0.16943   0.00000  Uiso   1.00
H162   H     0.60624   0.10175   0.24576   0.00000  Uiso   1.00
H163   H     0.60404   0.21058   0.38629   0.00000  Uiso   1.00
H164   H     0.66283   0.00360   0.18964   0.00000  Uiso   1.00
H165   H     0.55464   0.13185   0.15453   0.00000  Uiso   1.00
H166   H     0.59725   0.26685   0.55280   0.00000  Uiso   1.00
H167   H     0.72122   0.83042   0.13812   0.00000  Uiso   1.00
H168   H     0.49306   0.10086   0.06408   0.00000  Uiso   1.00
H169   H     0.57269   0.60571   0.32816   0.00000  Uiso   1.00
H170   H     0.56865   0.68732   0.47322   0.00000  Uiso   1.00
H171   H     0.62744   0.48034   0.27657   0.00000  Uiso   1.00
H172   H     0.51924   0.60860   0.24146   0.00000  Uiso   1.00
H173   H     0.56853   0.84215   0.62335   0.00000  Uiso   1.00
H174   H     0.69249   0.40572   0.20867   0.00000  Uiso   1.00
H175   H     0.46434   0.67617   0.13464   0.00000  Uiso   1.00
O176   O     0.58084   0.11713   0.68201   0.00000  Uiso   1.00
O177   O     0.74348   0.54454   0.13797   0.00000  Uiso   1.00
O178   O     0.44415   0.89937   0.04083   0.00000  Uiso   1.00
N179   N     0.59104   0.15571   0.54949   0.00000  Uiso   1.00
N180   N     0.70694   0.74767   0.16181   0.00000  Uiso   1.00
N181   N     0.49364   0.00050   0.09257   0.00000  Uiso   1.00
N182   N     0.57558   0.92718   0.58746   0.00000  Uiso   1.00
N183   N     0.69149   0.51914   0.19977   0.00000  Uiso   1.00
N184   N     0.47819   0.77197   0.13054   0.00000  Uiso   1.00
C185   C     0.90144   0.98811   0.76464   0.00000  Uiso   1.00
C186   C     0.90730   0.97846   0.85242   0.00000  Uiso   1.00
C187   C     0.90361   0.09763   0.90508   0.00000  Uiso   1.00
C188   C     0.91014   0.06564   0.98295   0.00000  Uiso   1.00
C189   C     0.91771   0.07284   0.11556   0.00000  Uiso   1.00
C190   C     0.87535   0.86600   0.74559   0.00000  Uiso   1.00
C191   C     0.84480   0.89063   0.70841   0.00000  Uiso   1.00
C192   C     0.82445   0.76395   0.69633   0.00000  Uiso   1.00
C193   C     0.78243   0.59655   0.66303   0.00000  Uiso   1.00
C194   C     0.93414   0.93569   0.72652   0.00000  Uiso   1.00
C195   C     0.95301   0.01890   0.67328   0.00000  Uiso   1.00
C196   C     0.98215   0.95089   0.64514   0.00000  Uiso   1.00
C197   C     0.03141   0.89169   0.58222   0.00000  Uiso   1.00
C198   C     0.91962   0.71936   0.80929   0.00000  Uiso   1.00
C199   C     0.91717   0.83248   0.87667   0.00000  Uiso   1.00
C200   C     0.92372   0.80030   0.95448   0.00000  Uiso   1.00
C201   C     0.92003   0.91940   0.00724   0.00000  Uiso   1.00
C202   C     0.88522   0.72003   0.76983   0.00000  Uiso   1.00
C203   C     0.86491   0.59329   0.75780   0.00000  Uiso   1.00
C204   C     0.83433   0.61772   0.72062   0.00000  Uiso   1.00
C205   C     0.94401   0.78972   0.75076   0.00000  Uiso   1.00
C206   C     0.97312   0.72156   0.72268   0.00000  Uiso   1.00
C207   C     0.99204   0.80465   0.66943   0.00000  Uiso   1.00
H208   H     0.89376   0.10175   0.74576   0.00000  Uiso   1.00
H209   H     0.89596   0.21058   0.88629   0.00000  Uiso   1.00
H210   H     0.83717   0.00360   0.68964   0.00000  Uiso   1.00
H211   H     0.94536   0.13185   0.65453   0.00000  Uiso   1.00
H212   H     0.90275   0.26685   0.05280   0.00000  Uiso   1.00
H213   H     0.77878   0.83042   0.63812   0.00000  Uiso   1.00
H214   H     0.00694   0.10086   0.56408   0.00000  Uiso   1.00
H215   H     0.92731   0.60571   0.82816   0.00000  Uiso   1.00
H216   H     0.93135   0.68732   0.97322   0.00000  Uiso   1.00
H217   H     0.87256   0.48034   0.77657   0.00000  Uiso   1.00
H218   H     0.98076   0.60860   0.74146   0.00000  Uiso   1.00
H219   H     0.93147   0.84215   0.12335   0.00000  Uiso   1.00
H220   H     0.80751   0.40572   0.70867   0.00000  Uiso   1.00
H221   H     0.03566   0.67617   0.63464   0.00000  Uiso   1.00
O222   O     0.91916   0.11713   0.18201   0.00000  Uiso   1.00
O223   O     0.75652   0.54454   0.63797   0.00000  Uiso   1.00
O224   O     0.05585   0.89937   0.54083   0.00000  Uiso   1.00
N225   N     0.90896   0.15571   0.04949   0.00000  Uiso   1.00
N226   N     0.79306   0.74767   0.66181   0.00000  Uiso   1.00
N227   N     0.00636   0.00050   0.59257   0.00000  Uiso   1.00
N228   N     0.92442   0.92718   0.08746   0.00000  Uiso   1.00
N229   N     0.80851   0.51914   0.69977   0.00000  Uiso   1.00
N230   N     0.02181   0.77197   0.63054   0.00000  Uiso   1.00
C231   C     0.59856   0.51189   0.76464   0.00000  Uiso   1.00
C232   C     0.59270   0.52154   0.85242   0.00000  Uiso   1.00
C233   C     0.59639   0.40237   0.90508   0.00000  Uiso   1.00
C234   C     0.58986   0.43436   0.98295   0.00000  Uiso   1.00
C235   C     0.58229   0.42716   0.11556   0.00000  Uiso   1.00
C236   C     0.62465   0.63400   0.74559   0.00000  Uiso   1.00
C237   C     0.65520   0.60937   0.70841   0.00000  Uiso   1.00
C238   C     0.67555   0.73605   0.69633   0.00000  Uiso   1.00
C239   C     0.71757   0.90345   0.66303   0.00000  Uiso   1.00
C240   C     0.56586   0.56431   0.72652   0.00000  Uiso   1.00
C241   C     0.54699   0.48110   0.67328   0.00000  Uiso   1.00
C242   C     0.51785   0.54911   0.64514   0.00000  Uiso   1.00
C243   C     0.46859   0.60831   0.58222   0.00000  Uiso   1.00
C244   C     0.58038   0.78064   0.80929   0.00000  Uiso   1.00
C245   C     0.58283   0.66752   0.87667   0.00000  Uiso   1.00
C246   C     0.57628   0.69970   0.95448   0.00000  Uiso   1.00
C247   C     0.57997   0.58060   0.00724   0.00000  Uiso   1.00
C248   C     0.61478   0.77997   0.76983   0.00000  Uiso   1.00
C249   C     0.63509   0.90671   0.75780   0.00000  Uiso   1.00
C250   C     0.66567   0.88228   0.72062   0.00000  Uiso   1.00
C251   C     0.55599   0.71028   0.75076   0.00000  Uiso   1.00
C252   C     0.52688   0.77844   0.72268   0.00000  Uiso   1.00
C253   C     0.50796   0.69535   0.66943   0.00000  Uiso   1.00
H254   H     0.60624   0.39825   0.74576   0.00000  Uiso   1.00
H255   H     0.60404   0.28942   0.88629   0.00000  Uiso   1.00
H256   H     0.66283   0.49640   0.68964   0.00000  Uiso   1.00
H257   H     0.55464   0.36815   0.65453   0.00000  Uiso   1.00
H258   H     0.59725   0.23315   0.05280   0.00000  Uiso   1.00
H259   H     0.72122   0.66958   0.63812   0.00000  Uiso   1.00
H260   H     0.49306   0.39914   0.56408   0.00000  Uiso   1.00
H261   H     0.57269   0.89429   0.82816   0.00000  Uiso   1.00
H262   H     0.56865   0.81268   0.97322   0.00000  Uiso   1.00
H263   H     0.62744   0.01966   0.77657   0.00000  Uiso   1.00
H264   H     0.51924   0.89140   0.74146   0.00000  Uiso   1.00
H265   H     0.56853   0.65785   0.12335   0.00000  Uiso   1.00
H266   H     0.69249   0.09428   0.70867   0.00000  Uiso   1.00
H267   H     0.46434   0.82383   0.63464   0.00000  Uiso   1.00
O268   O     0.58084   0.38287   0.18201   0.00000  Uiso   1.00
O269   O     0.74348   0.95546   0.63797   0.00000  Uiso   1.00
O270   O     0.44415   0.60063   0.54083   0.00000  Uiso   1.00
N271   N     0.59104   0.34429   0.04949   0.00000  Uiso   1.00
N272   N     0.70694   0.75233   0.66181   0.00000  Uiso   1.00
N273   N     0.49364   0.49950   0.59257   0.00000  Uiso   1.00
N274   N     0.57558   0.57282   0.08746   0.00000  Uiso   1.00
N275   N     0.69149   0.98086   0.69977   0.00000  Uiso   1.00
N276   N     0.47819   0.72803   0.63054   0.00000  Uiso   1.00
C277   C     0.09856   0.48811   0.73536   0.00000  Uiso   1.00
C278   C     0.09270   0.47846   0.64758   0.00000  Uiso   1.00
C279   C     0.09639   0.59763   0.59492   0.00000  Uiso   1.00
C280   C     0.08986   0.56564   0.51705   0.00000  Uiso   1.00
C281   C     0.08229   0.57284   0.38444   0.00000  Uiso   1.00
C282   C     0.12465   0.36600   0.75441   0.00000  Uiso   1.00
C283   C     0.15520   0.39063   0.79159   0.00000  Uiso   1.00
C284   C     0.17555   0.26395   0.80367   0.00000  Uiso   1.00
C285   C     0.21757   0.09655   0.83697   0.00000  Uiso   1.00
C286   C     0.06586   0.43569   0.77348   0.00000  Uiso   1.00
C287   C     0.04699   0.51890   0.82672   0.00000  Uiso   1.00
C288   C     0.01785   0.45089   0.85486   0.00000  Uiso   1.00
C289   C     0.96859   0.39169   0.91778   0.00000  Uiso   1.00
C290   C     0.08038   0.21936   0.69071   0.00000  Uiso   1.00
C291   C     0.08283   0.33248   0.62333   0.00000  Uiso   1.00
C292   C     0.07628   0.30030   0.54552   0.00000  Uiso   1.00
C293   C     0.07997   0.41940   0.49276   0.00000  Uiso   1.00
C294   C     0.11478   0.22003   0.73017   0.00000  Uiso   1.00
C295   C     0.13509   0.09329   0.74220   0.00000  Uiso   1.00
C296   C     0.16567   0.11772   0.77938   0.00000  Uiso   1.00
C297   C     0.05599   0.28972   0.74924   0.00000  Uiso   1.00
C298   C     0.02688   0.22156   0.77732   0.00000  Uiso   1.00
C299   C     0.00796   0.30465   0.83057   0.00000  Uiso   1.00
H300   H     0.10624   0.60175   0.75424   0.00000  Uiso   1.00
H301   H     0.10404   0.71058   0.61371   0.00000  Uiso   1.00
H302   H     0.16283   0.50360   0.81036   0.00000  Uiso   1.00
H303   H     0.05464   0.63185   0.84547   0.00000  Uiso   1.00
H304   H     0.09725   0.76685   0.44720   0.00000  Uiso   1.00
H305   H     0.22122   0.33042   0.86188   0.00000  Uiso   1.00
H306   H     0.99306   0.60086   0.93592   0.00000  Uiso   1.00
H307   H     0.07269   0.10571   0.67184   0.00000  Uiso   1.00
H308   H     0.06865   0.18732   0.52678   0.00000  Uiso   1.00
H309   H     0.12744   0.98034   0.72343   0.00000  Uiso   1.00
H310   H     0.01924   0.10860   0.75854   0.00000  Uiso   1.00
H311   H     0.06853   0.34215   0.37665   0.00000  Uiso   1.00
H312   H     0.19249   0.90572   0.79133   0.00000  Uiso   1.00
H313   H     0.96434   0.17617   0.86536   0.00000  Uiso   1.00
O314   O     0.08084   0.61713   0.31799   0.00000  Uiso   1.00
O315   O     0.24348   0.04454   0.86203   0.00000  Uiso   1.00
O316   O     0.94415   0.39937   0.95917   0.00000  Uiso   1.00
N317   N     0.09104   0.65571   0.45051   0.00000  Uiso   1.00
N318   N     0.20694   0.24767   0.83819   0.00000  Uiso   1.00
N319   N     0.99364   0.50050   0.90743   0.00000  Uiso   1.00
N320   N     0.07558   0.42718   0.41254   0.00000  Uiso   1.00
N321   N     0.19149   0.01914   0.80023   0.00000  Uiso   1.00
N322   N     0.97819   0.27197   0.86946   0.00000  Uiso   1.00
C323   C     0.40144   0.01189   0.73536   0.00000  Uiso   1.00
C324   C     0.40730   0.02154   0.64758   0.00000  Uiso   1.00
C325   C     0.40361   0.90237   0.59492   0.00000  Uiso   1.00
C326   C     0.41014   0.93436   0.51705   0.00000  Uiso   1.00
C327   C     0.41771   0.92716   0.38444   0.00000  Uiso   1.00
C328   C     0.37535   0.13400   0.75441   0.00000  Uiso   1.00
C329   C     0.34480   0.10937   0.79159   0.00000  Uiso   1.00
C330   C     0.32445   0.23605   0.80367   0.00000  Uiso   1.00
C331   C     0.28243   0.40345   0.83697   0.00000  Uiso   1.00
C332   C     0.43414   0.06431   0.77348   0.00000  Uiso   1.00
C333   C     0.45301   0.98110   0.82672   0.00000  Uiso   1.00
C334   C     0.48215   0.04911   0.85486   0.00000  Uiso   1.00
C335   C     0.53141   0.10831   0.91778   0.00000  Uiso   1.00
C336   C     0.41962   0.28064   0.69071   0.00000  Uiso   1.00
C337   C     0.41717   0.16752   0.62333   0.00000  Uiso   1.00
C338   C     0.42372   0.19970   0.54552   0.00000  Uiso   1.00
C339   C     0.42003   0.08060   0.49276   0.00000  Uiso   1.00
C340   C     0.38522   0.27997   0.73017   0.00000  Uiso   1.00
C341   C     0.36491   0.40671   0.74220   0.00000  Uiso   1.00
C342   C     0.33433   0.38228   0.77938   0.00000  Uiso   1.00
C343   C     0.44401   0.21028   0.74924   0.00000  Uiso   1.00
C344   C     0.47312   0.27844   0.77732   0.00000  Uiso   1.00
C345   C     0.49204   0.19535   0.83057   0.00000  Uiso   1.00
H346   H     0.39376   0.89825   0.75424   0.00000  Uiso   1.00
H347   H     0.39596   0.78942   0.61371   0.00000  Uiso   1.00
H348   H     0.33717   0.99640   0.81036   0.00000  Uiso   1.00
H349   H     0.44536   0.86815   0.84547   0.00000  Uiso   1.00
H350   H     0.40275   0.73315   0.44720   0.00000  Uiso   1.00
H351   H     0.27878   0.16958   0.86188   0.00000  Uiso   1.00
H352   H     0.50694   0.89914   0.93592   0.00000  Uiso   1.00
H353   H     0.42731   0.39429   0.67184   0.00000  Uiso   1.00
H354   H     0.43135   0.31268   0.52678   0.00000  Uiso   1.00
H355   H     0.37256   0.51966   0.72343   0.00000  Uiso   1.00
H356   H     0.48076   0.39140   0.75854   0.00000  Uiso   1.00
H357   H     0.43147   0.15785   0.37665   0.00000  Uiso   1.00
H358   H     0.30751   0.59428   0.79133   0.00000  Uiso   1.00
H359   H     0.53566   0.32383   0.86536   0.00000  Uiso   1.00
O360   O     0.41916   0.88287   0.31799   0.00000  Uiso   1.00
O361   O     0.25652   0.45546   0.86203   0.00000  Uiso   1.00
O362   O     0.55585   0.10063   0.95917   0.00000  Uiso   1.00
N363   N     0.40896   0.84429   0.45051   0.00000  Uiso   1.00
N364   N     0.29306   0.25233   0.83819   0.00000  Uiso   1.00
N365   N     0.50636   0.99950   0.90743   0.00000  Uiso   1.00
N366   N     0.42442   0.07282   0.41254   0.00000  Uiso   1.00
N367   N     0.30851   0.48086   0.80023   0.00000  Uiso   1.00
N368   N     0.52181   0.22803   0.86946   0.00000  Uiso   1.00
