data_job_02040
_audit_creation_date              2018-12-19
_audit_creation_method            'Materials Studio'
_symmetry_space_group_name_H-M    'P1'
_symmetry_Int_Tables_number       1
_symmetry_cell_setting            triclinic
loop_
_symmetry_equiv_pos_as_xyz
  x,y,z
_cell_length_a                    12.4128
_cell_length_b                    12.4128
_cell_length_c                    32.4422
_cell_angle_alpha                 90.0000
_cell_angle_beta                  90.0000
_cell_angle_gamma                 120.0000
loop_
_atom_site_label
_atom_site_type_symbol
_atom_site_fract_x
_atom_site_fract_y
_atom_site_fract_z
_atom_site_U_iso_or_equiv
_atom_site_adp_type
_atom_site_occupancy
C1     C     0.82769   0.20433   0.73589   0.00000  Uiso   1.00
C2     C     0.87940   0.29393   0.69955   0.00000  Uiso   1.00
C3     C     0.84353   0.26454   0.65869   0.00000  Uiso   1.00
C4     C     0.90196   0.35960   0.63002   0.00000  Uiso   1.00
C5     C     0.96846   0.48044   0.57179   0.00000  Uiso   1.00
C6     C     0.93949   0.20733   0.75656   0.00000  Uiso   1.00
C7     C     0.95412   0.10512   0.76365   0.00000  Uiso   1.00
C8     C     0.06313   0.12728   0.78299   0.00000  Uiso   1.00
C9     C     0.22287   0.11367   0.81331   0.00000  Uiso   1.00
C10    C     0.77901   0.26324   0.76646   0.00000  Uiso   1.00
C11    C     0.65872   0.20803   0.78188   0.00000  Uiso   1.00
C12    C     0.63262   0.27725   0.80955   0.00000  Uiso   1.00
C13    C     0.54319   0.35045   0.85523   0.00000  Uiso   1.00
C14    C     0.99524   0.42544   0.75763   0.00000  Uiso   1.00
C15    C     0.97042   0.41403   0.71136   0.00000  Uiso   1.00
C16    C     0.02891   0.50916   0.68274   0.00000  Uiso   1.00
C17    C     0.99313   0.47991   0.64185   0.00000  Uiso   1.00
C18    C     0.03050   0.32742   0.76837   0.00000  Uiso   1.00
C19    C     0.13950   0.34974   0.78771   0.00000  Uiso   1.00
C20    C     0.15430   0.24759   0.79482   0.00000  Uiso   1.00
C21    C     0.87002   0.38334   0.77827   0.00000  Uiso   1.00
C22    C     0.84410   0.45266   0.80593   0.00000  Uiso   1.00
C23    C     0.72379   0.39757   0.82138   0.00000  Uiso   1.00
H24    H     0.75684   0.11083   0.72670   0.00000  Uiso   1.00
H25    H     0.77310   0.17158   0.64956   0.00000  Uiso   1.00
H26    H     0.88367   0.01219   0.75451   0.00000  Uiso   1.00
H27    H     0.58831   0.11509   0.77273   0.00000  Uiso   1.00
H28    H     0.83130   0.29189   0.56925   0.00000  Uiso   1.00
H29    H     0.06442   0.95579   0.79056   0.00000  Uiso   1.00
H30    H     0.44160   0.17277   0.82898   0.00000  Uiso   1.00
H31    H     0.06611   0.51894   0.76683   0.00000  Uiso   1.00
H32    H     0.09934   0.60209   0.69189   0.00000  Uiso   1.00
H33    H     0.20991   0.44269   0.79684   0.00000  Uiso   1.00
H34    H     0.91455   0.54559   0.81506   0.00000  Uiso   1.00
H35    H     0.09609   0.64130   0.60360   0.00000  Uiso   1.00
H36    H     0.32921   0.30521   0.82492   0.00000  Uiso   1.00
H37    H     0.70640   0.52219   0.86333   0.00000  Uiso   1.00
O38    O     0.98001   0.51392   0.53640   0.00000  Uiso   1.00
O39    O     0.28584   0.07297   0.82676   0.00000  Uiso   1.00
O40    O     0.46872   0.35765   0.87716   0.00000  Uiso   1.00
N41    N     0.88904   0.36272   0.58762   0.00000  Uiso   1.00
N42    N     0.10700   0.04849   0.79453   0.00000  Uiso   1.00
N43    N     0.52473   0.25134   0.83045   0.00000  Uiso   1.00
N44    N     0.03152   0.55073   0.60610   0.00000  Uiso   1.00
N45    N     0.24948   0.23651   0.81301   0.00000  Uiso   1.00
N46    N     0.66721   0.43936   0.84894   0.00000  Uiso   1.00
C47    C     0.79567   0.62336   0.40256   0.00000  Uiso   1.00
C48    C     0.70607   0.58547   0.36621   0.00000  Uiso   1.00
C49    C     0.73546   0.57899   0.32535   0.00000  Uiso   1.00
C50    C     0.64040   0.54236   0.29669   0.00000  Uiso   1.00
C51    C     0.51956   0.48802   0.23845   0.00000  Uiso   1.00
C52    C     0.79267   0.73215   0.42323   0.00000  Uiso   1.00
C53    C     0.89488   0.84900   0.43032   0.00000  Uiso   1.00
C54    C     0.87272   0.93584   0.44966   0.00000  Uiso   1.00
C55    C     0.88633   0.10920   0.47997   0.00000  Uiso   1.00
C56    C     0.73676   0.51577   0.43313   0.00000  Uiso   1.00
C57    C     0.79197   0.45069   0.44854   0.00000  Uiso   1.00
C58    C     0.72275   0.35536   0.47622   0.00000  Uiso   1.00
C59    C     0.64955   0.19274   0.52190   0.00000  Uiso   1.00
C60    C     0.57456   0.56981   0.42430   0.00000  Uiso   1.00
C61    C     0.58597   0.55639   0.37802   0.00000  Uiso   1.00
C62    C     0.49084   0.51975   0.34941   0.00000  Uiso   1.00
C63    C     0.52009   0.51322   0.30852   0.00000  Uiso   1.00
C64    C     0.67258   0.70307   0.43504   0.00000  Uiso   1.00
C65    C     0.65026   0.78976   0.45437   0.00000  Uiso   1.00
C66    C     0.75241   0.90671   0.46149   0.00000  Uiso   1.00
C67    C     0.61666   0.48668   0.44494   0.00000  Uiso   1.00
C68    C     0.54734   0.39144   0.47260   0.00000  Uiso   1.00
C69    C     0.60243   0.32623   0.48805   0.00000  Uiso   1.00
H70    H     0.88917   0.64601   0.39336   0.00000  Uiso   1.00
H71    H     0.82842   0.60152   0.31623   0.00000  Uiso   1.00
H72    H     0.98781   0.87148   0.42118   0.00000  Uiso   1.00
H73    H     0.88491   0.47322   0.43940   0.00000  Uiso   1.00
H74    H     0.70811   0.53942   0.23591   0.00000  Uiso   1.00
H75    H     0.04421   0.10863   0.45723   0.00000  Uiso   1.00
H76    H     0.82723   0.26883   0.49564   0.00000  Uiso   1.00
H77    H     0.48106   0.54717   0.43349   0.00000  Uiso   1.00
H78    H     0.39791   0.49725   0.35856   0.00000  Uiso   1.00
H79    H     0.55731   0.76722   0.46351   0.00000  Uiso   1.00
H80    H     0.45441   0.36896   0.48173   0.00000  Uiso   1.00
H81    H     0.35870   0.45479   0.27027   0.00000  Uiso   1.00
H82    H     0.69479   0.02401   0.49158   0.00000  Uiso   1.00
H83    H     0.47781   0.18421   0.53000   0.00000  Uiso   1.00
O84    O     0.48608   0.46609   0.20307   0.00000  Uiso   1.00
O85    O     0.92703   0.21286   0.49343   0.00000  Uiso   1.00
O86    O     0.64235   0.11107   0.54383   0.00000  Uiso   1.00
N87    N     0.63728   0.52633   0.25428   0.00000  Uiso   1.00
N88    N     0.95151   0.05851   0.46119   0.00000  Uiso   1.00
N89    N     0.74866   0.27339   0.49712   0.00000  Uiso   1.00
N90    N     0.44927   0.48079   0.27277   0.00000  Uiso   1.00
N91    N     0.76349   0.01297   0.47968   0.00000  Uiso   1.00
N92    N     0.56064   0.22786   0.51560   0.00000  Uiso   1.00
C93    C     0.37664   0.17231   0.06922   0.00000  Uiso   1.00
C94    C     0.41453   0.12060   0.03288   0.00000  Uiso   1.00
C95    C     0.42101   0.15647   0.99202   0.00000  Uiso   1.00
C96    C     0.45764   0.09804   0.96335   0.00000  Uiso   1.00
C97    C     0.51198   0.03154   0.90512   0.00000  Uiso   1.00
C98    C     0.26785   0.06051   0.08990   0.00000  Uiso   1.00
C99    C     0.15100   0.04588   0.09699   0.00000  Uiso   1.00
C100   C     0.06416   0.93687   0.11632   0.00000  Uiso   1.00
C101   C     0.89080   0.77713   0.14664   0.00000  Uiso   1.00
C102   C     0.48423   0.22099   0.09979   0.00000  Uiso   1.00
C103   C     0.54931   0.34128   0.11521   0.00000  Uiso   1.00
C104   C     0.64464   0.36738   0.14289   0.00000  Uiso   1.00
C105   C     0.80726   0.45681   0.18856   0.00000  Uiso   1.00
C106   C     0.43019   0.00476   0.09097   0.00000  Uiso   1.00
C107   C     0.44361   0.02958   0.04469   0.00000  Uiso   1.00
C108   C     0.48025   0.97109   0.01608   0.00000  Uiso   1.00
C109   C     0.48678   0.00687   0.97518   0.00000  Uiso   1.00
C110   C     0.29693   0.96950   0.10171   0.00000  Uiso   1.00
C111   C     0.21024   0.86050   0.12104   0.00000  Uiso   1.00
C112   C     0.09329   0.84570   0.12815   0.00000  Uiso   1.00
C113   C     0.51332   0.12998   0.11160   0.00000  Uiso   1.00
C114   C     0.60856   0.15590   0.13926   0.00000  Uiso   1.00
C115   C     0.67377   0.27621   0.15472   0.00000  Uiso   1.00
H116   H     0.35399   0.24316   0.06003   0.00000  Uiso   1.00
H117   H     0.39848   0.22690   0.98289   0.00000  Uiso   1.00
H118   H     0.12852   0.11633   0.08785   0.00000  Uiso   1.00
H119   H     0.52678   0.41169   0.10606   0.00000  Uiso   1.00
H120   H     0.46058   0.16870   0.90258   0.00000  Uiso   1.00
H121   H     0.89137   0.93558   0.12389   0.00000  Uiso   1.00
H122   H     0.73117   0.55840   0.16231   0.00000  Uiso   1.00
H123   H     0.45283   0.93389   0.10016   0.00000  Uiso   1.00
H124   H     0.50275   0.90066   0.02522   0.00000  Uiso   1.00
H125   H     0.23278   0.79009   0.13018   0.00000  Uiso   1.00
H126   H     0.63104   0.08545   0.14839   0.00000  Uiso   1.00
H127   H     0.54521   0.90391   0.93694   0.00000  Uiso   1.00
H128   H     0.97599   0.67079   0.15825   0.00000  Uiso   1.00
H129   H     0.81579   0.29360   0.19666   0.00000  Uiso   1.00
O130   O     0.53391   0.01999   0.86974   0.00000  Uiso   1.00
O131   O     0.78714   0.71416   0.16010   0.00000  Uiso   1.00
O132   O     0.88893   0.53128   0.21049   0.00000  Uiso   1.00
N133   N     0.47367   0.11096   0.92095   0.00000  Uiso   1.00
N134   N     0.94149   0.89300   0.12786   0.00000  Uiso   1.00
N135   N     0.72661   0.47527   0.16378   0.00000  Uiso   1.00
N136   N     0.51921   0.96848   0.93944   0.00000  Uiso   1.00
N137   N     0.98703   0.75052   0.14635   0.00000  Uiso   1.00
N138   N     0.77214   0.33279   0.18227   0.00000  Uiso   1.00
C139   C     0.20433   0.82769   0.26411   0.00000  Uiso   1.00
C140   C     0.29393   0.87940   0.30045   0.00000  Uiso   1.00
C141   C     0.26454   0.84353   0.34131   0.00000  Uiso   1.00
C142   C     0.35960   0.90196   0.36998   0.00000  Uiso   1.00
C143   C     0.48044   0.96846   0.42821   0.00000  Uiso   1.00
C144   C     0.20733   0.93949   0.24344   0.00000  Uiso   1.00
C145   C     0.10512   0.95412   0.23635   0.00000  Uiso   1.00
C146   C     0.12728   0.06313   0.21701   0.00000  Uiso   1.00
C147   C     0.11367   0.22287   0.18669   0.00000  Uiso   1.00
C148   C     0.26324   0.77901   0.23354   0.00000  Uiso   1.00
C149   C     0.20803   0.65872   0.21812   0.00000  Uiso   1.00
C150   C     0.27725   0.63262   0.19045   0.00000  Uiso   1.00
C151   C     0.35045   0.54319   0.14477   0.00000  Uiso   1.00
C152   C     0.42544   0.99524   0.24237   0.00000  Uiso   1.00
C153   C     0.41403   0.97042   0.28864   0.00000  Uiso   1.00
C154   C     0.50916   0.02891   0.31726   0.00000  Uiso   1.00
C155   C     0.47991   0.99313   0.35815   0.00000  Uiso   1.00
C156   C     0.32742   0.03050   0.23163   0.00000  Uiso   1.00
C157   C     0.34974   0.13950   0.21229   0.00000  Uiso   1.00
C158   C     0.24759   0.15430   0.20518   0.00000  Uiso   1.00
C159   C     0.38334   0.87002   0.22173   0.00000  Uiso   1.00
C160   C     0.45266   0.84410   0.19407   0.00000  Uiso   1.00
C161   C     0.39757   0.72379   0.17862   0.00000  Uiso   1.00
H162   H     0.11083   0.75684   0.27330   0.00000  Uiso   1.00
H163   H     0.17158   0.77310   0.35044   0.00000  Uiso   1.00
H164   H     0.01219   0.88367   0.24549   0.00000  Uiso   1.00
H165   H     0.11509   0.58831   0.22727   0.00000  Uiso   1.00
H166   H     0.29189   0.83130   0.43075   0.00000  Uiso   1.00
H167   H     0.95579   0.06442   0.20944   0.00000  Uiso   1.00
H168   H     0.17277   0.44160   0.17102   0.00000  Uiso   1.00
H169   H     0.51894   0.06611   0.23317   0.00000  Uiso   1.00
H170   H     0.60209   0.09934   0.30811   0.00000  Uiso   1.00
H171   H     0.44269   0.20991   0.20316   0.00000  Uiso   1.00
H172   H     0.54559   0.91455   0.18494   0.00000  Uiso   1.00
H173   H     0.64130   0.09609   0.39640   0.00000  Uiso   1.00
H174   H     0.30521   0.32921   0.17508   0.00000  Uiso   1.00
H175   H     0.52219   0.70640   0.13667   0.00000  Uiso   1.00
O176   O     0.51392   0.98001   0.46360   0.00000  Uiso   1.00
O177   O     0.07297   0.28584   0.17324   0.00000  Uiso   1.00
O178   O     0.35765   0.46872   0.12284   0.00000  Uiso   1.00
N179   N     0.36272   0.88904   0.41238   0.00000  Uiso   1.00
N180   N     0.04849   0.10700   0.20547   0.00000  Uiso   1.00
N181   N     0.25134   0.52473   0.16955   0.00000  Uiso   1.00
N182   N     0.55073   0.03152   0.39390   0.00000  Uiso   1.00
N183   N     0.23651   0.24948   0.18699   0.00000  Uiso   1.00
N184   N     0.43936   0.66721   0.15106   0.00000  Uiso   1.00
C185   C     0.62336   0.79567   0.59744   0.00000  Uiso   1.00
C186   C     0.58547   0.70607   0.63379   0.00000  Uiso   1.00
C187   C     0.57899   0.73546   0.67465   0.00000  Uiso   1.00
C188   C     0.54236   0.64040   0.70331   0.00000  Uiso   1.00
C189   C     0.48802   0.51956   0.76155   0.00000  Uiso   1.00
C190   C     0.73215   0.79267   0.57677   0.00000  Uiso   1.00
C191   C     0.84900   0.89488   0.56968   0.00000  Uiso   1.00
C192   C     0.93584   0.87272   0.55034   0.00000  Uiso   1.00
C193   C     0.10920   0.88633   0.52003   0.00000  Uiso   1.00
C194   C     0.51577   0.73676   0.56687   0.00000  Uiso   1.00
C195   C     0.45069   0.79197   0.55146   0.00000  Uiso   1.00
C196   C     0.35536   0.72275   0.52378   0.00000  Uiso   1.00
C197   C     0.19274   0.64955   0.47810   0.00000  Uiso   1.00
C198   C     0.56981   0.57456   0.57570   0.00000  Uiso   1.00
C199   C     0.55639   0.58597   0.62198   0.00000  Uiso   1.00
C200   C     0.51975   0.49084   0.65059   0.00000  Uiso   1.00
C201   C     0.51322   0.52009   0.69148   0.00000  Uiso   1.00
C202   C     0.70307   0.67258   0.56496   0.00000  Uiso   1.00
C203   C     0.78976   0.65026   0.54563   0.00000  Uiso   1.00
C204   C     0.90671   0.75241   0.53851   0.00000  Uiso   1.00
C205   C     0.48668   0.61666   0.55506   0.00000  Uiso   1.00
C206   C     0.39144   0.54734   0.52740   0.00000  Uiso   1.00
C207   C     0.32623   0.60243   0.51195   0.00000  Uiso   1.00
H208   H     0.64601   0.88917   0.60664   0.00000  Uiso   1.00
H209   H     0.60152   0.82842   0.68377   0.00000  Uiso   1.00
H210   H     0.87148   0.98781   0.57882   0.00000  Uiso   1.00
H211   H     0.47322   0.88491   0.56060   0.00000  Uiso   1.00
H212   H     0.53942   0.70811   0.76409   0.00000  Uiso   1.00
H213   H     0.10863   0.04421   0.54277   0.00000  Uiso   1.00
H214   H     0.26883   0.82723   0.50436   0.00000  Uiso   1.00
H215   H     0.54717   0.48106   0.56651   0.00000  Uiso   1.00
H216   H     0.49725   0.39791   0.64144   0.00000  Uiso   1.00
H217   H     0.76722   0.55731   0.53649   0.00000  Uiso   1.00
H218   H     0.36896   0.45441   0.51827   0.00000  Uiso   1.00
H219   H     0.45479   0.35870   0.72973   0.00000  Uiso   1.00
H220   H     0.02401   0.69479   0.50842   0.00000  Uiso   1.00
H221   H     0.18421   0.47781   0.47000   0.00000  Uiso   1.00
O222   O     0.46609   0.48608   0.79693   0.00000  Uiso   1.00
O223   O     0.21286   0.92703   0.50657   0.00000  Uiso   1.00
O224   O     0.11107   0.64235   0.45617   0.00000  Uiso   1.00
N225   N     0.52633   0.63728   0.74572   0.00000  Uiso   1.00
N226   N     0.05851   0.95151   0.53881   0.00000  Uiso   1.00
N227   N     0.27339   0.74866   0.50288   0.00000  Uiso   1.00
N228   N     0.48079   0.44927   0.72723   0.00000  Uiso   1.00
N229   N     0.01297   0.76349   0.52032   0.00000  Uiso   1.00
N230   N     0.22786   0.56064   0.48440   0.00000  Uiso   1.00
C231   C     0.17231   0.37664   0.93078   0.00000  Uiso   1.00
C232   C     0.12060   0.41453   0.96712   0.00000  Uiso   1.00
C233   C     0.15647   0.42101   0.00798   0.00000  Uiso   1.00
C234   C     0.09804   0.45764   0.03665   0.00000  Uiso   1.00
C235   C     0.03154   0.51198   0.09488   0.00000  Uiso   1.00
C236   C     0.06051   0.26785   0.91010   0.00000  Uiso   1.00
C237   C     0.04588   0.15100   0.90301   0.00000  Uiso   1.00
C238   C     0.93687   0.06416   0.88368   0.00000  Uiso   1.00
C239   C     0.77713   0.89080   0.85336   0.00000  Uiso   1.00
C240   C     0.22099   0.48423   0.90021   0.00000  Uiso   1.00
C241   C     0.34128   0.54931   0.88479   0.00000  Uiso   1.00
C242   C     0.36738   0.64464   0.85711   0.00000  Uiso   1.00
C243   C     0.45681   0.80726   0.81144   0.00000  Uiso   1.00
C244   C     0.00476   0.43019   0.90903   0.00000  Uiso   1.00
C245   C     0.02958   0.44361   0.95531   0.00000  Uiso   1.00
C246   C     0.97109   0.48025   0.98392   0.00000  Uiso   1.00
C247   C     0.00687   0.48678   0.02482   0.00000  Uiso   1.00
C248   C     0.96950   0.29693   0.89829   0.00000  Uiso   1.00
C249   C     0.86050   0.21024   0.87896   0.00000  Uiso   1.00
C250   C     0.84570   0.09329   0.87185   0.00000  Uiso   1.00
C251   C     0.12998   0.51332   0.88840   0.00000  Uiso   1.00
C252   C     0.15590   0.60856   0.86074   0.00000  Uiso   1.00
C253   C     0.27621   0.67377   0.84528   0.00000  Uiso   1.00
H254   H     0.24316   0.35399   0.93997   0.00000  Uiso   1.00
H255   H     0.22690   0.39848   0.01711   0.00000  Uiso   1.00
H256   H     0.11633   0.12852   0.91215   0.00000  Uiso   1.00
H257   H     0.41169   0.52678   0.89394   0.00000  Uiso   1.00
H258   H     0.16870   0.46058   0.09742   0.00000  Uiso   1.00
H259   H     0.93558   0.89137   0.87611   0.00000  Uiso   1.00
H260   H     0.55840   0.73117   0.83769   0.00000  Uiso   1.00
H261   H     0.93389   0.45283   0.89984   0.00000  Uiso   1.00
H262   H     0.90066   0.50275   0.97478   0.00000  Uiso   1.00
H263   H     0.79009   0.23278   0.86982   0.00000  Uiso   1.00
H264   H     0.08545   0.63104   0.85161   0.00000  Uiso   1.00
H265   H     0.90391   0.54521   0.06306   0.00000  Uiso   1.00
H266   H     0.67079   0.97599   0.84175   0.00000  Uiso   1.00
H267   H     0.29360   0.81579   0.80334   0.00000  Uiso   1.00
O268   O     0.01999   0.53391   0.13026   0.00000  Uiso   1.00
O269   O     0.71416   0.78714   0.83990   0.00000  Uiso   1.00
O270   O     0.53128   0.88893   0.78951   0.00000  Uiso   1.00
N271   N     0.11096   0.47367   0.07905   0.00000  Uiso   1.00
N272   N     0.89300   0.94149   0.87214   0.00000  Uiso   1.00
N273   N     0.47527   0.72661   0.83622   0.00000  Uiso   1.00
N274   N     0.96848   0.51921   0.06056   0.00000  Uiso   1.00
N275   N     0.75052   0.98703   0.85365   0.00000  Uiso   1.00
N276   N     0.33279   0.77214   0.81773   0.00000  Uiso   1.00
