data_job_03508
_audit_creation_date              2018-12-19
_audit_creation_method            'Materials Studio'
_symmetry_space_group_name_H-M    'P1'
_symmetry_Int_Tables_number       1
_symmetry_cell_setting            triclinic
loop_
_symmetry_equiv_pos_as_xyz
  x,y,z
_cell_length_a                    29.0999
_cell_length_b                    11.6730
_cell_length_c                    40.3507
_cell_angle_alpha                 90.0000
_cell_angle_beta                  35.3583
_cell_angle_gamma                 90.0000
loop_
_atom_site_label
_atom_site_type_symbol
_atom_site_fract_x
_atom_site_fract_y
_atom_site_fract_z
_atom_site_U_iso_or_equiv
_atom_site_adp_type
_atom_site_occupancy
C1     C     0.30784   0.51569   0.62899   0.00000  Uiso   1.00
C2     C     0.29725   0.45600   0.60189   0.00000  Uiso   1.00
C3     C     0.34643   0.37157   0.56012   0.00000  Uiso   1.00
C4     C     0.32663   0.32775   0.54086   0.00000  Uiso   1.00
C5     C     0.32033   0.22913   0.49547   0.00000  Uiso   1.00
C6     C     0.31173   0.64357   0.61915   0.00000  Uiso   1.00
C7     C     0.37308   0.71686   0.59190   0.00000  Uiso   1.00
C8     C     0.36546   0.83094   0.58718   0.00000  Uiso   1.00
C9     C     0.38161   0.02355   0.56861   0.00000  Uiso   1.00
C10    C     0.23052   0.49706   0.69338   0.00000  Uiso   1.00
C11    C     0.22360   0.44719   0.72854   0.00000  Uiso   1.00
C12    C     0.14761   0.43795   0.78632   0.00000  Uiso   1.00
C13    C     0.03769   0.40308   0.88300   0.00000  Uiso   1.00
C14    C     0.18521   0.58800   0.66907   0.00000  Uiso   1.00
C15    C     0.23064   0.49528   0.62367   0.00000  Uiso   1.00
C16    C     0.21076   0.45157   0.60447   0.00000  Uiso   1.00
C17    C     0.25990   0.36709   0.56268   0.00000  Uiso   1.00
C18    C     0.24512   0.68285   0.64093   0.00000  Uiso   1.00
C19    C     0.23741   0.79686   0.63625   0.00000  Uiso   1.00
C20    C     0.29873   0.87029   0.60899   0.00000  Uiso   1.00
C21    C     0.16392   0.53634   0.71515   0.00000  Uiso   1.00
C22    C     0.08792   0.52718   0.77289   0.00000  Uiso   1.00
C23    C     0.08088   0.47730   0.80813   0.00000  Uiso   1.00
H24    H     0.35970   0.48512   0.61203   0.00000  Uiso   1.00
H25    H     0.39797   0.34121   0.54328   0.00000  Uiso   1.00
H26    H     0.42461   0.68644   0.57506   0.00000  Uiso   1.00
H27    H     0.27515   0.41681   0.71167   0.00000  Uiso   1.00
H28    H     0.41105   0.19900   0.47664   0.00000  Uiso   1.00
H29    H     0.46721   0.92695   0.54366   0.00000  Uiso   1.00
H30    H     0.15205   0.35838   0.83175   0.00000  Uiso   1.00
H31    H     0.13336   0.61858   0.68603   0.00000  Uiso   1.00
H32    H     0.15921   0.48198   0.62133   0.00000  Uiso   1.00
H33    H     0.18585   0.82722   0.65311   0.00000  Uiso   1.00
H34    H     0.03639   0.55758   0.78973   0.00000  Uiso   1.00
H35    H     0.21726   0.31326   0.53998   0.00000  Uiso   1.00
H36    H     0.27342   0.04122   0.60701   0.00000  Uiso   1.00
H37    H     0.95826   0.47264   0.89510   0.00000  Uiso   1.00
O38    O     0.33526   0.16389   0.46440   0.00000  Uiso   1.00
O39    O     0.40893   0.11894   0.55235   0.00000  Uiso   1.00
O40    O     0.99545   0.37298   0.93031   0.00000  Uiso   1.00
N41    N     0.36189   0.24462   0.50043   0.00000  Uiso   1.00
N42    N     0.41440   0.92521   0.56309   0.00000  Uiso   1.00
N43    N     0.11975   0.39367   0.83243   0.00000  Uiso   1.00
N44    N     0.25761   0.30610   0.53452   0.00000  Uiso   1.00
N45    N     0.31012   0.98669   0.59718   0.00000  Uiso   1.00
N46    N     0.01547   0.45515   0.86651   0.00000  Uiso   1.00
C47    C     0.80784   0.01569   0.62899   0.00000  Uiso   1.00
C48    C     0.79725   0.95600   0.60189   0.00000  Uiso   1.00
C49    C     0.84643   0.87157   0.56012   0.00000  Uiso   1.00
C50    C     0.82663   0.82775   0.54086   0.00000  Uiso   1.00
C51    C     0.82033   0.72913   0.49547   0.00000  Uiso   1.00
C52    C     0.81173   0.14357   0.61915   0.00000  Uiso   1.00
C53    C     0.87308   0.21686   0.59190   0.00000  Uiso   1.00
C54    C     0.86546   0.33094   0.58718   0.00000  Uiso   1.00
C55    C     0.88161   0.52355   0.56861   0.00000  Uiso   1.00
C56    C     0.73052   0.99706   0.69338   0.00000  Uiso   1.00
C57    C     0.72360   0.94719   0.72854   0.00000  Uiso   1.00
C58    C     0.64761   0.93795   0.78632   0.00000  Uiso   1.00
C59    C     0.53769   0.90308   0.88300   0.00000  Uiso   1.00
C60    C     0.68521   0.08800   0.66907   0.00000  Uiso   1.00
C61    C     0.73064   0.99528   0.62367   0.00000  Uiso   1.00
C62    C     0.71076   0.95157   0.60447   0.00000  Uiso   1.00
C63    C     0.75990   0.86709   0.56268   0.00000  Uiso   1.00
C64    C     0.74512   0.18285   0.64093   0.00000  Uiso   1.00
C65    C     0.73741   0.29686   0.63625   0.00000  Uiso   1.00
C66    C     0.79873   0.37029   0.60899   0.00000  Uiso   1.00
C67    C     0.66392   0.03634   0.71515   0.00000  Uiso   1.00
C68    C     0.58792   0.02718   0.77289   0.00000  Uiso   1.00
C69    C     0.58088   0.97730   0.80813   0.00000  Uiso   1.00
H70    H     0.85970   0.98512   0.61203   0.00000  Uiso   1.00
H71    H     0.89797   0.84121   0.54328   0.00000  Uiso   1.00
H72    H     0.92461   0.18644   0.57506   0.00000  Uiso   1.00
H73    H     0.77515   0.91681   0.71167   0.00000  Uiso   1.00
H74    H     0.91105   0.69900   0.47664   0.00000  Uiso   1.00
H75    H     0.96721   0.42695   0.54366   0.00000  Uiso   1.00
H76    H     0.65205   0.85838   0.83175   0.00000  Uiso   1.00
H77    H     0.63336   0.11858   0.68603   0.00000  Uiso   1.00
H78    H     0.65921   0.98198   0.62133   0.00000  Uiso   1.00
H79    H     0.68585   0.32722   0.65311   0.00000  Uiso   1.00
H80    H     0.53639   0.05758   0.78973   0.00000  Uiso   1.00
H81    H     0.71726   0.81326   0.53998   0.00000  Uiso   1.00
H82    H     0.77342   0.54122   0.60701   0.00000  Uiso   1.00
H83    H     0.45826   0.97264   0.89510   0.00000  Uiso   1.00
O84    O     0.83526   0.66389   0.46440   0.00000  Uiso   1.00
O85    O     0.90893   0.61894   0.55235   0.00000  Uiso   1.00
O86    O     0.49545   0.87298   0.93031   0.00000  Uiso   1.00
N87    N     0.86189   0.74462   0.50043   0.00000  Uiso   1.00
N88    N     0.91440   0.42521   0.56309   0.00000  Uiso   1.00
N89    N     0.61975   0.89367   0.83243   0.00000  Uiso   1.00
N90    N     0.75761   0.80610   0.53452   0.00000  Uiso   1.00
N91    N     0.81012   0.48669   0.59718   0.00000  Uiso   1.00
N92    N     0.51547   0.95515   0.86651   0.00000  Uiso   1.00
C93    C     0.69216   0.51569   0.87101   0.00000  Uiso   1.00
C94    C     0.70275   0.45600   0.89811   0.00000  Uiso   1.00
C95    C     0.65357   0.37157   0.93988   0.00000  Uiso   1.00
C96    C     0.67337   0.32775   0.95914   0.00000  Uiso   1.00
C97    C     0.67967   0.22913   0.00453   0.00000  Uiso   1.00
C98    C     0.68827   0.64357   0.88085   0.00000  Uiso   1.00
C99    C     0.62692   0.71686   0.90810   0.00000  Uiso   1.00
C100   C     0.63454   0.83094   0.91282   0.00000  Uiso   1.00
C101   C     0.61839   0.02355   0.93139   0.00000  Uiso   1.00
C102   C     0.76948   0.49706   0.80662   0.00000  Uiso   1.00
C103   C     0.77640   0.44719   0.77146   0.00000  Uiso   1.00
C104   C     0.85239   0.43795   0.71368   0.00000  Uiso   1.00
C105   C     0.96231   0.40308   0.61700   0.00000  Uiso   1.00
C106   C     0.81479   0.58800   0.83093   0.00000  Uiso   1.00
C107   C     0.76936   0.49528   0.87633   0.00000  Uiso   1.00
C108   C     0.78924   0.45157   0.89553   0.00000  Uiso   1.00
C109   C     0.74010   0.36709   0.93732   0.00000  Uiso   1.00
C110   C     0.75488   0.68285   0.85907   0.00000  Uiso   1.00
C111   C     0.76259   0.79686   0.86375   0.00000  Uiso   1.00
C112   C     0.70127   0.87029   0.89101   0.00000  Uiso   1.00
C113   C     0.83608   0.53634   0.78485   0.00000  Uiso   1.00
C114   C     0.91208   0.52718   0.72711   0.00000  Uiso   1.00
C115   C     0.91912   0.47730   0.69187   0.00000  Uiso   1.00
H116   H     0.64030   0.48512   0.88797   0.00000  Uiso   1.00
H117   H     0.60203   0.34121   0.95672   0.00000  Uiso   1.00
H118   H     0.57539   0.68644   0.92494   0.00000  Uiso   1.00
H119   H     0.72485   0.41681   0.78833   0.00000  Uiso   1.00
H120   H     0.58895   0.19900   0.02336   0.00000  Uiso   1.00
H121   H     0.53279   0.92695   0.95634   0.00000  Uiso   1.00
H122   H     0.84795   0.35838   0.66825   0.00000  Uiso   1.00
H123   H     0.86664   0.61858   0.81397   0.00000  Uiso   1.00
H124   H     0.84079   0.48198   0.87867   0.00000  Uiso   1.00
H125   H     0.81415   0.82722   0.84689   0.00000  Uiso   1.00
H126   H     0.96361   0.55758   0.71027   0.00000  Uiso   1.00
H127   H     0.78274   0.31326   0.96002   0.00000  Uiso   1.00
H128   H     0.72658   0.04122   0.89299   0.00000  Uiso   1.00
H129   H     0.04174   0.47264   0.60490   0.00000  Uiso   1.00
O130   O     0.66474   0.16389   0.03560   0.00000  Uiso   1.00
O131   O     0.59107   0.11894   0.94765   0.00000  Uiso   1.00
O132   O     0.00455   0.37298   0.56969   0.00000  Uiso   1.00
N133   N     0.63811   0.24462   0.99957   0.00000  Uiso   1.00
N134   N     0.58560   0.92521   0.93691   0.00000  Uiso   1.00
N135   N     0.88025   0.39367   0.66757   0.00000  Uiso   1.00
N136   N     0.74239   0.30610   0.96548   0.00000  Uiso   1.00
N137   N     0.68988   0.98669   0.90282   0.00000  Uiso   1.00
N138   N     0.98453   0.45515   0.63349   0.00000  Uiso   1.00
C139   C     0.19216   0.01569   0.87101   0.00000  Uiso   1.00
C140   C     0.20275   0.95600   0.89811   0.00000  Uiso   1.00
C141   C     0.15357   0.87157   0.93988   0.00000  Uiso   1.00
C142   C     0.17337   0.82775   0.95914   0.00000  Uiso   1.00
C143   C     0.17967   0.72913   0.00453   0.00000  Uiso   1.00
C144   C     0.18827   0.14357   0.88085   0.00000  Uiso   1.00
C145   C     0.12692   0.21686   0.90810   0.00000  Uiso   1.00
C146   C     0.13454   0.33094   0.91282   0.00000  Uiso   1.00
C147   C     0.11839   0.52355   0.93139   0.00000  Uiso   1.00
C148   C     0.26948   0.99706   0.80662   0.00000  Uiso   1.00
C149   C     0.27640   0.94719   0.77146   0.00000  Uiso   1.00
C150   C     0.35239   0.93795   0.71368   0.00000  Uiso   1.00
C151   C     0.46231   0.90308   0.61700   0.00000  Uiso   1.00
C152   C     0.31479   0.08800   0.83093   0.00000  Uiso   1.00
C153   C     0.26936   0.99528   0.87633   0.00000  Uiso   1.00
C154   C     0.28924   0.95157   0.89553   0.00000  Uiso   1.00
C155   C     0.24010   0.86709   0.93732   0.00000  Uiso   1.00
C156   C     0.25488   0.18285   0.85907   0.00000  Uiso   1.00
C157   C     0.26259   0.29686   0.86375   0.00000  Uiso   1.00
C158   C     0.20127   0.37029   0.89101   0.00000  Uiso   1.00
C159   C     0.33608   0.03634   0.78485   0.00000  Uiso   1.00
C160   C     0.41208   0.02718   0.72711   0.00000  Uiso   1.00
C161   C     0.41912   0.97730   0.69187   0.00000  Uiso   1.00
H162   H     0.14030   0.98512   0.88797   0.00000  Uiso   1.00
H163   H     0.10203   0.84121   0.95672   0.00000  Uiso   1.00
H164   H     0.07539   0.18644   0.92494   0.00000  Uiso   1.00
H165   H     0.22485   0.91681   0.78833   0.00000  Uiso   1.00
H166   H     0.08895   0.69900   0.02336   0.00000  Uiso   1.00
H167   H     0.03279   0.42695   0.95634   0.00000  Uiso   1.00
H168   H     0.34795   0.85838   0.66825   0.00000  Uiso   1.00
H169   H     0.36664   0.11858   0.81397   0.00000  Uiso   1.00
H170   H     0.34079   0.98198   0.87867   0.00000  Uiso   1.00
H171   H     0.31415   0.32722   0.84689   0.00000  Uiso   1.00
H172   H     0.46361   0.05758   0.71027   0.00000  Uiso   1.00
H173   H     0.28274   0.81326   0.96002   0.00000  Uiso   1.00
H174   H     0.22658   0.54122   0.89299   0.00000  Uiso   1.00
H175   H     0.54174   0.97264   0.60490   0.00000  Uiso   1.00
O176   O     0.16474   0.66389   0.03560   0.00000  Uiso   1.00
O177   O     0.09107   0.61894   0.94765   0.00000  Uiso   1.00
O178   O     0.50455   0.87298   0.56969   0.00000  Uiso   1.00
N179   N     0.13811   0.74462   0.99957   0.00000  Uiso   1.00
N180   N     0.08560   0.42521   0.93691   0.00000  Uiso   1.00
N181   N     0.38025   0.89367   0.66757   0.00000  Uiso   1.00
N182   N     0.24239   0.80610   0.96548   0.00000  Uiso   1.00
N183   N     0.18988   0.48669   0.90282   0.00000  Uiso   1.00
N184   N     0.48453   0.95515   0.63349   0.00000  Uiso   1.00
C185   C     0.69216   0.48431   0.37101   0.00000  Uiso   1.00
C186   C     0.70275   0.54400   0.39811   0.00000  Uiso   1.00
C187   C     0.65357   0.62843   0.43988   0.00000  Uiso   1.00
C188   C     0.67337   0.67225   0.45914   0.00000  Uiso   1.00
C189   C     0.67967   0.77087   0.50453   0.00000  Uiso   1.00
C190   C     0.68827   0.35643   0.38085   0.00000  Uiso   1.00
C191   C     0.62692   0.28314   0.40810   0.00000  Uiso   1.00
C192   C     0.63454   0.16906   0.41282   0.00000  Uiso   1.00
C193   C     0.61839   0.97645   0.43139   0.00000  Uiso   1.00
C194   C     0.76948   0.50294   0.30662   0.00000  Uiso   1.00
C195   C     0.77640   0.55281   0.27146   0.00000  Uiso   1.00
C196   C     0.85239   0.56205   0.21368   0.00000  Uiso   1.00
C197   C     0.96231   0.59692   0.11700   0.00000  Uiso   1.00
C198   C     0.81479   0.41200   0.33093   0.00000  Uiso   1.00
C199   C     0.76936   0.50472   0.37633   0.00000  Uiso   1.00
C200   C     0.78924   0.54843   0.39553   0.00000  Uiso   1.00
C201   C     0.74010   0.63291   0.43732   0.00000  Uiso   1.00
C202   C     0.75488   0.31715   0.35907   0.00000  Uiso   1.00
C203   C     0.76259   0.20314   0.36375   0.00000  Uiso   1.00
C204   C     0.70127   0.12971   0.39101   0.00000  Uiso   1.00
C205   C     0.83608   0.46366   0.28485   0.00000  Uiso   1.00
C206   C     0.91208   0.47282   0.22711   0.00000  Uiso   1.00
C207   C     0.91912   0.52270   0.19187   0.00000  Uiso   1.00
H208   H     0.64030   0.51488   0.38797   0.00000  Uiso   1.00
H209   H     0.60203   0.65879   0.45672   0.00000  Uiso   1.00
H210   H     0.57539   0.31356   0.42494   0.00000  Uiso   1.00
H211   H     0.72485   0.58319   0.28833   0.00000  Uiso   1.00
H212   H     0.58895   0.80100   0.52336   0.00000  Uiso   1.00
H213   H     0.53279   0.07305   0.45634   0.00000  Uiso   1.00
H214   H     0.84795   0.64162   0.16825   0.00000  Uiso   1.00
H215   H     0.86664   0.38142   0.31397   0.00000  Uiso   1.00
H216   H     0.84079   0.51802   0.37867   0.00000  Uiso   1.00
H217   H     0.81415   0.17278   0.34689   0.00000  Uiso   1.00
H218   H     0.96361   0.44242   0.21027   0.00000  Uiso   1.00
H219   H     0.78274   0.68674   0.46002   0.00000  Uiso   1.00
H220   H     0.72658   0.95878   0.39299   0.00000  Uiso   1.00
H221   H     0.04174   0.52736   0.10490   0.00000  Uiso   1.00
O222   O     0.66474   0.83611   0.53560   0.00000  Uiso   1.00
O223   O     0.59107   0.88106   0.44765   0.00000  Uiso   1.00
O224   O     0.00455   0.62702   0.06969   0.00000  Uiso   1.00
N225   N     0.63811   0.75538   0.49957   0.00000  Uiso   1.00
N226   N     0.58560   0.07479   0.43691   0.00000  Uiso   1.00
N227   N     0.88025   0.60633   0.16757   0.00000  Uiso   1.00
N228   N     0.74239   0.69390   0.46548   0.00000  Uiso   1.00
N229   N     0.68988   0.01331   0.40282   0.00000  Uiso   1.00
N230   N     0.98453   0.54485   0.13349   0.00000  Uiso   1.00
C231   C     0.19216   0.98431   0.37101   0.00000  Uiso   1.00
C232   C     0.20275   0.04400   0.39811   0.00000  Uiso   1.00
C233   C     0.15357   0.12843   0.43988   0.00000  Uiso   1.00
C234   C     0.17337   0.17225   0.45914   0.00000  Uiso   1.00
C235   C     0.17967   0.27087   0.50453   0.00000  Uiso   1.00
C236   C     0.18827   0.85643   0.38085   0.00000  Uiso   1.00
C237   C     0.12692   0.78314   0.40810   0.00000  Uiso   1.00
C238   C     0.13454   0.66906   0.41282   0.00000  Uiso   1.00
C239   C     0.11839   0.47645   0.43139   0.00000  Uiso   1.00
C240   C     0.26948   0.00294   0.30662   0.00000  Uiso   1.00
C241   C     0.27640   0.05281   0.27146   0.00000  Uiso   1.00
C242   C     0.35239   0.06205   0.21368   0.00000  Uiso   1.00
C243   C     0.46231   0.09692   0.11700   0.00000  Uiso   1.00
C244   C     0.31479   0.91200   0.33093   0.00000  Uiso   1.00
C245   C     0.26936   0.00472   0.37633   0.00000  Uiso   1.00
C246   C     0.28924   0.04843   0.39553   0.00000  Uiso   1.00
C247   C     0.24010   0.13291   0.43732   0.00000  Uiso   1.00
C248   C     0.25488   0.81715   0.35907   0.00000  Uiso   1.00
C249   C     0.26259   0.70314   0.36375   0.00000  Uiso   1.00
C250   C     0.20127   0.62971   0.39101   0.00000  Uiso   1.00
C251   C     0.33608   0.96366   0.28485   0.00000  Uiso   1.00
C252   C     0.41208   0.97282   0.22711   0.00000  Uiso   1.00
C253   C     0.41912   0.02270   0.19187   0.00000  Uiso   1.00
H254   H     0.14030   0.01488   0.38797   0.00000  Uiso   1.00
H255   H     0.10203   0.15879   0.45672   0.00000  Uiso   1.00
H256   H     0.07539   0.81356   0.42494   0.00000  Uiso   1.00
H257   H     0.22485   0.08319   0.28833   0.00000  Uiso   1.00
H258   H     0.08895   0.30100   0.52336   0.00000  Uiso   1.00
H259   H     0.03279   0.57305   0.45634   0.00000  Uiso   1.00
H260   H     0.34795   0.14162   0.16825   0.00000  Uiso   1.00
H261   H     0.36664   0.88142   0.31397   0.00000  Uiso   1.00
H262   H     0.34079   0.01802   0.37867   0.00000  Uiso   1.00
H263   H     0.31415   0.67278   0.34689   0.00000  Uiso   1.00
H264   H     0.46361   0.94242   0.21027   0.00000  Uiso   1.00
H265   H     0.28274   0.18674   0.46002   0.00000  Uiso   1.00
H266   H     0.22658   0.45878   0.39299   0.00000  Uiso   1.00
H267   H     0.54174   0.02736   0.10490   0.00000  Uiso   1.00
O268   O     0.16474   0.33611   0.53560   0.00000  Uiso   1.00
O269   O     0.09107   0.38106   0.44765   0.00000  Uiso   1.00
O270   O     0.50455   0.12702   0.06969   0.00000  Uiso   1.00
N271   N     0.13811   0.25538   0.49957   0.00000  Uiso   1.00
N272   N     0.08560   0.57479   0.43691   0.00000  Uiso   1.00
N273   N     0.38025   0.10633   0.16757   0.00000  Uiso   1.00
N274   N     0.24239   0.19390   0.46548   0.00000  Uiso   1.00
N275   N     0.18988   0.51331   0.40282   0.00000  Uiso   1.00
N276   N     0.48453   0.04485   0.13349   0.00000  Uiso   1.00
C277   C     0.30784   0.48431   0.12899   0.00000  Uiso   1.00
C278   C     0.29725   0.54400   0.10189   0.00000  Uiso   1.00
C279   C     0.34643   0.62843   0.06012   0.00000  Uiso   1.00
C280   C     0.32663   0.67225   0.04086   0.00000  Uiso   1.00
C281   C     0.32033   0.77087   0.99547   0.00000  Uiso   1.00
C282   C     0.31173   0.35643   0.11915   0.00000  Uiso   1.00
C283   C     0.37308   0.28314   0.09190   0.00000  Uiso   1.00
C284   C     0.36546   0.16906   0.08718   0.00000  Uiso   1.00
C285   C     0.38161   0.97645   0.06861   0.00000  Uiso   1.00
C286   C     0.23052   0.50294   0.19338   0.00000  Uiso   1.00
C287   C     0.22360   0.55281   0.22854   0.00000  Uiso   1.00
C288   C     0.14761   0.56205   0.28632   0.00000  Uiso   1.00
C289   C     0.03769   0.59692   0.38300   0.00000  Uiso   1.00
C290   C     0.18521   0.41200   0.16907   0.00000  Uiso   1.00
C291   C     0.23064   0.50472   0.12367   0.00000  Uiso   1.00
C292   C     0.21076   0.54843   0.10447   0.00000  Uiso   1.00
C293   C     0.25990   0.63291   0.06268   0.00000  Uiso   1.00
C294   C     0.24512   0.31715   0.14093   0.00000  Uiso   1.00
C295   C     0.23741   0.20314   0.13625   0.00000  Uiso   1.00
C296   C     0.29873   0.12971   0.10899   0.00000  Uiso   1.00
C297   C     0.16392   0.46366   0.21515   0.00000  Uiso   1.00
C298   C     0.08792   0.47282   0.27289   0.00000  Uiso   1.00
C299   C     0.08088   0.52270   0.30813   0.00000  Uiso   1.00
H300   H     0.35970   0.51488   0.11203   0.00000  Uiso   1.00
H301   H     0.39797   0.65879   0.04328   0.00000  Uiso   1.00
H302   H     0.42461   0.31356   0.07506   0.00000  Uiso   1.00
H303   H     0.27515   0.58319   0.21167   0.00000  Uiso   1.00
H304   H     0.41105   0.80100   0.97664   0.00000  Uiso   1.00
H305   H     0.46721   0.07305   0.04366   0.00000  Uiso   1.00
H306   H     0.15205   0.64162   0.33175   0.00000  Uiso   1.00
H307   H     0.13336   0.38142   0.18603   0.00000  Uiso   1.00
H308   H     0.15921   0.51802   0.12133   0.00000  Uiso   1.00
H309   H     0.18585   0.17278   0.15311   0.00000  Uiso   1.00
H310   H     0.03639   0.44242   0.28973   0.00000  Uiso   1.00
H311   H     0.21726   0.68674   0.03998   0.00000  Uiso   1.00
H312   H     0.27342   0.95878   0.10701   0.00000  Uiso   1.00
H313   H     0.95826   0.52736   0.39510   0.00000  Uiso   1.00
O314   O     0.33526   0.83611   0.96440   0.00000  Uiso   1.00
O315   O     0.40893   0.88106   0.05235   0.00000  Uiso   1.00
O316   O     0.99545   0.62702   0.43031   0.00000  Uiso   1.00
N317   N     0.36189   0.75538   0.00043   0.00000  Uiso   1.00
N318   N     0.41440   0.07479   0.06309   0.00000  Uiso   1.00
N319   N     0.11975   0.60633   0.33243   0.00000  Uiso   1.00
N320   N     0.25761   0.69390   0.03452   0.00000  Uiso   1.00
N321   N     0.31012   0.01331   0.09718   0.00000  Uiso   1.00
N322   N     0.01547   0.54485   0.36651   0.00000  Uiso   1.00
C323   C     0.80784   0.98431   0.12899   0.00000  Uiso   1.00
C324   C     0.79725   0.04400   0.10189   0.00000  Uiso   1.00
C325   C     0.84643   0.12843   0.06012   0.00000  Uiso   1.00
C326   C     0.82663   0.17225   0.04086   0.00000  Uiso   1.00
C327   C     0.82033   0.27087   0.99547   0.00000  Uiso   1.00
C328   C     0.81173   0.85643   0.11915   0.00000  Uiso   1.00
C329   C     0.87308   0.78314   0.09190   0.00000  Uiso   1.00
C330   C     0.86546   0.66906   0.08718   0.00000  Uiso   1.00
C331   C     0.88161   0.47645   0.06861   0.00000  Uiso   1.00
C332   C     0.73052   0.00294   0.19338   0.00000  Uiso   1.00
C333   C     0.72360   0.05281   0.22854   0.00000  Uiso   1.00
C334   C     0.64761   0.06205   0.28632   0.00000  Uiso   1.00
C335   C     0.53769   0.09692   0.38300   0.00000  Uiso   1.00
C336   C     0.68521   0.91200   0.16907   0.00000  Uiso   1.00
C337   C     0.73064   0.00472   0.12367   0.00000  Uiso   1.00
C338   C     0.71076   0.04843   0.10447   0.00000  Uiso   1.00
C339   C     0.75990   0.13291   0.06268   0.00000  Uiso   1.00
C340   C     0.74512   0.81715   0.14093   0.00000  Uiso   1.00
C341   C     0.73741   0.70314   0.13625   0.00000  Uiso   1.00
C342   C     0.79873   0.62971   0.10899   0.00000  Uiso   1.00
C343   C     0.66392   0.96366   0.21515   0.00000  Uiso   1.00
C344   C     0.58792   0.97282   0.27289   0.00000  Uiso   1.00
C345   C     0.58088   0.02270   0.30813   0.00000  Uiso   1.00
H346   H     0.85970   0.01488   0.11203   0.00000  Uiso   1.00
H347   H     0.89797   0.15879   0.04328   0.00000  Uiso   1.00
H348   H     0.92461   0.81356   0.07506   0.00000  Uiso   1.00
H349   H     0.77515   0.08319   0.21167   0.00000  Uiso   1.00
H350   H     0.91105   0.30100   0.97664   0.00000  Uiso   1.00
H351   H     0.96721   0.57305   0.04366   0.00000  Uiso   1.00
H352   H     0.65205   0.14162   0.33175   0.00000  Uiso   1.00
H353   H     0.63336   0.88142   0.18603   0.00000  Uiso   1.00
H354   H     0.65921   0.01802   0.12133   0.00000  Uiso   1.00
H355   H     0.68585   0.67278   0.15311   0.00000  Uiso   1.00
H356   H     0.53639   0.94242   0.28973   0.00000  Uiso   1.00
H357   H     0.71726   0.18674   0.03998   0.00000  Uiso   1.00
H358   H     0.77342   0.45878   0.10701   0.00000  Uiso   1.00
H359   H     0.45826   0.02736   0.39510   0.00000  Uiso   1.00
O360   O     0.83526   0.33611   0.96440   0.00000  Uiso   1.00
O361   O     0.90893   0.38106   0.05235   0.00000  Uiso   1.00
O362   O     0.49545   0.12702   0.43031   0.00000  Uiso   1.00
N363   N     0.86189   0.25538   0.00043   0.00000  Uiso   1.00
N364   N     0.91440   0.57479   0.06309   0.00000  Uiso   1.00
N365   N     0.61975   0.10633   0.33243   0.00000  Uiso   1.00
N366   N     0.75761   0.19390   0.03452   0.00000  Uiso   1.00
N367   N     0.81012   0.51331   0.09718   0.00000  Uiso   1.00
N368   N     0.51547   0.04485   0.36651   0.00000  Uiso   1.00
