data_job_05506
_audit_creation_date              2018-12-19
_audit_creation_method            'Materials Studio'
_symmetry_space_group_name_H-M    'P1'
_symmetry_Int_Tables_number       1
_symmetry_cell_setting            triclinic
loop_
_symmetry_equiv_pos_as_xyz
  x,y,z
_cell_length_a                    17.6749
_cell_length_b                    15.7749
_cell_length_c                    24.1933
_cell_angle_alpha                 90.0000
_cell_angle_beta                  90.0000
_cell_angle_gamma                 90.0000
loop_
_atom_site_label
_atom_site_type_symbol
_atom_site_fract_x
_atom_site_fract_y
_atom_site_fract_z
_atom_site_U_iso_or_equiv
_atom_site_adp_type
_atom_site_occupancy
C1     C     0.07056   0.62842   0.60617   0.00000  Uiso   1.00
C2     C     0.00738   0.60053   0.64505   0.00000  Uiso   1.00
C3     C     0.99776   0.51954   0.66632   0.00000  Uiso   1.00
C4     C     0.93640   0.50685   0.70118   0.00000  Uiso   1.00
C5     C     0.84586   0.45350   0.75954   0.00000  Uiso   1.00
C6     C     0.03155   0.66532   0.55536   0.00000  Uiso   1.00
C7     C     0.04227   0.63881   0.50122   0.00000  Uiso   1.00
C8     C     0.00127   0.68067   0.46059   0.00000  Uiso   1.00
C9     C     0.94830   0.72795   0.37970   0.00000  Uiso   1.00
C10    C     0.10980   0.70264   0.63461   0.00000  Uiso   1.00
C11    C     0.18631   0.70753   0.64709   0.00000  Uiso   1.00
C12    C     0.21120   0.78082   0.67316   0.00000  Uiso   1.00
C13    C     0.27972   0.88604   0.71531   0.00000  Uiso   1.00
C14    C     0.97870   0.74989   0.63026   0.00000  Uiso   1.00
C15    C     0.95748   0.66651   0.65813   0.00000  Uiso   1.00
C16    C     0.89612   0.65393   0.69297   0.00000  Uiso   1.00
C17    C     0.88641   0.57294   0.71429   0.00000  Uiso   1.00
C18    C     0.98166   0.73130   0.56844   0.00000  Uiso   1.00
C19    C     0.94063   0.77321   0.52788   0.00000  Uiso   1.00
C20    C     0.95128   0.74677   0.47369   0.00000  Uiso   1.00
C21    C     0.05990   0.76862   0.64769   0.00000  Uiso   1.00
C22    C     0.08468   0.84192   0.67374   0.00000  Uiso   1.00
C23    C     0.16121   0.84691   0.68627   0.00000  Uiso   1.00
H24    H     0.10941   0.57705   0.59598   0.00000  Uiso   1.00
H25    H     0.03638   0.46850   0.65618   0.00000  Uiso   1.00
H26    H     0.08089   0.58776   0.49111   0.00000  Uiso   1.00
H27    H     0.22491   0.65646   0.63696   0.00000  Uiso   1.00
H28    H     0.93340   0.37724   0.72868   0.00000  Uiso   1.00
H29    H     0.02727   0.62872   0.38062   0.00000  Uiso   1.00
H30    H     0.33096   0.77359   0.68816   0.00000  Uiso   1.00
H31    H     0.93985   0.80126   0.64045   0.00000  Uiso   1.00
H32    H     0.85752   0.70500   0.70309   0.00000  Uiso   1.00
H33    H     0.90203   0.82426   0.53802   0.00000  Uiso   1.00
H34    H     0.04605   0.89296   0.68386   0.00000  Uiso   1.00
H35    H     0.78822   0.56919   0.76675   0.00000  Uiso   1.00
H36    H     0.88210   0.82068   0.41869   0.00000  Uiso   1.00
H37    H     0.18579   0.96555   0.72623   0.00000  Uiso   1.00
O38    O     0.80969   0.40584   0.78810   0.00000  Uiso   1.00
O39    O     0.93286   0.73580   0.33146   0.00000  Uiso   1.00
O40    O     0.33130   0.92585   0.73495   0.00000  Uiso   1.00
N41    N     0.91054   0.43563   0.72905   0.00000  Uiso   1.00
N42    N     0.99829   0.67074   0.40363   0.00000  Uiso   1.00
N43    N     0.28223   0.80619   0.69115   0.00000  Uiso   1.00
N44    N     0.83242   0.53891   0.74953   0.00000  Uiso   1.00
N45    N     0.92018   0.77403   0.42412   0.00000  Uiso   1.00
N46    N     0.20411   0.90948   0.71163   0.00000  Uiso   1.00
C47    C     0.42944   0.37158   0.60617   0.00000  Uiso   1.00
C48    C     0.49262   0.39947   0.64505   0.00000  Uiso   1.00
C49    C     0.50224   0.48046   0.66632   0.00000  Uiso   1.00
C50    C     0.56360   0.49315   0.70118   0.00000  Uiso   1.00
C51    C     0.65414   0.54650   0.75954   0.00000  Uiso   1.00
C52    C     0.46845   0.33468   0.55536   0.00000  Uiso   1.00
C53    C     0.45773   0.36119   0.50122   0.00000  Uiso   1.00
C54    C     0.49873   0.31933   0.46059   0.00000  Uiso   1.00
C55    C     0.55170   0.27205   0.37970   0.00000  Uiso   1.00
C56    C     0.39020   0.29736   0.63461   0.00000  Uiso   1.00
C57    C     0.31369   0.29247   0.64709   0.00000  Uiso   1.00
C58    C     0.28880   0.21918   0.67316   0.00000  Uiso   1.00
C59    C     0.22028   0.11396   0.71531   0.00000  Uiso   1.00
C60    C     0.52130   0.25011   0.63026   0.00000  Uiso   1.00
C61    C     0.54252   0.33349   0.65813   0.00000  Uiso   1.00
C62    C     0.60388   0.34607   0.69297   0.00000  Uiso   1.00
C63    C     0.61359   0.42706   0.71429   0.00000  Uiso   1.00
C64    C     0.51834   0.26870   0.56844   0.00000  Uiso   1.00
C65    C     0.55937   0.22679   0.52788   0.00000  Uiso   1.00
C66    C     0.54872   0.25323   0.47369   0.00000  Uiso   1.00
C67    C     0.44010   0.23138   0.64769   0.00000  Uiso   1.00
C68    C     0.41532   0.15808   0.67374   0.00000  Uiso   1.00
C69    C     0.33879   0.15309   0.68627   0.00000  Uiso   1.00
H70    H     0.39059   0.42295   0.59598   0.00000  Uiso   1.00
H71    H     0.46362   0.53150   0.65618   0.00000  Uiso   1.00
H72    H     0.41911   0.41224   0.49111   0.00000  Uiso   1.00
H73    H     0.27509   0.34354   0.63696   0.00000  Uiso   1.00
H74    H     0.56660   0.62276   0.72868   0.00000  Uiso   1.00
H75    H     0.47273   0.37128   0.38062   0.00000  Uiso   1.00
H76    H     0.16904   0.22641   0.68816   0.00000  Uiso   1.00
H77    H     0.56015   0.19874   0.64045   0.00000  Uiso   1.00
H78    H     0.64248   0.29500   0.70309   0.00000  Uiso   1.00
H79    H     0.59797   0.17574   0.53802   0.00000  Uiso   1.00
H80    H     0.45395   0.10704   0.68386   0.00000  Uiso   1.00
H81    H     0.71178   0.43081   0.76675   0.00000  Uiso   1.00
H82    H     0.61790   0.17932   0.41869   0.00000  Uiso   1.00
H83    H     0.31421   0.03445   0.72623   0.00000  Uiso   1.00
O84    O     0.69031   0.59416   0.78810   0.00000  Uiso   1.00
O85    O     0.56714   0.26420   0.33146   0.00000  Uiso   1.00
O86    O     0.16870   0.07415   0.73495   0.00000  Uiso   1.00
N87    N     0.58946   0.56437   0.72905   0.00000  Uiso   1.00
N88    N     0.50171   0.32926   0.40363   0.00000  Uiso   1.00
N89    N     0.21777   0.19381   0.69115   0.00000  Uiso   1.00
N90    N     0.66758   0.46109   0.74953   0.00000  Uiso   1.00
N91    N     0.57982   0.22597   0.42412   0.00000  Uiso   1.00
N92    N     0.29589   0.09052   0.71163   0.00000  Uiso   1.00
C93    C     0.92944   0.62842   0.89383   0.00000  Uiso   1.00
C94    C     0.99262   0.60053   0.85495   0.00000  Uiso   1.00
C95    C     0.00224   0.51954   0.83368   0.00000  Uiso   1.00
C96    C     0.06360   0.50685   0.79882   0.00000  Uiso   1.00
C97    C     0.15414   0.45350   0.74046   0.00000  Uiso   1.00
C98    C     0.96845   0.66532   0.94464   0.00000  Uiso   1.00
C99    C     0.95773   0.63881   0.99878   0.00000  Uiso   1.00
C100   C     0.99873   0.68067   0.03941   0.00000  Uiso   1.00
C101   C     0.05170   0.72795   0.12030   0.00000  Uiso   1.00
C102   C     0.89020   0.70264   0.86539   0.00000  Uiso   1.00
C103   C     0.81369   0.70753   0.85291   0.00000  Uiso   1.00
C104   C     0.78880   0.78082   0.82684   0.00000  Uiso   1.00
C105   C     0.72028   0.88604   0.78469   0.00000  Uiso   1.00
C106   C     0.02130   0.74989   0.86974   0.00000  Uiso   1.00
C107   C     0.04252   0.66651   0.84187   0.00000  Uiso   1.00
C108   C     0.10388   0.65393   0.80703   0.00000  Uiso   1.00
C109   C     0.11359   0.57294   0.78571   0.00000  Uiso   1.00
C110   C     0.01834   0.73130   0.93156   0.00000  Uiso   1.00
C111   C     0.05937   0.77321   0.97212   0.00000  Uiso   1.00
C112   C     0.04872   0.74677   0.02631   0.00000  Uiso   1.00
C113   C     0.94010   0.76862   0.85231   0.00000  Uiso   1.00
C114   C     0.91532   0.84192   0.82626   0.00000  Uiso   1.00
C115   C     0.83879   0.84691   0.81373   0.00000  Uiso   1.00
H116   H     0.89059   0.57705   0.90402   0.00000  Uiso   1.00
H117   H     0.96362   0.46850   0.84382   0.00000  Uiso   1.00
H118   H     0.91911   0.58776   0.00889   0.00000  Uiso   1.00
H119   H     0.77509   0.65646   0.86304   0.00000  Uiso   1.00
H120   H     0.06660   0.37724   0.77132   0.00000  Uiso   1.00
H121   H     0.97273   0.62872   0.11938   0.00000  Uiso   1.00
H122   H     0.66904   0.77359   0.81184   0.00000  Uiso   1.00
H123   H     0.06015   0.80126   0.85955   0.00000  Uiso   1.00
H124   H     0.14248   0.70500   0.79691   0.00000  Uiso   1.00
H125   H     0.09797   0.82426   0.96198   0.00000  Uiso   1.00
H126   H     0.95395   0.89296   0.81614   0.00000  Uiso   1.00
H127   H     0.21178   0.56919   0.73325   0.00000  Uiso   1.00
H128   H     0.11790   0.82068   0.08131   0.00000  Uiso   1.00
H129   H     0.81421   0.96555   0.77377   0.00000  Uiso   1.00
O130   O     0.19031   0.40584   0.71190   0.00000  Uiso   1.00
O131   O     0.06714   0.73580   0.16854   0.00000  Uiso   1.00
O132   O     0.66870   0.92585   0.76505   0.00000  Uiso   1.00
N133   N     0.08946   0.43563   0.77095   0.00000  Uiso   1.00
N134   N     0.00171   0.67074   0.09637   0.00000  Uiso   1.00
N135   N     0.71777   0.80619   0.80885   0.00000  Uiso   1.00
N136   N     0.16758   0.53891   0.75047   0.00000  Uiso   1.00
N137   N     0.07982   0.77403   0.07588   0.00000  Uiso   1.00
N138   N     0.79589   0.90948   0.78837   0.00000  Uiso   1.00
C139   C     0.57056   0.37158   0.89383   0.00000  Uiso   1.00
C140   C     0.50738   0.39947   0.85495   0.00000  Uiso   1.00
C141   C     0.49776   0.48046   0.83368   0.00000  Uiso   1.00
C142   C     0.43640   0.49315   0.79882   0.00000  Uiso   1.00
C143   C     0.34586   0.54650   0.74046   0.00000  Uiso   1.00
C144   C     0.53155   0.33468   0.94464   0.00000  Uiso   1.00
C145   C     0.54227   0.36119   0.99878   0.00000  Uiso   1.00
C146   C     0.50127   0.31933   0.03941   0.00000  Uiso   1.00
C147   C     0.44830   0.27205   0.12030   0.00000  Uiso   1.00
C148   C     0.60980   0.29736   0.86539   0.00000  Uiso   1.00
C149   C     0.68631   0.29247   0.85291   0.00000  Uiso   1.00
C150   C     0.71120   0.21918   0.82684   0.00000  Uiso   1.00
C151   C     0.77972   0.11396   0.78469   0.00000  Uiso   1.00
C152   C     0.47870   0.25011   0.86974   0.00000  Uiso   1.00
C153   C     0.45748   0.33349   0.84187   0.00000  Uiso   1.00
C154   C     0.39612   0.34607   0.80703   0.00000  Uiso   1.00
C155   C     0.38641   0.42706   0.78571   0.00000  Uiso   1.00
C156   C     0.48166   0.26870   0.93156   0.00000  Uiso   1.00
C157   C     0.44063   0.22679   0.97212   0.00000  Uiso   1.00
C158   C     0.45128   0.25323   0.02631   0.00000  Uiso   1.00
C159   C     0.55990   0.23138   0.85231   0.00000  Uiso   1.00
C160   C     0.58468   0.15808   0.82626   0.00000  Uiso   1.00
C161   C     0.66121   0.15309   0.81373   0.00000  Uiso   1.00
H162   H     0.60941   0.42295   0.90402   0.00000  Uiso   1.00
H163   H     0.53638   0.53150   0.84382   0.00000  Uiso   1.00
H164   H     0.58089   0.41224   0.00889   0.00000  Uiso   1.00
H165   H     0.72491   0.34354   0.86304   0.00000  Uiso   1.00
H166   H     0.43340   0.62276   0.77132   0.00000  Uiso   1.00
H167   H     0.52727   0.37128   0.11938   0.00000  Uiso   1.00
H168   H     0.83096   0.22641   0.81184   0.00000  Uiso   1.00
H169   H     0.43985   0.19874   0.85955   0.00000  Uiso   1.00
H170   H     0.35752   0.29500   0.79691   0.00000  Uiso   1.00
H171   H     0.40203   0.17574   0.96198   0.00000  Uiso   1.00
H172   H     0.54605   0.10704   0.81614   0.00000  Uiso   1.00
H173   H     0.28822   0.43081   0.73325   0.00000  Uiso   1.00
H174   H     0.38210   0.17932   0.08131   0.00000  Uiso   1.00
H175   H     0.68579   0.03445   0.77377   0.00000  Uiso   1.00
O176   O     0.30969   0.59416   0.71190   0.00000  Uiso   1.00
O177   O     0.43286   0.26420   0.16854   0.00000  Uiso   1.00
O178   O     0.83130   0.07415   0.76505   0.00000  Uiso   1.00
N179   N     0.41054   0.56437   0.77095   0.00000  Uiso   1.00
N180   N     0.49829   0.32926   0.09637   0.00000  Uiso   1.00
N181   N     0.78223   0.19381   0.80885   0.00000  Uiso   1.00
N182   N     0.33242   0.46109   0.75047   0.00000  Uiso   1.00
N183   N     0.42018   0.22597   0.07588   0.00000  Uiso   1.00
N184   N     0.70411   0.09052   0.78837   0.00000  Uiso   1.00
C185   C     0.92944   0.37158   0.39383   0.00000  Uiso   1.00
C186   C     0.99262   0.39947   0.35495   0.00000  Uiso   1.00
C187   C     0.00224   0.48046   0.33368   0.00000  Uiso   1.00
C188   C     0.06360   0.49315   0.29882   0.00000  Uiso   1.00
C189   C     0.15414   0.54650   0.24046   0.00000  Uiso   1.00
C190   C     0.96845   0.33468   0.44464   0.00000  Uiso   1.00
C191   C     0.95773   0.36119   0.49878   0.00000  Uiso   1.00
C192   C     0.99873   0.31933   0.53941   0.00000  Uiso   1.00
C193   C     0.05170   0.27205   0.62030   0.00000  Uiso   1.00
C194   C     0.89020   0.29736   0.36539   0.00000  Uiso   1.00
C195   C     0.81369   0.29247   0.35291   0.00000  Uiso   1.00
C196   C     0.78880   0.21918   0.32684   0.00000  Uiso   1.00
C197   C     0.72028   0.11396   0.28469   0.00000  Uiso   1.00
C198   C     0.02130   0.25011   0.36974   0.00000  Uiso   1.00
C199   C     0.04252   0.33349   0.34187   0.00000  Uiso   1.00
C200   C     0.10388   0.34607   0.30703   0.00000  Uiso   1.00
C201   C     0.11359   0.42706   0.28571   0.00000  Uiso   1.00
C202   C     0.01834   0.26870   0.43156   0.00000  Uiso   1.00
C203   C     0.05937   0.22679   0.47212   0.00000  Uiso   1.00
C204   C     0.04872   0.25323   0.52631   0.00000  Uiso   1.00
C205   C     0.94010   0.23138   0.35231   0.00000  Uiso   1.00
C206   C     0.91532   0.15808   0.32626   0.00000  Uiso   1.00
C207   C     0.83879   0.15309   0.31373   0.00000  Uiso   1.00
H208   H     0.89059   0.42295   0.40402   0.00000  Uiso   1.00
H209   H     0.96362   0.53150   0.34382   0.00000  Uiso   1.00
H210   H     0.91911   0.41224   0.50889   0.00000  Uiso   1.00
H211   H     0.77509   0.34354   0.36304   0.00000  Uiso   1.00
H212   H     0.06660   0.62276   0.27132   0.00000  Uiso   1.00
H213   H     0.97273   0.37128   0.61938   0.00000  Uiso   1.00
H214   H     0.66904   0.22641   0.31184   0.00000  Uiso   1.00
H215   H     0.06015   0.19874   0.35955   0.00000  Uiso   1.00
H216   H     0.14248   0.29500   0.29691   0.00000  Uiso   1.00
H217   H     0.09797   0.17574   0.46198   0.00000  Uiso   1.00
H218   H     0.95395   0.10704   0.31614   0.00000  Uiso   1.00
H219   H     0.21178   0.43081   0.23325   0.00000  Uiso   1.00
H220   H     0.11790   0.17932   0.58131   0.00000  Uiso   1.00
H221   H     0.81421   0.03445   0.27377   0.00000  Uiso   1.00
O222   O     0.19031   0.59416   0.21190   0.00000  Uiso   1.00
O223   O     0.06714   0.26420   0.66854   0.00000  Uiso   1.00
O224   O     0.66870   0.07415   0.26505   0.00000  Uiso   1.00
N225   N     0.08946   0.56437   0.27095   0.00000  Uiso   1.00
N226   N     0.00171   0.32926   0.59637   0.00000  Uiso   1.00
N227   N     0.71777   0.19381   0.30885   0.00000  Uiso   1.00
N228   N     0.16758   0.46109   0.25047   0.00000  Uiso   1.00
N229   N     0.07982   0.22597   0.57588   0.00000  Uiso   1.00
N230   N     0.79589   0.09052   0.28837   0.00000  Uiso   1.00
C231   C     0.57056   0.62842   0.39383   0.00000  Uiso   1.00
C232   C     0.50738   0.60053   0.35495   0.00000  Uiso   1.00
C233   C     0.49776   0.51954   0.33368   0.00000  Uiso   1.00
C234   C     0.43640   0.50685   0.29882   0.00000  Uiso   1.00
C235   C     0.34586   0.45350   0.24046   0.00000  Uiso   1.00
C236   C     0.53155   0.66532   0.44464   0.00000  Uiso   1.00
C237   C     0.54227   0.63881   0.49878   0.00000  Uiso   1.00
C238   C     0.50127   0.68067   0.53941   0.00000  Uiso   1.00
C239   C     0.44830   0.72795   0.62030   0.00000  Uiso   1.00
C240   C     0.60980   0.70264   0.36539   0.00000  Uiso   1.00
C241   C     0.68631   0.70753   0.35291   0.00000  Uiso   1.00
C242   C     0.71120   0.78082   0.32684   0.00000  Uiso   1.00
C243   C     0.77972   0.88604   0.28469   0.00000  Uiso   1.00
C244   C     0.47870   0.74989   0.36974   0.00000  Uiso   1.00
C245   C     0.45748   0.66651   0.34187   0.00000  Uiso   1.00
C246   C     0.39612   0.65393   0.30703   0.00000  Uiso   1.00
C247   C     0.38641   0.57294   0.28571   0.00000  Uiso   1.00
C248   C     0.48166   0.73130   0.43156   0.00000  Uiso   1.00
C249   C     0.44063   0.77321   0.47212   0.00000  Uiso   1.00
C250   C     0.45128   0.74677   0.52631   0.00000  Uiso   1.00
C251   C     0.55990   0.76862   0.35231   0.00000  Uiso   1.00
C252   C     0.58468   0.84192   0.32626   0.00000  Uiso   1.00
C253   C     0.66121   0.84691   0.31373   0.00000  Uiso   1.00
H254   H     0.60941   0.57705   0.40402   0.00000  Uiso   1.00
H255   H     0.53638   0.46850   0.34382   0.00000  Uiso   1.00
H256   H     0.58089   0.58776   0.50889   0.00000  Uiso   1.00
H257   H     0.72491   0.65646   0.36304   0.00000  Uiso   1.00
H258   H     0.43340   0.37724   0.27132   0.00000  Uiso   1.00
H259   H     0.52727   0.62872   0.61938   0.00000  Uiso   1.00
H260   H     0.83096   0.77359   0.31184   0.00000  Uiso   1.00
H261   H     0.43985   0.80126   0.35955   0.00000  Uiso   1.00
H262   H     0.35752   0.70500   0.29691   0.00000  Uiso   1.00
H263   H     0.40203   0.82426   0.46198   0.00000  Uiso   1.00
H264   H     0.54605   0.89296   0.31614   0.00000  Uiso   1.00
H265   H     0.28822   0.56919   0.23325   0.00000  Uiso   1.00
H266   H     0.38210   0.82068   0.58131   0.00000  Uiso   1.00
H267   H     0.68579   0.96555   0.27377   0.00000  Uiso   1.00
O268   O     0.30969   0.40584   0.21190   0.00000  Uiso   1.00
O269   O     0.43286   0.73580   0.66854   0.00000  Uiso   1.00
O270   O     0.83130   0.92585   0.26505   0.00000  Uiso   1.00
N271   N     0.41054   0.43563   0.27095   0.00000  Uiso   1.00
N272   N     0.49829   0.67074   0.59637   0.00000  Uiso   1.00
N273   N     0.78223   0.80619   0.30885   0.00000  Uiso   1.00
N274   N     0.33242   0.53891   0.25047   0.00000  Uiso   1.00
N275   N     0.42018   0.77403   0.57588   0.00000  Uiso   1.00
N276   N     0.70411   0.90948   0.28837   0.00000  Uiso   1.00
C277   C     0.07056   0.37158   0.10617   0.00000  Uiso   1.00
C278   C     0.00738   0.39947   0.14505   0.00000  Uiso   1.00
C279   C     0.99776   0.48046   0.16632   0.00000  Uiso   1.00
C280   C     0.93640   0.49315   0.20118   0.00000  Uiso   1.00
C281   C     0.84586   0.54650   0.25954   0.00000  Uiso   1.00
C282   C     0.03155   0.33468   0.05536   0.00000  Uiso   1.00
C283   C     0.04227   0.36119   0.00122   0.00000  Uiso   1.00
C284   C     0.00127   0.31933   0.96059   0.00000  Uiso   1.00
C285   C     0.94830   0.27205   0.87970   0.00000  Uiso   1.00
C286   C     0.10980   0.29736   0.13461   0.00000  Uiso   1.00
C287   C     0.18631   0.29247   0.14709   0.00000  Uiso   1.00
C288   C     0.21120   0.21918   0.17316   0.00000  Uiso   1.00
C289   C     0.27972   0.11396   0.21531   0.00000  Uiso   1.00
C290   C     0.97870   0.25011   0.13026   0.00000  Uiso   1.00
C291   C     0.95748   0.33349   0.15813   0.00000  Uiso   1.00
C292   C     0.89612   0.34607   0.19297   0.00000  Uiso   1.00
C293   C     0.88641   0.42706   0.21429   0.00000  Uiso   1.00
C294   C     0.98166   0.26870   0.06844   0.00000  Uiso   1.00
C295   C     0.94063   0.22679   0.02788   0.00000  Uiso   1.00
C296   C     0.95128   0.25323   0.97369   0.00000  Uiso   1.00
C297   C     0.05990   0.23138   0.14769   0.00000  Uiso   1.00
C298   C     0.08468   0.15808   0.17374   0.00000  Uiso   1.00
C299   C     0.16121   0.15309   0.18627   0.00000  Uiso   1.00
H300   H     0.10941   0.42295   0.09598   0.00000  Uiso   1.00
H301   H     0.03638   0.53150   0.15618   0.00000  Uiso   1.00
H302   H     0.08089   0.41224   0.99111   0.00000  Uiso   1.00
H303   H     0.22491   0.34354   0.13696   0.00000  Uiso   1.00
H304   H     0.93340   0.62276   0.22868   0.00000  Uiso   1.00
H305   H     0.02727   0.37128   0.88062   0.00000  Uiso   1.00
H306   H     0.33096   0.22641   0.18816   0.00000  Uiso   1.00
H307   H     0.93985   0.19874   0.14045   0.00000  Uiso   1.00
H308   H     0.85752   0.29500   0.20309   0.00000  Uiso   1.00
H309   H     0.90203   0.17574   0.03802   0.00000  Uiso   1.00
H310   H     0.04605   0.10704   0.18386   0.00000  Uiso   1.00
H311   H     0.78822   0.43081   0.26675   0.00000  Uiso   1.00
H312   H     0.88210   0.17932   0.91869   0.00000  Uiso   1.00
H313   H     0.18579   0.03445   0.22623   0.00000  Uiso   1.00
O314   O     0.80969   0.59416   0.28810   0.00000  Uiso   1.00
O315   O     0.93286   0.26420   0.83146   0.00000  Uiso   1.00
O316   O     0.33130   0.07415   0.23495   0.00000  Uiso   1.00
N317   N     0.91054   0.56437   0.22905   0.00000  Uiso   1.00
N318   N     0.99829   0.32926   0.90363   0.00000  Uiso   1.00
N319   N     0.28223   0.19381   0.19115   0.00000  Uiso   1.00
N320   N     0.83242   0.46109   0.24953   0.00000  Uiso   1.00
N321   N     0.92018   0.22597   0.92412   0.00000  Uiso   1.00
N322   N     0.20411   0.09052   0.21163   0.00000  Uiso   1.00
C323   C     0.42944   0.62842   0.10617   0.00000  Uiso   1.00
C324   C     0.49262   0.60053   0.14505   0.00000  Uiso   1.00
C325   C     0.50224   0.51954   0.16632   0.00000  Uiso   1.00
C326   C     0.56360   0.50685   0.20118   0.00000  Uiso   1.00
C327   C     0.65414   0.45350   0.25954   0.00000  Uiso   1.00
C328   C     0.46845   0.66532   0.05536   0.00000  Uiso   1.00
C329   C     0.45773   0.63881   0.00122   0.00000  Uiso   1.00
C330   C     0.49873   0.68067   0.96059   0.00000  Uiso   1.00
C331   C     0.55170   0.72795   0.87970   0.00000  Uiso   1.00
C332   C     0.39020   0.70264   0.13461   0.00000  Uiso   1.00
C333   C     0.31369   0.70753   0.14709   0.00000  Uiso   1.00
C334   C     0.28880   0.78082   0.17316   0.00000  Uiso   1.00
C335   C     0.22028   0.88604   0.21531   0.00000  Uiso   1.00
C336   C     0.52130   0.74989   0.13026   0.00000  Uiso   1.00
C337   C     0.54252   0.66651   0.15813   0.00000  Uiso   1.00
C338   C     0.60388   0.65393   0.19297   0.00000  Uiso   1.00
C339   C     0.61359   0.57294   0.21429   0.00000  Uiso   1.00
C340   C     0.51834   0.73130   0.06844   0.00000  Uiso   1.00
C341   C     0.55937   0.77321   0.02788   0.00000  Uiso   1.00
C342   C     0.54872   0.74677   0.97369   0.00000  Uiso   1.00
C343   C     0.44010   0.76862   0.14769   0.00000  Uiso   1.00
C344   C     0.41532   0.84192   0.17374   0.00000  Uiso   1.00
C345   C     0.33879   0.84691   0.18627   0.00000  Uiso   1.00
H346   H     0.39059   0.57705   0.09598   0.00000  Uiso   1.00
H347   H     0.46362   0.46850   0.15618   0.00000  Uiso   1.00
H348   H     0.41911   0.58776   0.99111   0.00000  Uiso   1.00
H349   H     0.27509   0.65646   0.13696   0.00000  Uiso   1.00
H350   H     0.56660   0.37724   0.22868   0.00000  Uiso   1.00
H351   H     0.47273   0.62872   0.88062   0.00000  Uiso   1.00
H352   H     0.16904   0.77359   0.18816   0.00000  Uiso   1.00
H353   H     0.56015   0.80126   0.14045   0.00000  Uiso   1.00
H354   H     0.64248   0.70500   0.20309   0.00000  Uiso   1.00
H355   H     0.59797   0.82426   0.03802   0.00000  Uiso   1.00
H356   H     0.45395   0.89296   0.18386   0.00000  Uiso   1.00
H357   H     0.71178   0.56919   0.26675   0.00000  Uiso   1.00
H358   H     0.61790   0.82068   0.91869   0.00000  Uiso   1.00
H359   H     0.31421   0.96555   0.22623   0.00000  Uiso   1.00
O360   O     0.69031   0.40584   0.28810   0.00000  Uiso   1.00
O361   O     0.56714   0.73580   0.83146   0.00000  Uiso   1.00
O362   O     0.16870   0.92585   0.23495   0.00000  Uiso   1.00
N363   N     0.58946   0.43563   0.22905   0.00000  Uiso   1.00
N364   N     0.50171   0.67074   0.90363   0.00000  Uiso   1.00
N365   N     0.21777   0.80619   0.19115   0.00000  Uiso   1.00
N366   N     0.66758   0.53891   0.24953   0.00000  Uiso   1.00
N367   N     0.57982   0.77403   0.92412   0.00000  Uiso   1.00
N368   N     0.29589   0.90948   0.21163   0.00000  Uiso   1.00
