data_job_00753
_audit_creation_date              2018-12-19
_audit_creation_method            'Materials Studio'
_symmetry_space_group_name_H-M    'P1'
_symmetry_Int_Tables_number       1
_symmetry_cell_setting            triclinic
loop_
_symmetry_equiv_pos_as_xyz
  x,y,z
_cell_length_a                    18.9966
_cell_length_b                    11.6955
_cell_length_c                    12.6737
_cell_angle_alpha                 90.0000
_cell_angle_beta                  104.6840
_cell_angle_gamma                 90.0000
loop_
_atom_site_label
_atom_site_type_symbol
_atom_site_fract_x
_atom_site_fract_y
_atom_site_fract_z
_atom_site_U_iso_or_equiv
_atom_site_adp_type
_atom_site_occupancy
C1     C     0.83394   0.21431   0.44282   0.00000  Uiso   1.00
C2     C     0.80764   0.10956   0.37217   0.00000  Uiso   1.00
C3     C     0.82581   0.08224   0.27583   0.00000  Uiso   1.00
C4     C     0.79611   0.98267   0.22327   0.00000  Uiso   1.00
C5     C     0.76228   0.83064   0.10710   0.00000  Uiso   1.00
C6     C     0.76555   0.27664   0.45341   0.00000  Uiso   1.00
C7     C     0.74835   0.38982   0.42539   0.00000  Uiso   1.00
C8     C     0.68322   0.43090   0.44123   0.00000  Uiso   1.00
C9     C     0.58408   0.53831   0.45127   0.00000  Uiso   1.00
C10    C     0.87032   0.16884   0.55631   0.00000  Uiso   1.00
C11    C     0.94119   0.19140   0.61481   0.00000  Uiso   1.00
C12    C     0.96427   0.14175   0.71730   0.00000  Uiso   1.00
C13    C     0.02778   0.08177   0.88709   0.00000  Uiso   1.00
C14    C     0.74888   0.08605   0.52080   0.00000  Uiso   1.00
C15    C     0.76144   0.03989   0.41453   0.00000  Uiso   1.00
C16    C     0.73171   0.94033   0.36211   0.00000  Uiso   1.00
C17    C     0.74983   0.91288   0.26570   0.00000  Uiso   1.00
C18    C     0.71935   0.20698   0.49577   0.00000  Uiso   1.00
C19    C     0.65424   0.24791   0.51167   0.00000  Uiso   1.00
C20    C     0.63694   0.36112   0.48367   0.00000  Uiso   1.00
C21    C     0.82412   0.09917   0.59867   0.00000  Uiso   1.00
C22    C     0.84708   0.04949   0.70109   0.00000  Uiso   1.00
C23    C     0.91798   0.07196   0.75973   0.00000  Uiso   1.00
H24    H     0.86990   0.26855   0.40984   0.00000  Uiso   1.00
H25    H     0.86156   0.13618   0.24307   0.00000  Uiso   1.00
H26    H     0.78411   0.44371   0.39262   0.00000  Uiso   1.00
H27    H     0.97693   0.24532   0.58201   0.00000  Uiso   1.00
H28    H     0.83192   0.95872   0.07683   0.00000  Uiso   1.00
H29    H     0.66863   0.60718   0.39220   0.00000  Uiso   1.00
H30    H     0.07522   0.18883   0.79156   0.00000  Uiso   1.00
H31    H     0.71291   0.03181   0.55378   0.00000  Uiso   1.00
H32    H     0.69595   0.88644   0.39491   0.00000  Uiso   1.00
H33    H     0.61850   0.19398   0.54445   0.00000  Uiso   1.00
H34    H     0.81132   0.99558   0.73384   0.00000  Uiso   1.00
H35    H     0.69750   0.75603   0.20006   0.00000  Uiso   1.00
H36    H     0.53421   0.40449   0.51544   0.00000  Uiso   1.00
H37    H     0.94080   0.98613   0.91480   0.00000  Uiso   1.00
O38    O     0.75637   0.76604   0.03132   0.00000  Uiso   1.00
O39    O     0.54215   0.61679   0.44509   0.00000  Uiso   1.00
O40    O     0.07558   0.06792   0.96904   0.00000  Uiso   1.00
N41    N     0.80263   0.93096   0.12765   0.00000  Uiso   1.00
N42    N     0.64995   0.53722   0.42248   0.00000  Uiso   1.00
N43    N     0.03007   0.14612   0.79587   0.00000  Uiso   1.00
N44    N     0.73030   0.82189   0.19396   0.00000  Uiso   1.00
N45    N     0.57762   0.42815   0.48879   0.00000  Uiso   1.00
N46    N     0.95774   0.03705   0.86218   0.00000  Uiso   1.00
C47    C     0.16606   0.71431   0.05718   0.00000  Uiso   1.00
C48    C     0.19236   0.60956   0.12783   0.00000  Uiso   1.00
C49    C     0.17419   0.58224   0.22417   0.00000  Uiso   1.00
C50    C     0.20389   0.48267   0.27673   0.00000  Uiso   1.00
C51    C     0.23772   0.33064   0.39290   0.00000  Uiso   1.00
C52    C     0.23445   0.77664   0.04659   0.00000  Uiso   1.00
C53    C     0.25165   0.88982   0.07461   0.00000  Uiso   1.00
C54    C     0.31678   0.93090   0.05877   0.00000  Uiso   1.00
C55    C     0.41592   0.03831   0.04873   0.00000  Uiso   1.00
C56    C     0.12968   0.66884   0.94369   0.00000  Uiso   1.00
C57    C     0.05881   0.69140   0.88519   0.00000  Uiso   1.00
C58    C     0.03573   0.64175   0.78270   0.00000  Uiso   1.00
C59    C     0.97222   0.58177   0.61291   0.00000  Uiso   1.00
C60    C     0.25112   0.58605   0.97920   0.00000  Uiso   1.00
C61    C     0.23856   0.53989   0.08547   0.00000  Uiso   1.00
C62    C     0.26829   0.44033   0.13789   0.00000  Uiso   1.00
C63    C     0.25017   0.41288   0.23430   0.00000  Uiso   1.00
C64    C     0.28065   0.70698   0.00423   0.00000  Uiso   1.00
C65    C     0.34576   0.74791   0.98833   0.00000  Uiso   1.00
C66    C     0.36306   0.86112   0.01633   0.00000  Uiso   1.00
C67    C     0.17588   0.59917   0.90133   0.00000  Uiso   1.00
C68    C     0.15292   0.54949   0.79891   0.00000  Uiso   1.00
C69    C     0.08202   0.57196   0.74027   0.00000  Uiso   1.00
H70    H     0.13010   0.76855   0.09016   0.00000  Uiso   1.00
H71    H     0.13844   0.63618   0.25693   0.00000  Uiso   1.00
H72    H     0.21589   0.94371   0.10738   0.00000  Uiso   1.00
H73    H     0.02307   0.74532   0.91799   0.00000  Uiso   1.00
H74    H     0.16808   0.45872   0.42317   0.00000  Uiso   1.00
H75    H     0.33137   0.10718   0.10780   0.00000  Uiso   1.00
H76    H     0.92478   0.68883   0.70844   0.00000  Uiso   1.00
H77    H     0.28709   0.53181   0.94622   0.00000  Uiso   1.00
H78    H     0.30405   0.38644   0.10509   0.00000  Uiso   1.00
H79    H     0.38150   0.69398   0.95555   0.00000  Uiso   1.00
H80    H     0.18868   0.49558   0.76616   0.00000  Uiso   1.00
H81    H     0.30250   0.25603   0.29994   0.00000  Uiso   1.00
H82    H     0.46579   0.90449   0.98456   0.00000  Uiso   1.00
H83    H     0.05920   0.48613   0.58520   0.00000  Uiso   1.00
O84    O     0.24363   0.26604   0.46868   0.00000  Uiso   1.00
O85    O     0.45785   0.11679   0.05491   0.00000  Uiso   1.00
O86    O     0.92442   0.56792   0.53096   0.00000  Uiso   1.00
N87    N     0.19737   0.43096   0.37235   0.00000  Uiso   1.00
N88    N     0.35005   0.03722   0.07752   0.00000  Uiso   1.00
N89    N     0.96993   0.64612   0.70413   0.00000  Uiso   1.00
N90    N     0.26970   0.32189   0.30604   0.00000  Uiso   1.00
N91    N     0.42238   0.92815   0.01121   0.00000  Uiso   1.00
N92    N     0.04226   0.53705   0.63782   0.00000  Uiso   1.00
C93    C     0.16606   0.78569   0.55718   0.00000  Uiso   1.00
C94    C     0.19236   0.89044   0.62783   0.00000  Uiso   1.00
C95    C     0.17419   0.91776   0.72417   0.00000  Uiso   1.00
C96    C     0.20389   0.01733   0.77673   0.00000  Uiso   1.00
C97    C     0.23772   0.16936   0.89290   0.00000  Uiso   1.00
C98    C     0.23445   0.72336   0.54659   0.00000  Uiso   1.00
C99    C     0.25165   0.61018   0.57461   0.00000  Uiso   1.00
C100   C     0.31678   0.56910   0.55877   0.00000  Uiso   1.00
C101   C     0.41592   0.46169   0.54873   0.00000  Uiso   1.00
C102   C     0.12968   0.83116   0.44369   0.00000  Uiso   1.00
C103   C     0.05881   0.80860   0.38519   0.00000  Uiso   1.00
C104   C     0.03573   0.85825   0.28270   0.00000  Uiso   1.00
C105   C     0.97222   0.91823   0.11291   0.00000  Uiso   1.00
C106   C     0.25112   0.91395   0.47920   0.00000  Uiso   1.00
C107   C     0.23856   0.96011   0.58547   0.00000  Uiso   1.00
C108   C     0.26829   0.05967   0.63789   0.00000  Uiso   1.00
C109   C     0.25017   0.08712   0.73430   0.00000  Uiso   1.00
C110   C     0.28065   0.79302   0.50423   0.00000  Uiso   1.00
C111   C     0.34576   0.75209   0.48833   0.00000  Uiso   1.00
C112   C     0.36306   0.63888   0.51633   0.00000  Uiso   1.00
C113   C     0.17588   0.90083   0.40133   0.00000  Uiso   1.00
C114   C     0.15292   0.95051   0.29891   0.00000  Uiso   1.00
C115   C     0.08202   0.92804   0.24027   0.00000  Uiso   1.00
H116   H     0.13010   0.73145   0.59016   0.00000  Uiso   1.00
H117   H     0.13844   0.86382   0.75693   0.00000  Uiso   1.00
H118   H     0.21589   0.55629   0.60738   0.00000  Uiso   1.00
H119   H     0.02307   0.75468   0.41799   0.00000  Uiso   1.00
H120   H     0.16808   0.04128   0.92317   0.00000  Uiso   1.00
H121   H     0.33137   0.39282   0.60780   0.00000  Uiso   1.00
H122   H     0.92478   0.81117   0.20844   0.00000  Uiso   1.00
H123   H     0.28709   0.96819   0.44622   0.00000  Uiso   1.00
H124   H     0.30405   0.11356   0.60509   0.00000  Uiso   1.00
H125   H     0.38150   0.80602   0.45555   0.00000  Uiso   1.00
H126   H     0.18868   0.00442   0.26616   0.00000  Uiso   1.00
H127   H     0.30250   0.24397   0.79994   0.00000  Uiso   1.00
H128   H     0.46579   0.59551   0.48456   0.00000  Uiso   1.00
H129   H     0.05920   0.01387   0.08520   0.00000  Uiso   1.00
O130   O     0.24363   0.23396   0.96868   0.00000  Uiso   1.00
O131   O     0.45785   0.38321   0.55491   0.00000  Uiso   1.00
O132   O     0.92442   0.93208   0.03096   0.00000  Uiso   1.00
N133   N     0.19737   0.06904   0.87235   0.00000  Uiso   1.00
N134   N     0.35005   0.46278   0.57752   0.00000  Uiso   1.00
N135   N     0.96993   0.85388   0.20413   0.00000  Uiso   1.00
N136   N     0.26970   0.17811   0.80604   0.00000  Uiso   1.00
N137   N     0.42238   0.57185   0.51121   0.00000  Uiso   1.00
N138   N     0.04226   0.96295   0.13782   0.00000  Uiso   1.00
C139   C     0.83394   0.28569   0.94282   0.00000  Uiso   1.00
C140   C     0.80764   0.39044   0.87217   0.00000  Uiso   1.00
C141   C     0.82581   0.41776   0.77583   0.00000  Uiso   1.00
C142   C     0.79611   0.51733   0.72327   0.00000  Uiso   1.00
C143   C     0.76228   0.66936   0.60710   0.00000  Uiso   1.00
C144   C     0.76555   0.22336   0.95341   0.00000  Uiso   1.00
C145   C     0.74835   0.11018   0.92539   0.00000  Uiso   1.00
C146   C     0.68322   0.06910   0.94123   0.00000  Uiso   1.00
C147   C     0.58408   0.96169   0.95127   0.00000  Uiso   1.00
C148   C     0.87032   0.33116   0.05631   0.00000  Uiso   1.00
C149   C     0.94119   0.30860   0.11481   0.00000  Uiso   1.00
C150   C     0.96427   0.35825   0.21730   0.00000  Uiso   1.00
C151   C     0.02778   0.41823   0.38709   0.00000  Uiso   1.00
C152   C     0.74888   0.41395   0.02080   0.00000  Uiso   1.00
C153   C     0.76144   0.46011   0.91453   0.00000  Uiso   1.00
C154   C     0.73171   0.55967   0.86211   0.00000  Uiso   1.00
C155   C     0.74983   0.58712   0.76570   0.00000  Uiso   1.00
C156   C     0.71935   0.29302   0.99577   0.00000  Uiso   1.00
C157   C     0.65424   0.25209   0.01167   0.00000  Uiso   1.00
C158   C     0.63694   0.13888   0.98367   0.00000  Uiso   1.00
C159   C     0.82412   0.40083   0.09867   0.00000  Uiso   1.00
C160   C     0.84708   0.45051   0.20109   0.00000  Uiso   1.00
C161   C     0.91798   0.42804   0.25973   0.00000  Uiso   1.00
H162   H     0.86990   0.23145   0.90984   0.00000  Uiso   1.00
H163   H     0.86156   0.36382   0.74307   0.00000  Uiso   1.00
H164   H     0.78411   0.05629   0.89262   0.00000  Uiso   1.00
H165   H     0.97693   0.25468   0.08201   0.00000  Uiso   1.00
H166   H     0.83192   0.54128   0.57683   0.00000  Uiso   1.00
H167   H     0.66863   0.89282   0.89220   0.00000  Uiso   1.00
H168   H     0.07522   0.31117   0.29156   0.00000  Uiso   1.00
H169   H     0.71291   0.46819   0.05378   0.00000  Uiso   1.00
H170   H     0.69595   0.61356   0.89491   0.00000  Uiso   1.00
H171   H     0.61850   0.30602   0.04445   0.00000  Uiso   1.00
H172   H     0.81132   0.50442   0.23384   0.00000  Uiso   1.00
H173   H     0.69750   0.74397   0.70006   0.00000  Uiso   1.00
H174   H     0.53421   0.09551   0.01544   0.00000  Uiso   1.00
H175   H     0.94080   0.51387   0.41480   0.00000  Uiso   1.00
O176   O     0.75637   0.73396   0.53132   0.00000  Uiso   1.00
O177   O     0.54215   0.88321   0.94509   0.00000  Uiso   1.00
O178   O     0.07558   0.43208   0.46904   0.00000  Uiso   1.00
N179   N     0.80263   0.56904   0.62765   0.00000  Uiso   1.00
N180   N     0.64995   0.96278   0.92248   0.00000  Uiso   1.00
N181   N     0.03007   0.35388   0.29587   0.00000  Uiso   1.00
N182   N     0.73030   0.67811   0.69396   0.00000  Uiso   1.00
N183   N     0.57762   0.07185   0.98879   0.00000  Uiso   1.00
N184   N     0.95774   0.46295   0.36218   0.00000  Uiso   1.00
