data_job_07032
_audit_creation_date              2018-12-19
_audit_creation_method            'Materials Studio'
_symmetry_space_group_name_H-M    'P1'
_symmetry_Int_Tables_number       1
_symmetry_cell_setting            triclinic
loop_
_symmetry_equiv_pos_as_xyz
  x,y,z
_cell_length_a                    22.8032
_cell_length_b                    22.8430
_cell_length_c                    23.9913
_cell_angle_alpha                 69.9590
_cell_angle_beta                  94.5707
_cell_angle_gamma                 60.4432
loop_
_atom_site_label
_atom_site_type_symbol
_atom_site_fract_x
_atom_site_fract_y
_atom_site_fract_z
_atom_site_U_iso_or_equiv
_atom_site_adp_type
_atom_site_occupancy
C1     C     0.77001   0.99372   0.55562   0.00000  Uiso   1.00
C2     C     0.74895   0.93875   0.58352   0.00000  Uiso   1.00
C3     C     0.69242   0.94073   0.55450   0.00000  Uiso   1.00
C4     C     0.68196   0.88543   0.58783   0.00000  Uiso   1.00
C5     C     0.64247   0.80851   0.62200   0.00000  Uiso   1.00
C6     C     0.77025   0.02632   0.60142   0.00000  Uiso   1.00
C7     C     0.73165   0.10192   0.58745   0.00000  Uiso   1.00
C8     C     0.73913   0.12032   0.63584   0.00000  Uiso   1.00
C9     C     0.73276   0.17934   0.69780   0.00000  Uiso   1.00
C10    C     0.84697   0.94638   0.55785   0.00000  Uiso   1.00
C11    C     0.87288   0.95479   0.50725   0.00000  Uiso   1.00
C12    C     0.94495   0.90590   0.51897   0.00000  Uiso   1.00
C13    C     0.05769   0.84081   0.51328   0.00000  Uiso   1.00
C14    C     0.85194   0.89198   0.66641   0.00000  Uiso   1.00
C15    C     0.79345   0.88349   0.64370   0.00000  Uiso   1.00
C16    C     0.78308   0.82817   0.67707   0.00000  Uiso   1.00
C17    C     0.72655   0.83007   0.64811   0.00000  Uiso   1.00
C18    C     0.81475   0.97106   0.66159   0.00000  Uiso   1.00
C19    C     0.82230   0.98936   0.71002   0.00000  Uiso   1.00
C20    C     0.78372   0.06496   0.69613   0.00000  Uiso   1.00
C21    C     0.89148   0.89112   0.61803   0.00000  Uiso   1.00
C22    C     0.96353   0.84222   0.62983   0.00000  Uiso   1.00
C23    C     0.98954   0.85054   0.57925   0.00000  Uiso   1.00
H24    H     0.73536   0.03675   0.50877   0.00000  Uiso   1.00
H25    H     0.65799   0.98351   0.50793   0.00000  Uiso   1.00
H26    H     0.69722   0.14467   0.54087   0.00000  Uiso   1.00
H27    H     0.83842   0.99756   0.46069   0.00000  Uiso   1.00
H28    H     0.59182   0.90014   0.53355   0.00000  Uiso   1.00
H29    H     0.67456   0.23995   0.60300   0.00000  Uiso   1.00
H30    H     0.97231   0.92973   0.43392   0.00000  Uiso   1.00
H31    H     0.88659   0.84896   0.71326   0.00000  Uiso   1.00
H32    H     0.81752   0.78541   0.72364   0.00000  Uiso   1.00
H33    H     0.85675   0.94658   0.75658   0.00000  Uiso   1.00
H34    H     0.99795   0.79946   0.67640   0.00000  Uiso   1.00
H35    H     0.72130   0.73936   0.70863   0.00000  Uiso   1.00
H36    H     0.80404   0.07917   0.77808   0.00000  Uiso   1.00
H37    H     0.10179   0.76895   0.60900   0.00000  Uiso   1.00
O38    O     0.60838   0.78135   0.62423   0.00000  Uiso   1.00
O39    O     0.71694   0.22717   0.71535   0.00000  Uiso   1.00
O40    O     0.10758   0.82017   0.49352   0.00000  Uiso   1.00
N41    N     0.63178   0.87101   0.57332   0.00000  Uiso   1.00
N42    N     0.70912   0.18871   0.63826   0.00000  Uiso   1.00
N43    N     0.98750   0.89870   0.48018   0.00000  Uiso   1.00
N44    N     0.70146   0.78449   0.66753   0.00000  Uiso   1.00
N45    N     0.77880   0.10220   0.73247   0.00000  Uiso   1.00
N46    N     0.05718   0.81218   0.57439   0.00000  Uiso   1.00
C47    C     0.19949   0.16265   0.69673   0.00000  Uiso   1.00
C48    C     0.27938   0.10615   0.72437   0.00000  Uiso   1.00
C49    C     0.32716   0.08933   0.69072   0.00000  Uiso   1.00
C50    C     0.39805   0.03600   0.72465   0.00000  Uiso   1.00
C51    C     0.51871   0.95359   0.75764   0.00000  Uiso   1.00
C52    C     0.16645   0.11948   0.72333   0.00000  Uiso   1.00
C53    C     0.11928   0.11388   0.68881   0.00000  Uiso   1.00
C54    C     0.09510   0.07178   0.72187   0.00000  Uiso   1.00
C55    C     0.04040   0.01012   0.75324   0.00000  Uiso   1.00
C56    C     0.18069   0.21792   0.72479   0.00000  Uiso   1.00
C57    C     0.14547   0.29508   0.69151   0.00000  Uiso   1.00
C58    C     0.13327   0.33586   0.72580   0.00000  Uiso   1.00
C59    C     0.10067   0.42703   0.75944   0.00000  Uiso   1.00
C60    C     0.24043   0.09786   0.81682   0.00000  Uiso   1.00
C61    C     0.30161   0.07096   0.78959   0.00000  Uiso   1.00
C62    C     0.37245   0.01765   0.82358   0.00000  Uiso   1.00
C63    C     0.42033   0.00075   0.78999   0.00000  Uiso   1.00
C64    C     0.18869   0.08429   0.78855   0.00000  Uiso   1.00
C65    C     0.16457   0.04220   0.82167   0.00000  Uiso   1.00
C66    C     0.11737   0.03652   0.78721   0.00000  Uiso   1.00
C67    C     0.20293   0.18273   0.79002   0.00000  Uiso   1.00
C68    C     0.19077   0.22340   0.82436   0.00000  Uiso   1.00
C69    C     0.15554   0.30060   0.79114   0.00000  Uiso   1.00
H70    H     0.18218   0.19005   0.64595   0.00000  Uiso   1.00
H71    H     0.30993   0.11657   0.64025   0.00000  Uiso   1.00
H72    H     0.10207   0.14112   0.63834   0.00000  Uiso   1.00
H73    H     0.12827   0.32229   0.64103   0.00000  Uiso   1.00
H74    H     0.46137   0.01956   0.66269   0.00000  Uiso   1.00
H75    H     0.02308   0.07136   0.65865   0.00000  Uiso   1.00
H76    H     0.07831   0.45339   0.66434   0.00000  Uiso   1.00
H77    H     0.25774   0.07047   0.86760   0.00000  Uiso   1.00
H78    H     0.38964   0.99042   0.87406   0.00000  Uiso   1.00
H79    H     0.18178   0.01498   0.87214   0.00000  Uiso   1.00
H80    H     0.20798   0.19615   0.87484   0.00000  Uiso   1.00
H81    H     0.52607   0.91717   0.85245   0.00000  Uiso   1.00
H82    H     0.08777   0.96897   0.84842   0.00000  Uiso   1.00
H83    H     0.14301   0.35101   0.85411   0.00000  Uiso   1.00
O84    O     0.57912   0.91785   0.75782   0.00000  Uiso   1.00
O85    O     0.00409   0.98582   0.75252   0.00000  Uiso   1.00
O86    O     0.07656   0.48704   0.75999   0.00000  Uiso   1.00
N87    N     0.45850   0.00646   0.70646   0.00000  Uiso   1.00
N88    N     0.04873   0.05488   0.70269   0.00000  Uiso   1.00
N89    N     0.10035   0.41205   0.70801   0.00000  Uiso   1.00
N90    N     0.49331   0.95137   0.80857   0.00000  Uiso   1.00
N91    N     0.08354   0.99978   0.80480   0.00000  Uiso   1.00
N92    N     0.13516   0.35696   0.81012   0.00000  Uiso   1.00
C93    C     0.58668   0.43425   0.76640   0.00000  Uiso   1.00
C94    C     0.56806   0.49609   0.78669   0.00000  Uiso   1.00
C95    C     0.55102   0.56734   0.74922   0.00000  Uiso   1.00
C96    C     0.53562   0.61579   0.77652   0.00000  Uiso   1.00
C97    C     0.50651   0.71516   0.79853   0.00000  Uiso   1.00
C98    C     0.65925   0.36704   0.81098   0.00000  Uiso   1.00
C99    C     0.71888   0.32979   0.79392   0.00000  Uiso   1.00
C100   C     0.78024   0.26959   0.84168   0.00000  Uiso   1.00
C101   C     0.89268   0.16858   0.90138   0.00000  Uiso   1.00
C102   C     0.53475   0.41174   0.78043   0.00000  Uiso   1.00
C103   C     0.48971   0.41205   0.73769   0.00000  Uiso   1.00
C104   C     0.44626   0.38948   0.75974   0.00000  Uiso   1.00
C105   C     0.36539   0.35788   0.77201   0.00000  Uiso   1.00
C106   C     0.58962   0.39358   0.88153   0.00000  Uiso   1.00
C107   C     0.56966   0.47400   0.84923   0.00000  Uiso   1.00
C108   C     0.55428   0.52235   0.87660   0.00000  Uiso   1.00
C109   C     0.53722   0.59367   0.83917   0.00000  Uiso   1.00
C110   C     0.66085   0.34495   0.87351   0.00000  Uiso   1.00
C111   C     0.72213   0.28480   0.92130   0.00000  Uiso   1.00
C112   C     0.78184   0.24747   0.90433   0.00000  Uiso   1.00
C113   C     0.53635   0.38966   0.84296   0.00000  Uiso   1.00
C114   C     0.49296   0.36707   0.86508   0.00000  Uiso   1.00
C115   C     0.44786   0.36735   0.82239   0.00000  Uiso   1.00
H116   H     0.58544   0.45144   0.71771   0.00000  Uiso   1.00
H117   H     0.54980   0.58441   0.70082   0.00000  Uiso   1.00
H118   H     0.71762   0.34689   0.74552   0.00000  Uiso   1.00
H119   H     0.48848   0.42915   0.68930   0.00000  Uiso   1.00
H120   H     0.51102   0.72209   0.70968   0.00000  Uiso   1.00
H121   H     0.86487   0.22124   0.80393   0.00000  Uiso   1.00
H122   H     0.38170   0.39470   0.68539   0.00000  Uiso   1.00
H123   H     0.59087   0.37639   0.93022   0.00000  Uiso   1.00
H124   H     0.55552   0.50525   0.92499   0.00000  Uiso   1.00
H125   H     0.72335   0.26772   0.96969   0.00000  Uiso   1.00
H126   H     0.49421   0.34998   0.91347   0.00000  Uiso   1.00
H127   H     0.51567   0.65783   0.89163   0.00000  Uiso   1.00
H128   H     0.86953   0.15698   0.98588   0.00000  Uiso   1.00
H129   H     0.38635   0.33045   0.86733   0.00000  Uiso   1.00
O130   O     0.49002   0.77607   0.79339   0.00000  Uiso   1.00
O131   O     0.95426   0.11897   0.91704   0.00000  Uiso   1.00
O132   O     0.32034   0.34656   0.76151   0.00000  Uiso   1.00
N133   N     0.51695   0.68928   0.75322   0.00000  Uiso   1.00
N134   N     0.84779   0.22103   0.84134   0.00000  Uiso   1.00
N135   N     0.39607   0.38319   0.73051   0.00000  Uiso   1.00
N136   N     0.51945   0.65471   0.85112   0.00000  Uiso   1.00
N137   N     0.85029   0.18646   0.93924   0.00000  Uiso   1.00
N138   N     0.39857   0.34861   0.82841   0.00000  Uiso   1.00
C139   C     0.68145   0.88445   0.10913   0.00000  Uiso   1.00
C140   C     0.75788   0.86148   0.11703   0.00000  Uiso   1.00
C141   C     0.78164   0.89483   0.07327   0.00000  Uiso   1.00
C142   C     0.85357   0.86563   0.08937   0.00000  Uiso   1.00
C143   C     0.96517   0.83917   0.09286   0.00000  Uiso   1.00
C144   C     0.66270   0.90143   0.16376   0.00000  Uiso   1.00
C145   C     0.60642   0.96837   0.15928   0.00000  Uiso   1.00
C146   C     0.59823   0.97280   0.21473   0.00000  Uiso   1.00
C147   C     0.56203   0.00835   0.29077   0.00000  Uiso   1.00
C148   C     0.68238   0.81426   0.11953   0.00000  Uiso   1.00
C149   C     0.64263   0.80790   0.07788   0.00000  Uiso   1.00
C150   C     0.65099   0.73894   0.09610   0.00000  Uiso   1.00
C151   C     0.64534   0.63914   0.10346   0.00000  Uiso   1.00
C152   C     0.76696   0.77327   0.21556   0.00000  Uiso   1.00
C153   C     0.80432   0.80109   0.17484   0.00000  Uiso   1.00
C154   C     0.87624   0.77183   0.19102   0.00000  Uiso   1.00
C155   C     0.90009   0.80513   0.14728   0.00000  Uiso   1.00
C156   C     0.70914   0.84105   0.22157   0.00000  Uiso   1.00
C157   C     0.70102   0.84537   0.27703   0.00000  Uiso   1.00
C158   C     0.64475   0.91230   0.27264   0.00000  Uiso   1.00
C159   C     0.72882   0.75387   0.17734   0.00000  Uiso   1.00
C160   C     0.73723   0.68490   0.19563   0.00000  Uiso   1.00
C161   C     0.69751   0.67844   0.15401   0.00000  Uiso   1.00
H162   H     0.64530   0.93146   0.06413   0.00000  Uiso   1.00
H163   H     0.74568   0.94156   0.02854   0.00000  Uiso   1.00
H164   H     0.57049   0.01509   0.11454   0.00000  Uiso   1.00
H165   H     0.60670   0.85464   0.03315   0.00000  Uiso   1.00
H166   H     0.87745   0.92615   0.01458   0.00000  Uiso   1.00
H167   H     0.50804   0.08118   0.19593   0.00000  Uiso   1.00
H168   H     0.58438   0.74285   0.02430   0.00000  Uiso   1.00
H169   H     0.80311   0.72626   0.26057   0.00000  Uiso   1.00
H170   H     0.91216   0.72510   0.23575   0.00000  Uiso   1.00
H171   H     0.73697   0.79863   0.32176   0.00000  Uiso   1.00
H172   H     0.77318   0.63818   0.24037   0.00000  Uiso   1.00
H173   H     0.01257   0.75046   0.18277   0.00000  Uiso   1.00
H174   H     0.64316   0.90549   0.36412   0.00000  Uiso   1.00
H175   H     0.71951   0.56716   0.19248   0.00000  Uiso   1.00
O176   O     0.01389   0.84126   0.07882   0.00000  Uiso   1.00
O177   O     0.52923   0.04465   0.31674   0.00000  Uiso   1.00
O178   O     0.62940   0.60077   0.09156   0.00000  Uiso   1.00
N179   N     0.89429   0.88495   0.05757   0.00000  Uiso   1.00
N180   N     0.54892   0.02990   0.22711   0.00000  Uiso   1.00
N181   N     0.62028   0.71359   0.06666   0.00000  Uiso   1.00
N182   N     0.96700   0.79041   0.14806   0.00000  Uiso   1.00
N183   N     0.62162   0.93536   0.31761   0.00000  Uiso   1.00
N184   N     0.69299   0.61906   0.15716   0.00000  Uiso   1.00
C185   C     0.07189   0.11197   0.23877   0.00000  Uiso   1.00
C186   C     0.05707   0.05085   0.25823   0.00000  Uiso   1.00
C187   C     0.02031   0.03965   0.21855   0.00000  Uiso   1.00
C188   C     0.01240   0.98066   0.24545   0.00000  Uiso   1.00
C189   C     0.98517   0.89274   0.26590   0.00000  Uiso   1.00
C190   C     0.15203   0.07162   0.26246   0.00000  Uiso   1.00
C191   C     0.19510   0.07790   0.22632   0.00000  Uiso   1.00
C192   C     0.26712   0.03639   0.25678   0.00000  Uiso   1.00
C193   C     0.38731   0.98077   0.28379   0.00000  Uiso   1.00
C194   C     0.04176   0.15528   0.27670   0.00000  Uiso   1.00
C195   C     0.99213   0.23190   0.25254   0.00000  Uiso   1.00
C196   C     0.97132   0.26083   0.29499   0.00000  Uiso   1.00
C197   C     0.92031   0.33510   0.34411   0.00000  Uiso   1.00
C198   C     0.12321   0.02711   0.35710   0.00000  Uiso   1.00
C199   C     0.08495   0.00476   0.32251   0.00000  Uiso   1.00
C200   C     0.07709   0.94577   0.34947   0.00000  Uiso   1.00
C201   C     0.04032   0.93448   0.30984   0.00000  Uiso   1.00
C202   C     0.17990   0.02553   0.32673   0.00000  Uiso   1.00
C203   C     0.25188   0.98401   0.35724   0.00000  Uiso   1.00
C204   C     0.29505   0.99021   0.32117   0.00000  Uiso   1.00
C205   C     0.06963   0.10919   0.34097   0.00000  Uiso   1.00
C206   C     0.04891   0.13801   0.38347   0.00000  Uiso   1.00
C207   C     0.99925   0.21466   0.35938   0.00000  Uiso   1.00
H208   H     0.05020   0.14786   0.18873   0.00000  Uiso   1.00
H209   H     0.99875   0.07533   0.16881   0.00000  Uiso   1.00
H210   H     0.17351   0.11358   0.17658   0.00000  Uiso   1.00
H211   H     0.97057   0.26755   0.20280   0.00000  Uiso   1.00
H212   H     0.95403   0.97458   0.17508   0.00000  Uiso   1.00
H213   H     0.32252   0.05524   0.19147   0.00000  Uiso   1.00
H214   H     0.89458   0.37993   0.24675   0.00000  Uiso   1.00
H215   H     0.14492   0.99123   0.40714   0.00000  Uiso   1.00
H216   H     0.09866   0.91010   0.39922   0.00000  Uiso   1.00
H217   H     0.27343   0.94835   0.40699   0.00000  Uiso   1.00
H218   H     0.07049   0.10233   0.43320   0.00000  Uiso   1.00
H219   H     0.03513   0.84047   0.36208   0.00000  Uiso   1.00
H220   H     0.40362   0.92114   0.37847   0.00000  Uiso   1.00
H221   H     0.97568   0.24583   0.43375   0.00000  Uiso   1.00
O222   O     0.96246   0.85697   0.25942   0.00000  Uiso   1.00
O223   O     0.44590   0.96281   0.28092   0.00000  Uiso   1.00
O224   O     0.88446   0.38880   0.35345   0.00000  Uiso   1.00
N225   N     0.97945   0.95416   0.22018   0.00000  Uiso   1.00
N226   N     0.32397   0.02956   0.23550   0.00000  Uiso   1.00
N227   N     0.92389   0.33313   0.28719   0.00000  Uiso   1.00
N228   N     0.02309   0.88200   0.32080   0.00000  Uiso   1.00
N229   N     0.36760   0.95740   0.33612   0.00000  Uiso   1.00
N230   N     0.96753   0.26097   0.38781   0.00000  Uiso   1.00
C231   C     0.35009   0.50271   0.17867   0.00000  Uiso   1.00
C232   C     0.30696   0.55696   0.20482   0.00000  Uiso   1.00
C233   C     0.27485   0.63402   0.17610   0.00000  Uiso   1.00
C234   C     0.23775   0.67380   0.20762   0.00000  Uiso   1.00
C235   C     0.17148   0.76352   0.23936   0.00000  Uiso   1.00
C236   C     0.31506   0.46100   0.17661   0.00000  Uiso   1.00
C237   C     0.28977   0.45736   0.12416   0.00000  Uiso   1.00
C238   C     0.25950   0.41634   0.13193   0.00000  Uiso   1.00
C239   C     0.20586   0.35703   0.11988   0.00000  Uiso   1.00
C240   C     0.42223   0.44469   0.22794   0.00000  Uiso   1.00
C241   C     0.48704   0.42732   0.21866   0.00000  Uiso   1.00
C242   C     0.54700   0.37257   0.26965   0.00000  Uiso   1.00
C243   C     0.65974   0.28794   0.33731   0.00000  Uiso   1.00
C244   C     0.34132   0.43633   0.28573   0.00000  Uiso   1.00
C245   C     0.30220   0.52091   0.26297   0.00000  Uiso   1.00
C246   C     0.26514   0.56058   0.29454   0.00000  Uiso   1.00
C247   C     0.23298   0.63768   0.26587   0.00000  Uiso   1.00
C248   C     0.31030   0.42494   0.23475   0.00000  Uiso   1.00
C249   C     0.28007   0.38392   0.24260   0.00000  Uiso   1.00
C250   C     0.25473   0.38022   0.19018   0.00000  Uiso   1.00
C251   C     0.41746   0.40864   0.28609   0.00000  Uiso   1.00
C252   C     0.47733   0.35389   0.33710   0.00000  Uiso   1.00
C253   C     0.54223   0.33645   0.32790   0.00000  Uiso   1.00
H254   H     0.35380   0.53078   0.13340   0.00000  Uiso   1.00
H255   H     0.27854   0.66190   0.13110   0.00000  Uiso   1.00
H256   H     0.29347   0.48526   0.07917   0.00000  Uiso   1.00
H257   H     0.49071   0.45524   0.17366   0.00000  Uiso   1.00
H258   H     0.19298   0.79137   0.15417   0.00000  Uiso   1.00
H259   H     0.22449   0.41889   0.04469   0.00000  Uiso   1.00
H260   H     0.64040   0.35558   0.24393   0.00000  Uiso   1.00
H261   H     0.33761   0.40826   0.33100   0.00000  Uiso   1.00
H262   H     0.26146   0.53266   0.33954   0.00000  Uiso   1.00
H263   H     0.27639   0.35602   0.28761   0.00000  Uiso   1.00
H264   H     0.47363   0.32600   0.38209   0.00000  Uiso   1.00
H265   H     0.17911   0.68648   0.32335   0.00000  Uiso   1.00
H266   H     0.21062   0.31400   0.21386   0.00000  Uiso   1.00
H267   H     0.62653   0.25069   0.41311   0.00000  Uiso   1.00
O268   O     0.13623   0.82298   0.24081   0.00000  Uiso   1.00
O269   O     0.17757   0.33428   0.09717   0.00000  Uiso   1.00
O270   O     0.72324   0.25123   0.35857   0.00000  Uiso   1.00
N271   N     0.20018   0.74961   0.19282   0.00000  Uiso   1.00
N272   N     0.22962   0.40138   0.09046   0.00000  Uiso   1.00
N273   N     0.61847   0.34217   0.27673   0.00000  Uiso   1.00
N274   N     0.19272   0.69317   0.28386   0.00000  Uiso   1.00
N275   N     0.22216   0.34493   0.18149   0.00000  Uiso   1.00
N276   N     0.61101   0.28573   0.36776   0.00000  Uiso   1.00
C277   C     0.25167   0.80917   0.66022   0.00000  Uiso   1.00
C278   C     0.29437   0.84198   0.63783   0.00000  Uiso   1.00
C279   C     0.34401   0.84162   0.67562   0.00000  Uiso   1.00
C280   C     0.37739   0.87447   0.64616   0.00000  Uiso   1.00
C281   C     0.44611   0.92051   0.62128   0.00000  Uiso   1.00
C282   C     0.26670   0.75292   0.63386   0.00000  Uiso   1.00
C283   C     0.29307   0.67768   0.66832   0.00000  Uiso   1.00
C284   C     0.30315   0.63556   0.63551   0.00000  Uiso   1.00
C285   C     0.32886   0.54335   0.60446   0.00000  Uiso   1.00
C286   C     0.17408   0.87302   0.62705   0.00000  Uiso   1.00
C287   C     0.12257   0.89876   0.65578   0.00000  Uiso   1.00
C288   C     0.05466   0.95774   0.61723   0.00000  Uiso   1.00
C289   C     0.93657   0.05200   0.57561   0.00000  Uiso   1.00
C290   C     0.22267   0.86815   0.54068   0.00000  Uiso   1.00
C291   C     0.27862   0.87401   0.57290   0.00000  Uiso   1.00
C292   C     0.31193   0.90687   0.54337   0.00000  Uiso   1.00
C293   C     0.36161   0.90656   0.58112   0.00000  Uiso   1.00
C294   C     0.25095   0.78495   0.56893   0.00000  Uiso   1.00
C295   C     0.26099   0.74293   0.53607   0.00000  Uiso   1.00
C296   C     0.28737   0.66765   0.57047   0.00000  Uiso   1.00
C297   C     0.15833   0.90506   0.56212   0.00000  Uiso   1.00
C298   C     0.09049   0.96401   0.52352   0.00000  Uiso   1.00
C299   C     0.03888   0.98983   0.55219   0.00000  Uiso   1.00
H300   H     0.26394   0.78423   0.71077   0.00000  Uiso   1.00
H301   H     0.35619   0.81682   0.72587   0.00000  Uiso   1.00
H302   H     0.30525   0.65291   0.71856   0.00000  Uiso   1.00
H303   H     0.13478   0.87395   0.70602   0.00000  Uiso   1.00
H304   H     0.45154   0.86706   0.71399   0.00000  Uiso   1.00
H305   H     0.34411   0.52145   0.69858   0.00000  Uiso   1.00
H306   H     0.98463   0.98756   0.67213   0.00000  Uiso   1.00
H307   H     0.21041   0.89309   0.49013   0.00000  Uiso   1.00
H308   H     0.29973   0.93166   0.49312   0.00000  Uiso   1.00
H309   H     0.24879   0.76774   0.48582   0.00000  Uiso   1.00
H310   H     0.07832   0.98878   0.47328   0.00000  Uiso   1.00
H311   H     0.40572   0.96026   0.52508   0.00000  Uiso   1.00
H312   H     0.29828   0.61465   0.50967   0.00000  Uiso   1.00
H313   H     0.93881   0.08076   0.48323   0.00000  Uiso   1.00
O314   O     0.48837   0.93704   0.62549   0.00000  Uiso   1.00
O315   O     0.34740   0.48363   0.60527   0.00000  Uiso   1.00
O316   O     0.87579   0.09515   0.57058   0.00000  Uiso   1.00
N317   N     0.42849   0.88371   0.66911   0.00000  Uiso   1.00
N318   N     0.32806   0.56059   0.65471   0.00000  Uiso   1.00
N319   N     0.99197   0.99635   0.62999   0.00000  Uiso   1.00
N320   N     0.40383   0.93386   0.56747   0.00000  Uiso   1.00
N321   N     0.30340   0.61074   0.55306   0.00000  Uiso   1.00
N322   N     0.96731   0.04650   0.52834   0.00000  Uiso   1.00
C323   C     0.84209   0.61425   0.52822   0.00000  Uiso   1.00
C324   C     0.76243   0.67033   0.49782   0.00000  Uiso   1.00
C325   C     0.71363   0.69882   0.52806   0.00000  Uiso   1.00
C326   C     0.64316   0.74955   0.49200   0.00000  Uiso   1.00
C327   C     0.52264   0.83340   0.45453   0.00000  Uiso   1.00
C328   C     0.87641   0.65124   0.49244   0.00000  Uiso   1.00
C329   C     0.92344   0.66366   0.51815   0.00000  Uiso   1.00
C330   C     0.94892   0.69831   0.47757   0.00000  Uiso   1.00
C331   C     0.00539   0.75247   0.43174   0.00000  Uiso   1.00
C332   C     0.86115   0.54820   0.51367   0.00000  Uiso   1.00
C333   C     0.89537   0.47398   0.55724   0.00000  Uiso   1.00
C334   C     0.90802   0.42187   0.53453   0.00000  Uiso   1.00
C335   C     0.94080   0.31605   0.52167   0.00000  Uiso   1.00
C336   C     0.80373   0.65368   0.41042   0.00000  Uiso   1.00
C337   C     0.74160   0.69175   0.43384   0.00000  Uiso   1.00
C338   C     0.67118   0.74244   0.39773   0.00000  Uiso   1.00
C339   C     0.62228   0.77100   0.42790   0.00000  Uiso   1.00
C340   C     0.85557   0.67266   0.42846   0.00000  Uiso   1.00
C341   C     0.88099   0.70729   0.38782   0.00000  Uiso   1.00
C342   C     0.92804   0.71977   0.41347   0.00000  Uiso   1.00
C343   C     0.84031   0.56962   0.44969   0.00000  Uiso   1.00
C344   C     0.85292   0.51761   0.42691   0.00000  Uiso   1.00
C345   C     0.88714   0.44332   0.47043   0.00000  Uiso   1.00
H346   H     0.85832   0.59758   0.57803   0.00000  Uiso   1.00
H347   H     0.72978   0.68224   0.57757   0.00000  Uiso   1.00
H348   H     0.93956   0.64708   0.56767   0.00000  Uiso   1.00
H349   H     0.91149   0.45743   0.60675   0.00000  Uiso   1.00
H350   H     0.57808   0.78556   0.54884   0.00000  Uiso   1.00
H351   H     0.02043   0.71141   0.52796   0.00000  Uiso   1.00
H352   H     0.96124   0.31149   0.61037   0.00000  Uiso   1.00
H353   H     0.78750   0.67035   0.36060   0.00000  Uiso   1.00
H354   H     0.65507   0.75901   0.34821   0.00000  Uiso   1.00
H355   H     0.86486   0.72385   0.33831   0.00000  Uiso   1.00
H356   H     0.83678   0.53420   0.37739   0.00000  Uiso   1.00
H357   H     0.51744   0.84788   0.36268   0.00000  Uiso   1.00
H358   H     0.95980   0.77372   0.34181   0.00000  Uiso   1.00
H359   H     0.90061   0.37380   0.42421   0.00000  Uiso   1.00
O360   O     0.46192   0.87375   0.45153   0.00000  Uiso   1.00
O361   O     0.04229   0.77644   0.42414   0.00000  Uiso   1.00
O362   O     0.96463   0.25176   0.53226   0.00000  Uiso   1.00
N363   N     0.58198   0.78805   0.50673   0.00000  Uiso   1.00
N364   N     0.99555   0.71873   0.48721   0.00000  Uiso   1.00
N365   N     0.94023   0.34484   0.56425   0.00000  Uiso   1.00
N366   N     0.54935   0.82158   0.40656   0.00000  Uiso   1.00
N367   N     0.96292   0.75226   0.38704   0.00000  Uiso   1.00
N368   N     0.90760   0.37837   0.46409   0.00000  Uiso   1.00
C369   C     0.44430   0.26572   0.60166   0.00000  Uiso   1.00
C370   C     0.45052   0.22431   0.56201   0.00000  Uiso   1.00
C371   C     0.48261   0.14753   0.58435   0.00000  Uiso   1.00
C372   C     0.48280   0.12054   0.54053   0.00000  Uiso   1.00
C373   C     0.49711   0.04893   0.48868   0.00000  Uiso   1.00
C374   C     0.36552   0.32458   0.58460   0.00000  Uiso   1.00
C375   C     0.32615   0.33210   0.62595   0.00000  Uiso   1.00
C376   C     0.25478   0.38952   0.60115   0.00000  Uiso   1.00
C377   C     0.13714   0.47361   0.58439   0.00000  Uiso   1.00
C378   C     0.47797   0.30898   0.57780   0.00000  Uiso   1.00
C379   C     0.53315   0.30342   0.61343   0.00000  Uiso   1.00
C380   C     0.55645   0.34773   0.58290   0.00000  Uiso   1.00
C381   C     0.61342   0.40761   0.55558   0.00000  Uiso   1.00
C382   C     0.38756   0.35432   0.48410   0.00000  Uiso   1.00
C383   C     0.41970   0.27244   0.49815   0.00000  Uiso   1.00
C384   C     0.41984   0.24556   0.45429   0.00000  Uiso   1.00
C385   C     0.45193   0.16875   0.47657   0.00000  Uiso   1.00
C386   C     0.33470   0.37270   0.52075   0.00000  Uiso   1.00
C387   C     0.26337   0.43013   0.49589   0.00000  Uiso   1.00
C388   C     0.22391   0.43774   0.53719   0.00000  Uiso   1.00
C389   C     0.44716   0.35711   0.51395   0.00000  Uiso   1.00
C390   C     0.47038   0.40144   0.48336   0.00000  Uiso   1.00
C391   C     0.52558   0.39594   0.51894   0.00000  Uiso   1.00
H392   H     0.46829   0.22825   0.65137   0.00000  Uiso   1.00
H393   H     0.50645   0.11030   0.63377   0.00000  Uiso   1.00
H394   H     0.35001   0.29485   0.67536   0.00000  Uiso   1.00
H395   H     0.55699   0.26617   0.66284   0.00000  Uiso   1.00
H396   H     0.53515   0.00076   0.58611   0.00000  Uiso   1.00
H397   H     0.20530   0.38991   0.67381   0.00000  Uiso   1.00
H398   H     0.64173   0.32943   0.64740   0.00000  Uiso   1.00
H399   H     0.36357   0.39180   0.43438   0.00000  Uiso   1.00
H400   H     0.39599   0.28282   0.40488   0.00000  Uiso   1.00
H401   H     0.23954   0.46737   0.44647   0.00000  Uiso   1.00
H402   H     0.44652   0.43868   0.43395   0.00000  Uiso   1.00
H403   H     0.44549   0.14078   0.40033   0.00000  Uiso   1.00
H404   H     0.11563   0.52993   0.48803   0.00000  Uiso   1.00
H405   H     0.55207   0.46945   0.46162   0.00000  Uiso   1.00
O406   O     0.51351   0.99614   0.47772   0.00000  Uiso   1.00
O407   O     0.08076   0.50669   0.59279   0.00000  Uiso   1.00
O408   O     0.65336   0.42733   0.55814   0.00000  Uiso   1.00
N409   N     0.50961   0.04867   0.54643   0.00000  Uiso   1.00
N410   N     0.20121   0.41249   0.62843   0.00000  Uiso   1.00
N411   N     0.60924   0.35596   0.60374   0.00000  Uiso   1.00
N412   N     0.46137   0.12402   0.44646   0.00000  Uiso   1.00
N413   N     0.15297   0.48784   0.52846   0.00000  Uiso   1.00
N414   N     0.56099   0.43130   0.50377   0.00000  Uiso   1.00
C415   C     0.33468   0.87944   0.11454   0.00000  Uiso   1.00
C416   C     0.25476   0.91673   0.09485   0.00000  Uiso   1.00
C417   C     0.21636   0.90146   0.13274   0.00000  Uiso   1.00
C418   C     0.14368   0.94159   0.10596   0.00000  Uiso   1.00
C419   C     0.02461   0.99134   0.08488   0.00000  Uiso   1.00
C420   C     0.36164   0.84617   0.06958   0.00000  Uiso   1.00
C421   C     0.41311   0.77158   0.08622   0.00000  Uiso   1.00
C422   C     0.43041   0.75232   0.03816   0.00000  Uiso   1.00
C423   C     0.47731   0.69254   0.97784   0.00000  Uiso   1.00
C424   C     0.34599   0.94284   0.10041   0.00000  Uiso   1.00
C425   C     0.38432   0.94953   0.14298   0.00000  Uiso   1.00
C426   C     0.38845   0.01165   0.12087   0.00000  Uiso   1.00
C427   C     0.41105   0.10196   0.10844   0.00000  Uiso   1.00
C428   C     0.27390   0.97786   0.99959   0.00000  Uiso   1.00
C429   C     0.22175   0.97019   0.03242   0.00000  Uiso   1.00
C430   C     0.14911   0.01035   0.00557   0.00000  Uiso   1.00
C431   C     0.11061   0.99515   0.04342   0.00000  Uiso   1.00
C432   C     0.32863   0.89963   0.00714   0.00000  Uiso   1.00
C433   C     0.34586   0.88047   0.95905   0.00000  Uiso   1.00
C434   C     0.39734   0.80588   0.97561   0.00000  Uiso   1.00
C435   C     0.31298   0.99630   0.03798   0.00000  Uiso   1.00
C436   C     0.31706   0.05842   0.01580   0.00000  Uiso   1.00
C437   C     0.35538   0.06520   0.05833   0.00000  Uiso   1.00
H438   H     0.36039   0.83781   0.16314   0.00000  Uiso   1.00
H439   H     0.24193   0.86008   0.18106   0.00000  Uiso   1.00
H440   H     0.43865   0.73023   0.13454   0.00000  Uiso   1.00
H441   H     0.40986   0.90815   0.19129   0.00000  Uiso   1.00
H442   H     0.09604   0.90832   0.17338   0.00000  Uiso   1.00
H443   H     0.51086   0.63453   0.07529   0.00000  Uiso   1.00
H444   H     0.45014   0.00970   0.19496   0.00000  Uiso   1.00
H445   H     0.24820   0.01948   0.95098   0.00000  Uiso   1.00
H446   H     0.12358   0.05172   0.95726   0.00000  Uiso   1.00
H447   H     0.32030   0.92186   0.91074   0.00000  Uiso   1.00
H448   H     0.29151   0.09978   0.96749   0.00000  Uiso   1.00
H449   H     0.99998   0.06386   0.99173   0.00000  Uiso   1.00
H450   H     0.41481   0.79006   0.89365   0.00000  Uiso   1.00
H451   H     0.35408   0.16523   0.01332   0.00000  Uiso   1.00
O452   O     0.96806   0.00400   0.09050   0.00000  Uiso   1.00
O453   O     0.51230   0.64480   0.96182   0.00000  Uiso   1.00
O454   O     0.43263   0.13701   0.11882   0.00000  Uiso   1.00
N455   N     0.09053   0.94052   0.12977   0.00000  Uiso   1.00
N456   N     0.47836   0.68453   0.03807   0.00000  Uiso   1.00
N457   N     0.42160   0.03527   0.14994   0.00000  Uiso   1.00
N458   N     0.03884   0.02421   0.03203   0.00000  Uiso   1.00
N459   N     0.42667   0.76822   0.94032   0.00000  Uiso   1.00
N460   N     0.36992   0.11897   0.05220   0.00000  Uiso   1.00
C461   C     0.96692   0.67399   0.98181   0.00000  Uiso   1.00
C462   C     0.98591   0.73081   0.95394   0.00000  Uiso   1.00
C463   C     0.02131   0.74903   0.98740   0.00000  Uiso   1.00
C464   C     0.03365   0.80242   0.95328   0.00000  Uiso   1.00
C465   C     0.06650   0.88553   0.91994   0.00000  Uiso   1.00
C466   C     0.88700   0.71631   0.95418   0.00000  Uiso   1.00
C467   C     0.83923   0.72233   0.98784   0.00000  Uiso   1.00
C468   C     0.76830   0.76351   0.95392   0.00000  Uiso   1.00
C469   C     0.64758   0.82405   0.92096   0.00000  Uiso   1.00
C470   C     0.99972   0.61762   0.95500   0.00000  Uiso   1.00
C471   C     0.04672   0.54066   0.98934   0.00000  Uiso   1.00
C472   C     0.07069   0.49874   0.95610   0.00000  Uiso   1.00
C473   C     0.12500   0.40605   0.92439   0.00000  Uiso   1.00
C474   C     0.92589   0.73641   0.86172   0.00000  Uiso   1.00
C475   C     0.96363   0.76472   0.88872   0.00000  Uiso   1.00
C476   C     0.97592   0.81809   0.85454   0.00000  Uiso   1.00
C477   C     0.01133   0.83639   0.88794   0.00000  Uiso   1.00
C478   C     0.86471   0.75022   0.88896   0.00000  Uiso   1.00
C479   C     0.79383   0.79139   0.85498   0.00000  Uiso   1.00
C480   C     0.74597   0.79747   0.88858   0.00000  Uiso   1.00
C481   C     0.97744   0.65153   0.88977   0.00000  Uiso   1.00
C482   C     0.00133   0.60972   0.85647   0.00000  Uiso   1.00
C483   C     0.04836   0.53271   0.89075   0.00000  Uiso   1.00
H484   H     0.98427   0.64760   0.03259   0.00000  Uiso   1.00
H485   H     0.03854   0.72279   0.03788   0.00000  Uiso   1.00
H486   H     0.85649   0.69608   0.03832   0.00000  Uiso   1.00
H487   H     0.06396   0.51444   0.03981   0.00000  Uiso   1.00
H488   H     0.08887   0.82112   0.01498   0.00000  Uiso   1.00
H489   H     0.70500   0.76479   0.01591   0.00000  Uiso   1.00
H490   H     0.14249   0.38176   0.01906   0.00000  Uiso   1.00
H491   H     0.90854   0.76281   0.81094   0.00000  Uiso   1.00
H492   H     0.95866   0.84432   0.80406   0.00000  Uiso   1.00
H493   H     0.77661   0.81762   0.80451   0.00000  Uiso   1.00
H494   H     0.98408   0.63598   0.80600   0.00000  Uiso   1.00
H495   H     0.02403   0.91977   0.82520   0.00000  Uiso   1.00
H496   H     0.64017   0.86343   0.82614   0.00000  Uiso   1.00
H497   H     0.07765   0.48041   0.82928   0.00000  Uiso   1.00
O498   O     0.09077   0.92200   0.91957   0.00000  Uiso   1.00
O499   O     0.58716   0.84809   0.92080   0.00000  Uiso   1.00
O500   O     0.16113   0.34557   0.92492   0.00000  Uiso   1.00
N501   N     0.06674   0.83314   0.97126   0.00000  Uiso   1.00
N502   N     0.70785   0.78049   0.97213   0.00000  Uiso   1.00
N503   N     0.11685   0.42238   0.97507   0.00000  Uiso   1.00
N504   N     0.03186   0.88622   0.86914   0.00000  Uiso   1.00
N505   N     0.67296   0.83356   0.87002   0.00000  Uiso   1.00
N506   N     0.08196   0.47546   0.87295   0.00000  Uiso   1.00
C507   C     0.71454   0.17724   0.21226   0.00000  Uiso   1.00
C508   C     0.71440   0.16497   0.15366   0.00000  Uiso   1.00
C509   C     0.76358   0.10030   0.14975   0.00000  Uiso   1.00
C510   C     0.75423   0.10016   0.09191   0.00000  Uiso   1.00
C511   C     0.76262   0.07164   0.00883   0.00000  Uiso   1.00
C512   C     0.71529   0.24747   0.19607   0.00000  Uiso   1.00
C513   C     0.76521   0.25217   0.22782   0.00000  Uiso   1.00
C514   C     0.75659   0.32149   0.20567   0.00000  Uiso   1.00
C515   C     0.76633   0.42106   0.18845   0.00000  Uiso   1.00
C516   C     0.64263   0.19792   0.22143   0.00000  Uiso   1.00
C517   C     0.63145   0.16098   0.27451   0.00000  Uiso   1.00
C518   C     0.56166   0.18859   0.27372   0.00000  Uiso   1.00
C519   C     0.45859   0.21123   0.29588   0.00000  Uiso   1.00
C520   C     0.61047   0.29198   0.11650   0.00000  Uiso   1.00
C521   C     0.65787   0.22729   0.10165   0.00000  Uiso   1.00
C522   C     0.64843   0.22725   0.04380   0.00000  Uiso   1.00
C523   C     0.69759   0.16260   0.03980   0.00000  Uiso   1.00
C524   C     0.65876   0.30979   0.14405   0.00000  Uiso   1.00
C525   C     0.65006   0.37912   0.12186   0.00000  Uiso   1.00
C526   C     0.69996   0.38392   0.15356   0.00000  Uiso   1.00
C527   C     0.58610   0.26024   0.16941   0.00000  Uiso   1.00
C528   C     0.51631   0.28792   0.16855   0.00000  Uiso   1.00
C529   C     0.50503   0.25102   0.22161   0.00000  Uiso   1.00
H530   H     0.75855   0.12872   0.25276   0.00000  Uiso   1.00
H531   H     0.80733   0.05209   0.19002   0.00000  Uiso   1.00
H532   H     0.80894   0.20393   0.26807   0.00000  Uiso   1.00
H533   H     0.67521   0.11275   0.31475   0.00000  Uiso   1.00
H534   H     0.83648   0.99461   0.09751   0.00000  Uiso   1.00
H535   H     0.83988   0.31480   0.26210   0.00000  Uiso   1.00
H536   H     0.55788   0.12252   0.36054   0.00000  Uiso   1.00
H537   H     0.56645   0.34051   0.07600   0.00000  Uiso   1.00
H538   H     0.60468   0.27549   0.00355   0.00000  Uiso   1.00
H539   H     0.60631   0.42734   0.08161   0.00000  Uiso   1.00
H540   H     0.47257   0.33615   0.12829   0.00000  Uiso   1.00
H541   H     0.67201   0.17594   0.94617   0.00000  Uiso   1.00
H542   H     0.67541   0.49612   0.11077   0.00000  Uiso   1.00
H543   H     0.39341   0.30384   0.20920   0.00000  Uiso   1.00
O544   O     0.78287   0.03869   0.97737   0.00000  Uiso   1.00
O545   O     0.78733   0.45876   0.19332   0.00000  Uiso   1.00
O546   O     0.41735   0.20650   0.32246   0.00000  Uiso   1.00
N547   N     0.79252   0.04620   0.07184   0.00000  Uiso   1.00
N548   N     0.79571   0.34556   0.22572   0.00000  Uiso   1.00
N549   N     0.53206   0.16580   0.31775   0.00000  Uiso   1.00
N550   N     0.70402   0.14377   0.99040   0.00000  Uiso   1.00
N551   N     0.70721   0.44312   0.14428   0.00000  Uiso   1.00
N552   N     0.44356   0.26337   0.23632   0.00000  Uiso   1.00
