data_job_04424
_audit_creation_date              2018-12-19
_audit_creation_method            'Materials Studio'
_symmetry_space_group_name_H-M    'P1'
_symmetry_Int_Tables_number       1
_symmetry_cell_setting            triclinic
loop_
_symmetry_equiv_pos_as_xyz
  x,y,z
_cell_length_a                    9.8500
_cell_length_b                    13.7791
_cell_length_c                    19.2628
_cell_angle_alpha                 90.0000
_cell_angle_beta                  125.8130
_cell_angle_gamma                 90.0000
loop_
_atom_site_label
_atom_site_type_symbol
_atom_site_fract_x
_atom_site_fract_y
_atom_site_fract_z
_atom_site_U_iso_or_equiv
_atom_site_adp_type
_atom_site_occupancy
C1     C     0.69999   0.33823   0.49846   0.00000  Uiso   1.00
C2     C     0.70521   0.36487   0.42321   0.00000  Uiso   1.00
C3     C     0.69885   0.45824   0.39444   0.00000  Uiso   1.00
C4     C     0.70522   0.46737   0.32462   0.00000  Uiso   1.00
C5     C     0.71137   0.52111   0.21377   0.00000  Uiso   1.00
C6     C     0.55300   0.26860   0.46294   0.00000  Uiso   1.00
C7     C     0.41869   0.28104   0.46759   0.00000  Uiso   1.00
C8     C     0.29694   0.20912   0.43121   0.00000  Uiso   1.00
C9     C     0.06685   0.11338   0.38210   0.00000  Uiso   1.00
C10    C     0.85725   0.27852   0.55930   0.00000  Uiso   1.00
C11    C     0.97873   0.29927   0.64497   0.00000  Uiso   1.00
C12    C     0.11313   0.23568   0.68973   0.00000  Uiso   1.00
C13    C     0.35542   0.15533   0.79022   0.00000  Uiso   1.00
C14    C     0.72261   0.18838   0.42561   0.00000  Uiso   1.00
C15    C     0.71749   0.28347   0.38365   0.00000  Uiso   1.00
C16    C     0.72388   0.29246   0.31385   0.00000  Uiso   1.00
C17    C     0.71754   0.38583   0.28498   0.00000  Uiso   1.00
C18    C     0.56528   0.18722   0.42338   0.00000  Uiso   1.00
C19    C     0.44371   0.11526   0.38699   0.00000  Uiso   1.00
C20    C     0.30925   0.12758   0.39158   0.00000  Uiso   1.00
C21    C     0.86954   0.19713   0.51973   0.00000  Uiso   1.00
C22    C     0.00376   0.13348   0.56437   0.00000  Uiso   1.00
C23    C     0.12543   0.15414   0.65009   0.00000  Uiso   1.00
H24    H     0.69042   0.40159   0.52926   0.00000  Uiso   1.00
H25    H     0.68933   0.52121   0.42508   0.00000  Uiso   1.00
H26    H     0.40922   0.34403   0.49822   0.00000  Uiso   1.00
H27    H     0.96918   0.36226   0.67557   0.00000  Uiso   1.00
H28    H     0.69348   0.61794   0.29210   0.00000  Uiso   1.00
H29    H     0.10289   0.24433   0.44634   0.00000  Uiso   1.00
H30    H     0.28368   0.28276   0.82032   0.00000  Uiso   1.00
H31    H     0.73217   0.12501   0.39481   0.00000  Uiso   1.00
H32    H     0.73338   0.22946   0.28324   0.00000  Uiso   1.00
H33    H     0.45326   0.05228   0.35638   0.00000  Uiso   1.00
H34    H     0.01323   0.07051   0.53373   0.00000  Uiso   1.00
H35    H     0.72923   0.38114   0.17698   0.00000  Uiso   1.00
H36    H     0.13863   0.00753   0.33123   0.00000  Uiso   1.00
H37    H     0.31942   0.04597   0.70520   0.00000  Uiso   1.00
O38    O     0.71134   0.57324   0.16356   0.00000  Uiso   1.00
O39    O     0.93652   0.08307   0.36594   0.00000  Uiso   1.00
O40    O     0.48569   0.13350   0.85658   0.00000  Uiso   1.00
N41    N     0.70176   0.54788   0.28033   0.00000  Uiso   1.00
N42    N     0.14958   0.19858   0.42452   0.00000  Uiso   1.00
N43    N     0.25349   0.23450   0.77417   0.00000  Uiso   1.00
N44    N     0.72100   0.42046   0.21838   0.00000  Uiso   1.00
N45    N     0.16881   0.07116   0.36258   0.00000  Uiso   1.00
N46    N     0.27273   0.10708   0.71223   0.00000  Uiso   1.00
C47    C     0.30001   0.33823   0.00154   0.00000  Uiso   1.00
C48    C     0.29479   0.36487   0.07679   0.00000  Uiso   1.00
C49    C     0.30115   0.45824   0.10556   0.00000  Uiso   1.00
C50    C     0.29478   0.46737   0.17538   0.00000  Uiso   1.00
C51    C     0.28863   0.52111   0.28623   0.00000  Uiso   1.00
C52    C     0.44700   0.26860   0.03706   0.00000  Uiso   1.00
C53    C     0.58131   0.28104   0.03241   0.00000  Uiso   1.00
C54    C     0.70306   0.20912   0.06879   0.00000  Uiso   1.00
C55    C     0.93315   0.11338   0.11790   0.00000  Uiso   1.00
C56    C     0.14275   0.27852   0.94070   0.00000  Uiso   1.00
C57    C     0.02127   0.29927   0.85503   0.00000  Uiso   1.00
C58    C     0.88687   0.23568   0.81027   0.00000  Uiso   1.00
C59    C     0.64458   0.15533   0.70978   0.00000  Uiso   1.00
C60    C     0.27739   0.18838   0.07439   0.00000  Uiso   1.00
C61    C     0.28251   0.28347   0.11635   0.00000  Uiso   1.00
C62    C     0.27612   0.29246   0.18615   0.00000  Uiso   1.00
C63    C     0.28246   0.38583   0.21502   0.00000  Uiso   1.00
C64    C     0.43472   0.18722   0.07662   0.00000  Uiso   1.00
C65    C     0.55629   0.11526   0.11301   0.00000  Uiso   1.00
C66    C     0.69075   0.12758   0.10842   0.00000  Uiso   1.00
C67    C     0.13046   0.19713   0.98027   0.00000  Uiso   1.00
C68    C     0.99624   0.13348   0.93563   0.00000  Uiso   1.00
C69    C     0.87457   0.15414   0.84991   0.00000  Uiso   1.00
H70    H     0.30958   0.40159   0.97074   0.00000  Uiso   1.00
H71    H     0.31067   0.52121   0.07492   0.00000  Uiso   1.00
H72    H     0.59078   0.34403   0.00178   0.00000  Uiso   1.00
H73    H     0.03082   0.36226   0.82443   0.00000  Uiso   1.00
H74    H     0.30652   0.61794   0.20790   0.00000  Uiso   1.00
H75    H     0.89711   0.24433   0.05366   0.00000  Uiso   1.00
H76    H     0.71632   0.28276   0.67968   0.00000  Uiso   1.00
H77    H     0.26783   0.12501   0.10519   0.00000  Uiso   1.00
H78    H     0.26662   0.22946   0.21676   0.00000  Uiso   1.00
H79    H     0.54674   0.05228   0.14362   0.00000  Uiso   1.00
H80    H     0.98677   0.07051   0.96627   0.00000  Uiso   1.00
H81    H     0.27077   0.38114   0.32302   0.00000  Uiso   1.00
H82    H     0.86137   0.00753   0.16877   0.00000  Uiso   1.00
H83    H     0.68058   0.04597   0.79480   0.00000  Uiso   1.00
O84    O     0.28866   0.57324   0.33644   0.00000  Uiso   1.00
O85    O     0.06348   0.08307   0.13406   0.00000  Uiso   1.00
O86    O     0.51431   0.13350   0.64342   0.00000  Uiso   1.00
N87    N     0.29824   0.54788   0.21967   0.00000  Uiso   1.00
N88    N     0.85042   0.19858   0.07548   0.00000  Uiso   1.00
N89    N     0.74651   0.23450   0.72583   0.00000  Uiso   1.00
N90    N     0.27900   0.42046   0.28162   0.00000  Uiso   1.00
N91    N     0.83119   0.07116   0.13742   0.00000  Uiso   1.00
N92    N     0.72727   0.10708   0.78777   0.00000  Uiso   1.00
C93    C     0.30001   0.66177   0.50154   0.00000  Uiso   1.00
C94    C     0.29479   0.63513   0.57679   0.00000  Uiso   1.00
C95    C     0.30115   0.54176   0.60556   0.00000  Uiso   1.00
C96    C     0.29478   0.53263   0.67538   0.00000  Uiso   1.00
C97    C     0.28863   0.47889   0.78623   0.00000  Uiso   1.00
C98    C     0.44700   0.73140   0.53706   0.00000  Uiso   1.00
C99    C     0.58131   0.71896   0.53241   0.00000  Uiso   1.00
C100   C     0.70306   0.79088   0.56879   0.00000  Uiso   1.00
C101   C     0.93315   0.88662   0.61790   0.00000  Uiso   1.00
C102   C     0.14275   0.72148   0.44070   0.00000  Uiso   1.00
C103   C     0.02127   0.70073   0.35503   0.00000  Uiso   1.00
C104   C     0.88687   0.76432   0.31027   0.00000  Uiso   1.00
C105   C     0.64458   0.84467   0.20978   0.00000  Uiso   1.00
C106   C     0.27739   0.81162   0.57439   0.00000  Uiso   1.00
C107   C     0.28251   0.71653   0.61635   0.00000  Uiso   1.00
C108   C     0.27612   0.70754   0.68615   0.00000  Uiso   1.00
C109   C     0.28246   0.61417   0.71502   0.00000  Uiso   1.00
C110   C     0.43472   0.81278   0.57662   0.00000  Uiso   1.00
C111   C     0.55629   0.88474   0.61301   0.00000  Uiso   1.00
C112   C     0.69075   0.87242   0.60842   0.00000  Uiso   1.00
C113   C     0.13046   0.80287   0.48027   0.00000  Uiso   1.00
C114   C     0.99624   0.86652   0.43563   0.00000  Uiso   1.00
C115   C     0.87457   0.84586   0.34991   0.00000  Uiso   1.00
H116   H     0.30958   0.59841   0.47074   0.00000  Uiso   1.00
H117   H     0.31067   0.47879   0.57492   0.00000  Uiso   1.00
H118   H     0.59078   0.65597   0.50178   0.00000  Uiso   1.00
H119   H     0.03082   0.63774   0.32443   0.00000  Uiso   1.00
H120   H     0.30652   0.38206   0.70790   0.00000  Uiso   1.00
H121   H     0.89711   0.75567   0.55366   0.00000  Uiso   1.00
H122   H     0.71632   0.71724   0.17968   0.00000  Uiso   1.00
H123   H     0.26783   0.87499   0.60519   0.00000  Uiso   1.00
H124   H     0.26662   0.77054   0.71676   0.00000  Uiso   1.00
H125   H     0.54674   0.94772   0.64362   0.00000  Uiso   1.00
H126   H     0.98677   0.92949   0.46627   0.00000  Uiso   1.00
H127   H     0.27077   0.61886   0.82302   0.00000  Uiso   1.00
H128   H     0.86137   0.99247   0.66877   0.00000  Uiso   1.00
H129   H     0.68058   0.95403   0.29480   0.00000  Uiso   1.00
O130   O     0.28866   0.42676   0.83644   0.00000  Uiso   1.00
O131   O     0.06348   0.91693   0.63406   0.00000  Uiso   1.00
O132   O     0.51431   0.86650   0.14342   0.00000  Uiso   1.00
N133   N     0.29824   0.45212   0.71967   0.00000  Uiso   1.00
N134   N     0.85042   0.80142   0.57548   0.00000  Uiso   1.00
N135   N     0.74651   0.76550   0.22583   0.00000  Uiso   1.00
N136   N     0.27900   0.57954   0.78162   0.00000  Uiso   1.00
N137   N     0.83119   0.92884   0.63742   0.00000  Uiso   1.00
N138   N     0.72727   0.89292   0.28777   0.00000  Uiso   1.00
C139   C     0.69999   0.66177   0.99846   0.00000  Uiso   1.00
C140   C     0.70521   0.63513   0.92321   0.00000  Uiso   1.00
C141   C     0.69885   0.54176   0.89444   0.00000  Uiso   1.00
C142   C     0.70522   0.53263   0.82462   0.00000  Uiso   1.00
C143   C     0.71137   0.47889   0.71377   0.00000  Uiso   1.00
C144   C     0.55300   0.73140   0.96294   0.00000  Uiso   1.00
C145   C     0.41869   0.71896   0.96759   0.00000  Uiso   1.00
C146   C     0.29694   0.79088   0.93121   0.00000  Uiso   1.00
C147   C     0.06685   0.88662   0.88210   0.00000  Uiso   1.00
C148   C     0.85725   0.72148   0.05930   0.00000  Uiso   1.00
C149   C     0.97873   0.70073   0.14497   0.00000  Uiso   1.00
C150   C     0.11313   0.76432   0.18973   0.00000  Uiso   1.00
C151   C     0.35542   0.84467   0.29022   0.00000  Uiso   1.00
C152   C     0.72261   0.81162   0.92561   0.00000  Uiso   1.00
C153   C     0.71749   0.71653   0.88365   0.00000  Uiso   1.00
C154   C     0.72388   0.70754   0.81385   0.00000  Uiso   1.00
C155   C     0.71754   0.61417   0.78498   0.00000  Uiso   1.00
C156   C     0.56528   0.81278   0.92338   0.00000  Uiso   1.00
C157   C     0.44371   0.88474   0.88699   0.00000  Uiso   1.00
C158   C     0.30925   0.87242   0.89158   0.00000  Uiso   1.00
C159   C     0.86954   0.80287   0.01973   0.00000  Uiso   1.00
C160   C     0.00376   0.86652   0.06437   0.00000  Uiso   1.00
C161   C     0.12543   0.84586   0.15009   0.00000  Uiso   1.00
H162   H     0.69042   0.59841   0.02926   0.00000  Uiso   1.00
H163   H     0.68933   0.47879   0.92508   0.00000  Uiso   1.00
H164   H     0.40922   0.65597   0.99822   0.00000  Uiso   1.00
H165   H     0.96918   0.63774   0.17557   0.00000  Uiso   1.00
H166   H     0.69348   0.38206   0.79210   0.00000  Uiso   1.00
H167   H     0.10289   0.75567   0.94634   0.00000  Uiso   1.00
H168   H     0.28368   0.71724   0.32032   0.00000  Uiso   1.00
H169   H     0.73217   0.87499   0.89481   0.00000  Uiso   1.00
H170   H     0.73338   0.77054   0.78324   0.00000  Uiso   1.00
H171   H     0.45326   0.94772   0.85638   0.00000  Uiso   1.00
H172   H     0.01323   0.92949   0.03373   0.00000  Uiso   1.00
H173   H     0.72923   0.61886   0.67698   0.00000  Uiso   1.00
H174   H     0.13863   0.99247   0.83123   0.00000  Uiso   1.00
H175   H     0.31942   0.95403   0.20520   0.00000  Uiso   1.00
O176   O     0.71134   0.42676   0.66356   0.00000  Uiso   1.00
O177   O     0.93652   0.91693   0.86594   0.00000  Uiso   1.00
O178   O     0.48569   0.86650   0.35658   0.00000  Uiso   1.00
N179   N     0.70176   0.45212   0.78033   0.00000  Uiso   1.00
N180   N     0.14958   0.80142   0.92452   0.00000  Uiso   1.00
N181   N     0.25349   0.76550   0.27417   0.00000  Uiso   1.00
N182   N     0.72100   0.57954   0.71838   0.00000  Uiso   1.00
N183   N     0.16881   0.92884   0.86258   0.00000  Uiso   1.00
N184   N     0.27273   0.89292   0.21223   0.00000  Uiso   1.00
