data_job_05758
_audit_creation_date              2018-12-19
_audit_creation_method            'Materials Studio'
_symmetry_space_group_name_H-M    'P1'
_symmetry_Int_Tables_number       1
_symmetry_cell_setting            triclinic
loop_
_symmetry_equiv_pos_as_xyz
  x,y,z
_cell_length_a                    19.3293
_cell_length_b                    12.2958
_cell_length_c                    12.8900
_cell_angle_alpha                 90.0000
_cell_angle_beta                  85.8749
_cell_angle_gamma                 90.0000
loop_
_atom_site_label
_atom_site_type_symbol
_atom_site_fract_x
_atom_site_fract_y
_atom_site_fract_z
_atom_site_U_iso_or_equiv
_atom_site_adp_type
_atom_site_occupancy
C1     C     0.05715   0.21605   0.71125   0.00000  Uiso   1.00
C2     C     0.08906   0.10316   0.69682   0.00000  Uiso   1.00
C3     C     0.08380   0.03633   0.61099   0.00000  Uiso   1.00
C4     C     0.11667   0.93601   0.61267   0.00000  Uiso   1.00
C5     C     0.16059   0.76559   0.57743   0.00000  Uiso   1.00
C6     C     0.01181   0.21182   0.81300   0.00000  Uiso   1.00
C7     C     0.94161   0.23638   0.82483   0.00000  Uiso   1.00
C8     C     0.90945   0.22754   0.92432   0.00000  Uiso   1.00
C9     C     0.83346   0.22591   0.06946   0.00000  Uiso   1.00
C10    C     0.11699   0.29252   0.73058   0.00000  Uiso   1.00
C11    C     0.13520   0.38494   0.67314   0.00000  Uiso   1.00
C12    C     0.19159   0.44407   0.70325   0.00000  Uiso   1.00
C13    C     0.27889   0.56773   0.72042   0.00000  Uiso   1.00
C14    C     0.12488   0.15673   0.86687   0.00000  Uiso   1.00
C15    C     0.12585   0.07094   0.78135   0.00000  Uiso   1.00
C16    C     0.15874   0.97070   0.78316   0.00000  Uiso   1.00
C17    C     0.15353   0.90373   0.69734   0.00000  Uiso   1.00
C18    C     0.04860   0.17960   0.89752   0.00000  Uiso   1.00
C19    C     0.01654   0.17074   0.99701   0.00000  Uiso   1.00
C20    C     0.94631   0.19527   0.00900   0.00000  Uiso   1.00
C21    C     0.15378   0.26030   0.81510   0.00000  Uiso   1.00
C22    C     0.21014   0.31930   0.84531   0.00000  Uiso   1.00
C23    C     0.22844   0.41179   0.78793   0.00000  Uiso   1.00
H24    H     0.02851   0.24114   0.64544   0.00000  Uiso   1.00
H25    H     0.05532   0.06129   0.54559   0.00000  Uiso   1.00
H26    H     0.91316   0.26132   0.75941   0.00000  Uiso   1.00
H27    H     0.10672   0.40985   0.60773   0.00000  Uiso   1.00
H28    H     0.10125   0.84767   0.47218   0.00000  Uiso   1.00
H29    H     0.80149   0.26947   0.92303   0.00000  Uiso   1.00
H30    H     0.20966   0.58269   0.60320   0.00000  Uiso   1.00
H31    H     0.15352   0.13165   0.93268   0.00000  Uiso   1.00
H32    H     0.18720   0.94578   0.84859   0.00000  Uiso   1.00
H33    H     0.04503   0.14581   0.06241   0.00000  Uiso   1.00
H34    H     0.23859   0.29435   0.91073   0.00000  Uiso   1.00
H35    H     0.20828   0.75392   0.71810   0.00000  Uiso   1.00
H36    H     0.90852   0.17572   0.16896   0.00000  Uiso   1.00
H37    H     0.31669   0.48894   0.84912   0.00000  Uiso   1.00
O38    O     0.17465   0.68049   0.53465   0.00000  Uiso   1.00
O39    O     0.78138   0.23390   0.12616   0.00000  Uiso   1.00
O40    O     0.31689   0.64483   0.70653   0.00000  Uiso   1.00
N41    N     0.12183   0.85112   0.54159   0.00000  Uiso   1.00
N42    N     0.84157   0.24546   0.96311   0.00000  Uiso   1.00
N43    N     0.22316   0.53832   0.66410   0.00000  Uiso   1.00
N44    N     0.17943   0.80067   0.67392   0.00000  Uiso   1.00
N45    N     0.89917   0.19502   0.09544   0.00000  Uiso   1.00
N46    N     0.28076   0.48787   0.79643   0.00000  Uiso   1.00
C47    C     0.56713   0.68043   0.71031   0.00000  Uiso   1.00
C48    C     0.59876   0.56722   0.69712   0.00000  Uiso   1.00
C49    C     0.59437   0.50019   0.61124   0.00000  Uiso   1.00
C50    C     0.62680   0.39959   0.61417   0.00000  Uiso   1.00
C51    C     0.67048   0.22870   0.58066   0.00000  Uiso   1.00
C52    C     0.52055   0.67689   0.81088   0.00000  Uiso   1.00
C53    C     0.45039   0.70208   0.82064   0.00000  Uiso   1.00
C54    C     0.41698   0.69382   0.91934   0.00000  Uiso   1.00
C55    C     0.33924   0.69327   0.06247   0.00000  Uiso   1.00
C56    C     0.62690   0.75644   0.73116   0.00000  Uiso   1.00
C57    C     0.64616   0.84854   0.67390   0.00000  Uiso   1.00
C58    C     0.70229   0.90727   0.70550   0.00000  Uiso   1.00
C59    C     0.78968   0.03023   0.72484   0.00000  Uiso   1.00
C60    C     0.63254   0.62100   0.86825   0.00000  Uiso   1.00
C61    C     0.63429   0.53494   0.78291   0.00000  Uiso   1.00
C62    C     0.66674   0.43442   0.78597   0.00000  Uiso   1.00
C63    C     0.66239   0.36725   0.70010   0.00000  Uiso   1.00
C64    C     0.55607   0.64461   0.89667   0.00000  Uiso   1.00
C65    C     0.52276   0.63632   0.99538   0.00000  Uiso   1.00
C66    C     0.45257   0.66148   0.00528   0.00000  Uiso   1.00
C67    C     0.66243   0.72416   0.81695   0.00000  Uiso   1.00
C68    C     0.71854   0.78277   0.84864   0.00000  Uiso   1.00
C69    C     0.73788   0.87493   0.79144   0.00000  Uiso   1.00
H70    H     0.53947   0.70557   0.64353   0.00000  Uiso   1.00
H71    H     0.56686   0.52520   0.54487   0.00000  Uiso   1.00
H72    H     0.42291   0.72707   0.75424   0.00000  Uiso   1.00
H73    H     0.61866   0.87350   0.60752   0.00000  Uiso   1.00
H74    H     0.61288   0.31097   0.47333   0.00000  Uiso   1.00
H75    H     0.30936   0.73667   0.91481   0.00000  Uiso   1.00
H76    H     0.72212   0.04544   0.60543   0.00000  Uiso   1.00
H77    H     0.66020   0.59586   0.93504   0.00000  Uiso   1.00
H78    H     0.69423   0.40946   0.85237   0.00000  Uiso   1.00
H79    H     0.55027   0.61134   0.06175   0.00000  Uiso   1.00
H80    H     0.74602   0.75776   0.91503   0.00000  Uiso   1.00
H81    H     0.71625   0.21703   0.72291   0.00000  Uiso   1.00
H82    H     0.41273   0.64274   0.16440   0.00000  Uiso   1.00
H83    H     0.82549   0.95150   0.85502   0.00000  Uiso   1.00
O84    O     0.68475   0.14335   0.53849   0.00000  Uiso   1.00
O85    O     0.28654   0.70187   0.11771   0.00000  Uiso   1.00
O86    O     0.82808   0.10696   0.71180   0.00000  Uiso   1.00
N87    N     0.63255   0.31445   0.54340   0.00000  Uiso   1.00
N88    N     0.34877   0.71244   0.95617   0.00000  Uiso   1.00
N89    N     0.73466   0.00113   0.66693   0.00000  Uiso   1.00
N90    N     0.68818   0.26390   0.67770   0.00000  Uiso   1.00
N91    N     0.40440   0.66189   0.09046   0.00000  Uiso   1.00
N92    N     0.79029   0.95058   0.80123   0.00000  Uiso   1.00
C93    C     0.94285   0.71605   0.28875   0.00000  Uiso   1.00
C94    C     0.91094   0.60316   0.30318   0.00000  Uiso   1.00
C95    C     0.91620   0.53633   0.38901   0.00000  Uiso   1.00
C96    C     0.88333   0.43601   0.38733   0.00000  Uiso   1.00
C97    C     0.83941   0.26559   0.42257   0.00000  Uiso   1.00
C98    C     0.98819   0.71182   0.18700   0.00000  Uiso   1.00
C99    C     0.05839   0.73638   0.17517   0.00000  Uiso   1.00
C100   C     0.09055   0.72754   0.07568   0.00000  Uiso   1.00
C101   C     0.16654   0.72591   0.93054   0.00000  Uiso   1.00
C102   C     0.88301   0.79252   0.26942   0.00000  Uiso   1.00
C103   C     0.86480   0.88494   0.32686   0.00000  Uiso   1.00
C104   C     0.80841   0.94407   0.29675   0.00000  Uiso   1.00
C105   C     0.72111   0.06773   0.27958   0.00000  Uiso   1.00
C106   C     0.87512   0.65673   0.13313   0.00000  Uiso   1.00
C107   C     0.87415   0.57094   0.21865   0.00000  Uiso   1.00
C108   C     0.84126   0.47070   0.21684   0.00000  Uiso   1.00
C109   C     0.84647   0.40373   0.30266   0.00000  Uiso   1.00
C110   C     0.95140   0.67960   0.10248   0.00000  Uiso   1.00
C111   C     0.98346   0.67074   0.00299   0.00000  Uiso   1.00
C112   C     0.05369   0.69527   0.99100   0.00000  Uiso   1.00
C113   C     0.84622   0.76030   0.18490   0.00000  Uiso   1.00
C114   C     0.78986   0.81930   0.15469   0.00000  Uiso   1.00
C115   C     0.77156   0.91179   0.21207   0.00000  Uiso   1.00
H116   H     0.97149   0.74114   0.35456   0.00000  Uiso   1.00
H117   H     0.94468   0.56129   0.45441   0.00000  Uiso   1.00
H118   H     0.08684   0.76132   0.24059   0.00000  Uiso   1.00
H119   H     0.89328   0.90985   0.39227   0.00000  Uiso   1.00
H120   H     0.89875   0.34767   0.52782   0.00000  Uiso   1.00
H121   H     0.19851   0.76947   0.07697   0.00000  Uiso   1.00
H122   H     0.79034   0.08269   0.39680   0.00000  Uiso   1.00
H123   H     0.84648   0.63165   0.06732   0.00000  Uiso   1.00
H124   H     0.81280   0.44578   0.15141   0.00000  Uiso   1.00
H125   H     0.95497   0.64581   0.93759   0.00000  Uiso   1.00
H126   H     0.76141   0.79435   0.08927   0.00000  Uiso   1.00
H127   H     0.79172   0.25392   0.28190   0.00000  Uiso   1.00
H128   H     0.09148   0.67572   0.83104   0.00000  Uiso   1.00
H129   H     0.68331   0.98894   0.15088   0.00000  Uiso   1.00
O130   O     0.82535   0.18049   0.46535   0.00000  Uiso   1.00
O131   O     0.21862   0.73390   0.87384   0.00000  Uiso   1.00
O132   O     0.68311   0.14483   0.29347   0.00000  Uiso   1.00
N133   N     0.87817   0.35112   0.45841   0.00000  Uiso   1.00
N134   N     0.15843   0.74546   0.03689   0.00000  Uiso   1.00
N135   N     0.77684   0.03832   0.33590   0.00000  Uiso   1.00
N136   N     0.82057   0.30067   0.32608   0.00000  Uiso   1.00
N137   N     0.10083   0.69502   0.90456   0.00000  Uiso   1.00
N138   N     0.71924   0.98787   0.20357   0.00000  Uiso   1.00
C139   C     0.43287   0.18043   0.28969   0.00000  Uiso   1.00
C140   C     0.40124   0.06722   0.30288   0.00000  Uiso   1.00
C141   C     0.40563   0.00019   0.38876   0.00000  Uiso   1.00
C142   C     0.37320   0.89959   0.38583   0.00000  Uiso   1.00
C143   C     0.32952   0.72870   0.41934   0.00000  Uiso   1.00
C144   C     0.47945   0.17689   0.18912   0.00000  Uiso   1.00
C145   C     0.54961   0.20208   0.17936   0.00000  Uiso   1.00
C146   C     0.58302   0.19382   0.08066   0.00000  Uiso   1.00
C147   C     0.66076   0.19327   0.93753   0.00000  Uiso   1.00
C148   C     0.37310   0.25644   0.26884   0.00000  Uiso   1.00
C149   C     0.35384   0.34854   0.32610   0.00000  Uiso   1.00
C150   C     0.29771   0.40727   0.29450   0.00000  Uiso   1.00
C151   C     0.21032   0.53023   0.27516   0.00000  Uiso   1.00
C152   C     0.36746   0.12100   0.13175   0.00000  Uiso   1.00
C153   C     0.36571   0.03494   0.21709   0.00000  Uiso   1.00
C154   C     0.33326   0.93442   0.21403   0.00000  Uiso   1.00
C155   C     0.33761   0.86725   0.29990   0.00000  Uiso   1.00
C156   C     0.44393   0.14461   0.10333   0.00000  Uiso   1.00
C157   C     0.47724   0.13632   0.00462   0.00000  Uiso   1.00
C158   C     0.54743   0.16148   0.99472   0.00000  Uiso   1.00
C159   C     0.33757   0.22416   0.18305   0.00000  Uiso   1.00
C160   C     0.28146   0.28277   0.15136   0.00000  Uiso   1.00
C161   C     0.26212   0.37493   0.20856   0.00000  Uiso   1.00
H162   H     0.46053   0.20557   0.35647   0.00000  Uiso   1.00
H163   H     0.43314   0.02520   0.45513   0.00000  Uiso   1.00
H164   H     0.57709   0.22707   0.24576   0.00000  Uiso   1.00
H165   H     0.38134   0.37350   0.39248   0.00000  Uiso   1.00
H166   H     0.38712   0.81097   0.52667   0.00000  Uiso   1.00
H167   H     0.69064   0.23667   0.08519   0.00000  Uiso   1.00
H168   H     0.27788   0.54544   0.39457   0.00000  Uiso   1.00
H169   H     0.33980   0.09586   0.06496   0.00000  Uiso   1.00
H170   H     0.30577   0.90946   0.14763   0.00000  Uiso   1.00
H171   H     0.44973   0.11134   0.93825   0.00000  Uiso   1.00
H172   H     0.25398   0.25776   0.08497   0.00000  Uiso   1.00
H173   H     0.28375   0.71703   0.27709   0.00000  Uiso   1.00
H174   H     0.58727   0.14274   0.83560   0.00000  Uiso   1.00
H175   H     0.17451   0.45150   0.14498   0.00000  Uiso   1.00
O176   O     0.31525   0.64335   0.46151   0.00000  Uiso   1.00
O177   O     0.71346   0.20187   0.88229   0.00000  Uiso   1.00
O178   O     0.17192   0.60696   0.28820   0.00000  Uiso   1.00
N179   N     0.36745   0.81445   0.45660   0.00000  Uiso   1.00
N180   N     0.65123   0.21244   0.04383   0.00000  Uiso   1.00
N181   N     0.26534   0.50113   0.33307   0.00000  Uiso   1.00
N182   N     0.31182   0.76390   0.32230   0.00000  Uiso   1.00
N183   N     0.59560   0.16189   0.90954   0.00000  Uiso   1.00
N184   N     0.20971   0.45058   0.19877   0.00000  Uiso   1.00
