data_job_06050
_audit_creation_date              2018-12-19
_audit_creation_method            'Materials Studio'
_symmetry_space_group_name_H-M    'P1'
_symmetry_Int_Tables_number       1
_symmetry_cell_setting            triclinic
loop_
_symmetry_equiv_pos_as_xyz
  x,y,z
_cell_length_a                    17.2551
_cell_length_b                    17.1736
_cell_length_c                    17.0851
_cell_angle_alpha                 108.1320
_cell_angle_beta                  108.1270
_cell_angle_gamma                 108.1000
loop_
_atom_site_label
_atom_site_type_symbol
_atom_site_fract_x
_atom_site_fract_y
_atom_site_fract_z
_atom_site_U_iso_or_equiv
_atom_site_adp_type
_atom_site_occupancy
C1     C     0.91193   0.88059   0.38784   0.00000  Uiso   1.00
C2     C     0.90151   0.79917   0.40929   0.00000  Uiso   1.00
C3     C     0.92870   0.80357   0.49666   0.00000  Uiso   1.00
C4     C     0.91321   0.72137   0.50172   0.00000  Uiso   1.00
C5     C     0.90336   0.60766   0.54712   0.00000  Uiso   1.00
C6     C     0.96603   0.87896   0.33226   0.00000  Uiso   1.00
C7     C     0.04746   0.95045   0.35486   0.00000  Uiso   1.00
C8     C     0.08627   0.93542   0.29506   0.00000  Uiso   1.00
C9     C     0.17654   0.94562   0.22084   0.00000  Uiso   1.00
C10    C     0.81626   0.85823   0.32167   0.00000  Uiso   1.00
C11    C     0.77177   0.91230   0.33534   0.00000  Uiso   1.00
C12    C     0.68449   0.87983   0.26662   0.00000  Uiso   1.00
C13    C     0.54222   0.85784   0.17595   0.00000  Uiso   1.00
C14    C     0.83607   0.72678   0.24147   0.00000  Uiso   1.00
C15    C     0.86032   0.71563   0.32979   0.00000  Uiso   1.00
C16    C     0.84478   0.63340   0.33472   0.00000  Uiso   1.00
C17    C     0.87194   0.63768   0.42208   0.00000  Uiso   1.00
C18    C     0.92483   0.79542   0.25276   0.00000  Uiso   1.00
C19    C     0.96353   0.78029   0.19292   0.00000  Uiso   1.00
C20    C     0.04499   0.85173   0.21542   0.00000  Uiso   1.00
C21    C     0.77506   0.77469   0.24217   0.00000  Uiso   1.00
C22    C     0.68784   0.74213   0.17340   0.00000  Uiso   1.00
C23    C     0.64322   0.79614   0.18697   0.00000  Uiso   1.00
H24    H     0.94401   0.94563   0.44973   0.00000  Uiso   1.00
H25    H     0.96059   0.86823   0.55817   0.00000  Uiso   1.00
H26    H     0.07932   0.01510   0.41638   0.00000  Uiso   1.00
H27    H     0.80367   0.97695   0.39687   0.00000  Uiso   1.00
H28    H     0.96084   0.74559   0.64333   0.00000  Uiso   1.00
H29    H     0.21116   0.05527   0.34434   0.00000  Uiso   1.00
H30    H     0.62991   0.97483   0.30321   0.00000  Uiso   1.00
H31    H     0.80400   0.66174   0.17957   0.00000  Uiso   1.00
H32    H     0.81289   0.56876   0.27318   0.00000  Uiso   1.00
H33    H     0.93162   0.71563   0.13140   0.00000  Uiso   1.00
H34    H     0.65598   0.67748   0.11189   0.00000  Uiso   1.00
H35    H     0.84097   0.50253   0.41202   0.00000  Uiso   1.00
H36    H     0.09129   0.81222   0.11304   0.00000  Uiso   1.00
H37    H     0.51004   0.73177   0.07191   0.00000  Uiso   1.00
O38    O     0.90931   0.56802   0.59413   0.00000  Uiso   1.00
O39    O     0.23772   0.97432   0.20187   0.00000  Uiso   1.00
O40    O     0.47513   0.86878   0.14791   0.00000  Uiso   1.00
N41    N     0.93139   0.70114   0.57604   0.00000  Uiso   1.00
N42    N     0.16544   0.99067   0.29652   0.00000  Uiso   1.00
N43    N     0.62202   0.91548   0.25805   0.00000  Uiso   1.00
N44    N     0.86689   0.57035   0.45158   0.00000  Uiso   1.00
N45    N     0.10093   0.85988   0.17206   0.00000  Uiso   1.00
N46    N     0.55752   0.78469   0.13359   0.00000  Uiso   1.00
C47    C     0.38721   0.91158   0.88085   0.00000  Uiso   1.00
C48    C     0.40830   0.90099   0.79890   0.00000  Uiso   1.00
C49    C     0.49473   0.92814   0.80317   0.00000  Uiso   1.00
C50    C     0.49960   0.91248   0.72046   0.00000  Uiso   1.00
C51    C     0.54433   0.90236   0.60598   0.00000  Uiso   1.00
C52    C     0.33231   0.96610   0.87937   0.00000  Uiso   1.00
C53    C     0.35484   0.04797   0.95131   0.00000  Uiso   1.00
C54    C     0.29574   0.08711   0.93634   0.00000  Uiso   1.00
C55    C     0.22246   0.17803   0.94683   0.00000  Uiso   1.00
C56    C     0.32164   0.81553   0.85843   0.00000  Uiso   1.00
C57    C     0.33519   0.77082   0.91276   0.00000  Uiso   1.00
C58    C     0.26709   0.68320   0.88016   0.00000  Uiso   1.00
C59    C     0.17724   0.54035   0.85812   0.00000  Uiso   1.00
C60    C     0.24218   0.83550   0.72638   0.00000  Uiso   1.00
C61    C     0.32952   0.85967   0.71500   0.00000  Uiso   1.00
C62    C     0.33426   0.84396   0.63226   0.00000  Uiso   1.00
C63    C     0.42068   0.87108   0.63641   0.00000  Uiso   1.00
C64    C     0.25354   0.92477   0.79548   0.00000  Uiso   1.00
C65    C     0.19438   0.96379   0.78040   0.00000  Uiso   1.00
C66    C     0.21682   0.04571   0.85229   0.00000  Uiso   1.00
C67    C     0.24286   0.77420   0.77452   0.00000  Uiso   1.00
C68    C     0.17473   0.68664   0.74185   0.00000  Uiso   1.00
C69    C     0.18817   0.64180   0.79611   0.00000  Uiso   1.00
H70    H     0.44854   0.94376   0.94618   0.00000  Uiso   1.00
H71    H     0.55568   0.96013   0.86812   0.00000  Uiso   1.00
H72    H     0.41581   0.07993   0.01623   0.00000  Uiso   1.00
H73    H     0.39616   0.80282   0.97768   0.00000  Uiso   1.00
H74    H     0.63972   0.96007   0.74457   0.00000  Uiso   1.00
H75    H     0.34478   0.21268   0.05690   0.00000  Uiso   1.00
H76    H     0.30334   0.62833   0.97560   0.00000  Uiso   1.00
H77    H     0.18084   0.80332   0.66106   0.00000  Uiso   1.00
H78    H     0.27329   0.81198   0.56735   0.00000  Uiso   1.00
H79    H     0.13342   0.93179   0.71547   0.00000  Uiso   1.00
H80    H     0.11377   0.65468   0.67692   0.00000  Uiso   1.00
H81    H     0.41052   0.83984   0.50046   0.00000  Uiso   1.00
H82    H     0.11558   0.09244   0.81279   0.00000  Uiso   1.00
H83    H     0.07414   0.50810   0.73149   0.00000  Uiso   1.00
O84    O     0.59076   0.90821   0.56602   0.00000  Uiso   1.00
O85    O     0.20381   0.23961   0.97579   0.00000  Uiso   1.00
O86    O     0.14945   0.47296   0.86913   0.00000  Uiso   1.00
N87    N     0.57309   0.93057   0.69998   0.00000  Uiso   1.00
N88    N     0.29735   0.16675   0.99198   0.00000  Uiso   1.00
N89    N     0.25859   0.62045   0.91599   0.00000  Uiso   1.00
N90    N     0.44976   0.86587   0.56862   0.00000  Uiso   1.00
N91    N     0.17402   0.10205   0.86062   0.00000  Uiso   1.00
N92    N     0.13527   0.55575   0.78463   0.00000  Uiso   1.00
C93    C     0.88004   0.38733   0.91117   0.00000  Uiso   1.00
C94    C     0.79901   0.40870   0.90070   0.00000  Uiso   1.00
C95    C     0.80336   0.49560   0.92807   0.00000  Uiso   1.00
C96    C     0.72156   0.50067   0.91249   0.00000  Uiso   1.00
C97    C     0.60840   0.54588   0.90259   0.00000  Uiso   1.00
C98    C     0.87859   0.33219   0.96597   0.00000  Uiso   1.00
C99    C     0.94986   0.35476   0.04819   0.00000  Uiso   1.00
C100   C     0.93505   0.29541   0.08755   0.00000  Uiso   1.00
C101   C     0.94546   0.22180   0.17893   0.00000  Uiso   1.00
C102   C     0.85765   0.32137   0.81455   0.00000  Uiso   1.00
C103   C     0.91133   0.33482   0.76947   0.00000  Uiso   1.00
C104   C     0.87890   0.26635   0.68134   0.00000  Uiso   1.00
C105   C     0.85680   0.17594   0.53762   0.00000  Uiso   1.00
C106   C     0.72702   0.24179   0.83484   0.00000  Uiso   1.00
C107   C     0.71590   0.32964   0.85925   0.00000  Uiso   1.00
C108   C     0.63407   0.33458   0.84362   0.00000  Uiso   1.00
C109   C     0.63830   0.42147   0.87095   0.00000  Uiso   1.00
C110   C     0.79548   0.25314   0.92451   0.00000  Uiso   1.00
C111   C     0.78057   0.19374   0.96374   0.00000  Uiso   1.00
C112   C     0.85179   0.21622   0.04601   0.00000  Uiso   1.00
C113   C     0.77454   0.24231   0.77308   0.00000  Uiso   1.00
C114   C     0.74203   0.17380   0.68501   0.00000  Uiso   1.00
C115   C     0.79564   0.18715   0.63981   0.00000  Uiso   1.00
H116   H     0.94475   0.44888   0.94345   0.00000  Uiso   1.00
H117   H     0.86770   0.55677   0.96016   0.00000  Uiso   1.00
H118   H     0.01417   0.41594   0.08026   0.00000  Uiso   1.00
H119   H     0.97564   0.39601   0.80157   0.00000  Uiso   1.00
H120   H     0.74563   0.64152   0.96043   0.00000  Uiso   1.00
H121   H     0.05449   0.34457   0.21365   0.00000  Uiso   1.00
H122   H     0.97324   0.30254   0.62599   0.00000  Uiso   1.00
H123   H     0.66231   0.18024   0.80256   0.00000  Uiso   1.00
H124   H     0.56976   0.27339   0.81153   0.00000  Uiso   1.00
H125   H     0.71624   0.13256   0.93164   0.00000  Uiso   1.00
H126   H     0.67771   0.11263   0.65295   0.00000  Uiso   1.00
H127   H     0.50382   0.41152   0.83980   0.00000  Uiso   1.00
H128   H     0.81268   0.11457   0.09302   0.00000  Uiso   1.00
H129   H     0.73143   0.07254   0.50536   0.00000  Uiso   1.00
O130   O     0.56894   0.59265   0.90859   0.00000  Uiso   1.00
O131   O     0.97416   0.20305   0.24079   0.00000  Uiso   1.00
O132   O     0.86757   0.14791   0.46979   0.00000  Uiso   1.00
N133   N     0.70142   0.57461   0.93079   0.00000  Uiso   1.00
N134   N     0.99018   0.29698   0.16754   0.00000  Uiso   1.00
N135   N     0.91423   0.25767   0.61814   0.00000  Uiso   1.00
N136   N     0.57130   0.45085   0.86588   0.00000  Uiso   1.00
N137   N     0.86006   0.17322   0.10263   0.00000  Uiso   1.00
N138   N     0.78411   0.13391   0.55323   0.00000  Uiso   1.00
C139   C     0.08807   0.11941   0.61216   0.00000  Uiso   1.00
C140   C     0.09849   0.20083   0.59071   0.00000  Uiso   1.00
C141   C     0.07130   0.19643   0.50334   0.00000  Uiso   1.00
C142   C     0.08679   0.27863   0.49828   0.00000  Uiso   1.00
C143   C     0.09664   0.39234   0.45288   0.00000  Uiso   1.00
C144   C     0.03397   0.12104   0.66774   0.00000  Uiso   1.00
C145   C     0.95254   0.04955   0.64514   0.00000  Uiso   1.00
C146   C     0.91373   0.06458   0.70494   0.00000  Uiso   1.00
C147   C     0.82346   0.05438   0.77916   0.00000  Uiso   1.00
C148   C     0.18374   0.14177   0.67833   0.00000  Uiso   1.00
C149   C     0.22823   0.08770   0.66466   0.00000  Uiso   1.00
C150   C     0.31551   0.12017   0.73338   0.00000  Uiso   1.00
C151   C     0.45778   0.14216   0.82405   0.00000  Uiso   1.00
C152   C     0.16393   0.27322   0.75853   0.00000  Uiso   1.00
C153   C     0.13968   0.28437   0.67021   0.00000  Uiso   1.00
C154   C     0.15522   0.36660   0.66528   0.00000  Uiso   1.00
C155   C     0.12806   0.36232   0.57792   0.00000  Uiso   1.00
C156   C     0.07517   0.20457   0.74724   0.00000  Uiso   1.00
C157   C     0.03647   0.21971   0.80708   0.00000  Uiso   1.00
C158   C     0.95500   0.14827   0.78458   0.00000  Uiso   1.00
C159   C     0.22494   0.22531   0.75783   0.00000  Uiso   1.00
C160   C     0.31216   0.25787   0.82660   0.00000  Uiso   1.00
C161   C     0.35678   0.20386   0.81303   0.00000  Uiso   1.00
H162   H     0.05599   0.05437   0.55027   0.00000  Uiso   1.00
H163   H     0.03941   0.13177   0.44183   0.00000  Uiso   1.00
H164   H     0.92068   0.98490   0.58362   0.00000  Uiso   1.00
H165   H     0.19633   0.02305   0.60313   0.00000  Uiso   1.00
H166   H     0.03916   0.25441   0.35667   0.00000  Uiso   1.00
H167   H     0.78883   0.94473   0.65566   0.00000  Uiso   1.00
H168   H     0.37009   0.02517   0.69679   0.00000  Uiso   1.00
H169   H     0.19600   0.33826   0.82043   0.00000  Uiso   1.00
H170   H     0.18711   0.43124   0.72682   0.00000  Uiso   1.00
H171   H     0.06838   0.28437   0.86860   0.00000  Uiso   1.00
H172   H     0.34402   0.32252   0.88811   0.00000  Uiso   1.00
H173   H     0.15903   0.49747   0.58798   0.00000  Uiso   1.00
H174   H     0.90871   0.18778   0.88696   0.00000  Uiso   1.00
H175   H     0.48996   0.26823   0.92809   0.00000  Uiso   1.00
O176   O     0.09069   0.43198   0.40587   0.00000  Uiso   1.00
O177   O     0.76228   0.02568   0.79813   0.00000  Uiso   1.00
O178   O     0.52487   0.13122   0.85209   0.00000  Uiso   1.00
N179   N     0.06861   0.29886   0.42396   0.00000  Uiso   1.00
N180   N     0.83456   0.00933   0.70348   0.00000  Uiso   1.00
N181   N     0.37798   0.08452   0.74195   0.00000  Uiso   1.00
N182   N     0.13311   0.42965   0.54842   0.00000  Uiso   1.00
N183   N     0.89907   0.14012   0.82794   0.00000  Uiso   1.00
N184   N     0.44248   0.21531   0.86641   0.00000  Uiso   1.00
C185   C     0.61278   0.08842   0.11915   0.00000  Uiso   1.00
C186   C     0.59170   0.09901   0.20110   0.00000  Uiso   1.00
C187   C     0.50527   0.07186   0.19683   0.00000  Uiso   1.00
C188   C     0.50040   0.08752   0.27954   0.00000  Uiso   1.00
C189   C     0.45567   0.09764   0.39402   0.00000  Uiso   1.00
C190   C     0.66769   0.03390   0.12063   0.00000  Uiso   1.00
C191   C     0.64516   0.95203   0.04869   0.00000  Uiso   1.00
C192   C     0.70426   0.91289   0.06366   0.00000  Uiso   1.00
C193   C     0.77754   0.82197   0.05317   0.00000  Uiso   1.00
C194   C     0.67836   0.18447   0.14157   0.00000  Uiso   1.00
C195   C     0.66481   0.22918   0.08724   0.00000  Uiso   1.00
C196   C     0.73291   0.31680   0.11984   0.00000  Uiso   1.00
C197   C     0.82276   0.45965   0.14188   0.00000  Uiso   1.00
C198   C     0.75782   0.16450   0.27362   0.00000  Uiso   1.00
C199   C     0.67048   0.14033   0.28500   0.00000  Uiso   1.00
C200   C     0.66574   0.15604   0.36774   0.00000  Uiso   1.00
C201   C     0.57932   0.12892   0.36359   0.00000  Uiso   1.00
C202   C     0.74646   0.07523   0.20452   0.00000  Uiso   1.00
C203   C     0.80562   0.03621   0.21960   0.00000  Uiso   1.00
C204   C     0.78318   0.95429   0.14771   0.00000  Uiso   1.00
C205   C     0.75714   0.22580   0.22548   0.00000  Uiso   1.00
C206   C     0.82527   0.31336   0.25815   0.00000  Uiso   1.00
C207   C     0.81183   0.35820   0.20389   0.00000  Uiso   1.00
H208   H     0.55146   0.05624   0.05382   0.00000  Uiso   1.00
H209   H     0.44432   0.03987   0.13189   0.00000  Uiso   1.00
H210   H     0.58419   0.92007   0.98377   0.00000  Uiso   1.00
H211   H     0.60384   0.19718   0.02232   0.00000  Uiso   1.00
H212   H     0.36028   0.03992   0.25543   0.00000  Uiso   1.00
H213   H     0.65522   0.78732   0.94310   0.00000  Uiso   1.00
H214   H     0.69666   0.37167   0.02440   0.00000  Uiso   1.00
H215   H     0.81916   0.19668   0.33894   0.00000  Uiso   1.00
H216   H     0.72671   0.18802   0.43265   0.00000  Uiso   1.00
H217   H     0.86658   0.06821   0.28453   0.00000  Uiso   1.00
H218   H     0.88623   0.34532   0.32308   0.00000  Uiso   1.00
H219   H     0.58948   0.16016   0.49954   0.00000  Uiso   1.00
H220   H     0.88442   0.90756   0.18721   0.00000  Uiso   1.00
H221   H     0.92585   0.49190   0.26851   0.00000  Uiso   1.00
O222   O     0.40924   0.09179   0.43398   0.00000  Uiso   1.00
O223   O     0.79619   0.76039   0.02422   0.00000  Uiso   1.00
O224   O     0.85055   0.52704   0.13087   0.00000  Uiso   1.00
N225   N     0.42691   0.06943   0.30002   0.00000  Uiso   1.00
N226   N     0.70265   0.83325   0.00802   0.00000  Uiso   1.00
N227   N     0.74141   0.37955   0.08401   0.00000  Uiso   1.00
N228   N     0.55024   0.13413   0.43138   0.00000  Uiso   1.00
N229   N     0.82598   0.89795   0.13938   0.00000  Uiso   1.00
N230   N     0.86473   0.44425   0.21537   0.00000  Uiso   1.00
C231   C     0.11996   0.61267   0.08883   0.00000  Uiso   1.00
C232   C     0.20099   0.59130   0.09930   0.00000  Uiso   1.00
C233   C     0.19664   0.50440   0.07193   0.00000  Uiso   1.00
C234   C     0.27844   0.49933   0.08751   0.00000  Uiso   1.00
C235   C     0.39160   0.45412   0.09741   0.00000  Uiso   1.00
C236   C     0.12141   0.66781   0.03403   0.00000  Uiso   1.00
C237   C     0.05014   0.64524   0.95181   0.00000  Uiso   1.00
C238   C     0.06495   0.70459   0.91245   0.00000  Uiso   1.00
C239   C     0.05454   0.77820   0.82107   0.00000  Uiso   1.00
C240   C     0.14235   0.67863   0.18545   0.00000  Uiso   1.00
C241   C     0.08867   0.66518   0.23053   0.00000  Uiso   1.00
C242   C     0.12110   0.73365   0.31866   0.00000  Uiso   1.00
C243   C     0.14320   0.82406   0.46238   0.00000  Uiso   1.00
C244   C     0.27298   0.75821   0.16516   0.00000  Uiso   1.00
C245   C     0.28410   0.67036   0.14075   0.00000  Uiso   1.00
C246   C     0.36593   0.66542   0.15638   0.00000  Uiso   1.00
C247   C     0.36170   0.57852   0.12905   0.00000  Uiso   1.00
C248   C     0.20452   0.74686   0.07549   0.00000  Uiso   1.00
C249   C     0.21943   0.80626   0.03626   0.00000  Uiso   1.00
C250   C     0.14821   0.78378   0.95399   0.00000  Uiso   1.00
C251   C     0.22546   0.75769   0.22692   0.00000  Uiso   1.00
C252   C     0.25797   0.82620   0.31499   0.00000  Uiso   1.00
C253   C     0.20436   0.81285   0.36019   0.00000  Uiso   1.00
H254   H     0.05525   0.55112   0.05655   0.00000  Uiso   1.00
H255   H     0.13230   0.44323   0.03984   0.00000  Uiso   1.00
H256   H     0.98583   0.58406   0.91974   0.00000  Uiso   1.00
H257   H     0.02436   0.60399   0.19843   0.00000  Uiso   1.00
H258   H     0.25437   0.35848   0.03957   0.00000  Uiso   1.00
H259   H     0.94551   0.65543   0.78635   0.00000  Uiso   1.00
H260   H     0.02676   0.69746   0.37401   0.00000  Uiso   1.00
H261   H     0.33769   0.81976   0.19744   0.00000  Uiso   1.00
H262   H     0.43024   0.72661   0.18847   0.00000  Uiso   1.00
H263   H     0.28376   0.86744   0.06836   0.00000  Uiso   1.00
H264   H     0.32229   0.88737   0.34705   0.00000  Uiso   1.00
H265   H     0.49618   0.58848   0.16020   0.00000  Uiso   1.00
H266   H     0.18732   0.88543   0.90698   0.00000  Uiso   1.00
H267   H     0.26857   0.92746   0.49464   0.00000  Uiso   1.00
O268   O     0.43106   0.40735   0.09141   0.00000  Uiso   1.00
O269   O     0.02584   0.79695   0.75921   0.00000  Uiso   1.00
O270   O     0.13243   0.85209   0.53021   0.00000  Uiso   1.00
N271   N     0.29858   0.42539   0.06921   0.00000  Uiso   1.00
N272   N     0.00982   0.70302   0.83246   0.00000  Uiso   1.00
N273   N     0.08577   0.74233   0.38186   0.00000  Uiso   1.00
N274   N     0.42870   0.54915   0.13412   0.00000  Uiso   1.00
N275   N     0.13994   0.82678   0.89737   0.00000  Uiso   1.00
N276   N     0.21589   0.86609   0.44677   0.00000  Uiso   1.00
