data_job_05880
_audit_creation_date              2018-12-19
_audit_creation_method            'Materials Studio'
_symmetry_space_group_name_H-M    'P1'
_symmetry_Int_Tables_number       1
_symmetry_cell_setting            triclinic
loop_
_symmetry_equiv_pos_as_xyz
  x,y,z
_cell_length_a                    12.6294
_cell_length_b                    10.1737
_cell_length_c                    30.6408
_cell_angle_alpha                 90.0000
_cell_angle_beta                  66.1223
_cell_angle_gamma                 90.0000
loop_
_atom_site_label
_atom_site_type_symbol
_atom_site_fract_x
_atom_site_fract_y
_atom_site_fract_z
_atom_site_U_iso_or_equiv
_atom_site_adp_type
_atom_site_occupancy
C1     C     0.18254   0.20506   0.38082   0.00000  Uiso   1.00
C2     C     0.28367   0.13222   0.38491   0.00000  Uiso   1.00
C3     C     0.30737   0.12646   0.42531   0.00000  Uiso   1.00
C4     C     0.40402   0.05476   0.42182   0.00000  Uiso   1.00
C5     C     0.55037   0.95139   0.43461   0.00000  Uiso   1.00
C6     C     0.23589   0.29975   0.33899   0.00000  Uiso   1.00
C7     C     0.21940   0.43485   0.34080   0.00000  Uiso   1.00
C8     C     0.27581   0.50417   0.29865   0.00000  Uiso   1.00
C9     C     0.34792   0.66088   0.24015   0.00000  Uiso   1.00
C10    C     0.11682   0.10297   0.36507   0.00000  Uiso   1.00
C11    C     0.00020   0.07262   0.38878   0.00000  Uiso   1.00
C12    C     0.95636   0.97628   0.36858   0.00000  Uiso   1.00
C13    C     0.84359   0.82746   0.35056   0.00000  Uiso   1.00
C14    C     0.31203   0.08795   0.30276   0.00000  Uiso   1.00
C15    C     0.35400   0.06862   0.34251   0.00000  Uiso   1.00
C16    C     0.45064   0.99690   0.33895   0.00000  Uiso   1.00
C17    C     0.47447   0.99103   0.37935   0.00000  Uiso   1.00
C18    C     0.30622   0.23615   0.29660   0.00000  Uiso   1.00
C19    C     0.36266   0.30528   0.25444   0.00000  Uiso   1.00
C20    C     0.34627   0.44045   0.25618   0.00000  Uiso   1.00
C21    C     0.18715   0.03936   0.32267   0.00000  Uiso   1.00
C22    C     0.14347   0.94306   0.30243   0.00000  Uiso   1.00
C23    C     0.02682   0.91257   0.32611   0.00000  Uiso   1.00
H24    H     0.12779   0.25458   0.41383   0.00000  Uiso   1.00
H25    H     0.25292   0.17571   0.45812   0.00000  Uiso   1.00
H26    H     0.16496   0.48404   0.37361   0.00000  Uiso   1.00
H27    H     0.94580   0.12186   0.42159   0.00000  Uiso   1.00
H28    H     0.42270   0.06025   0.48852   0.00000  Uiso   1.00
H29    H     0.23719   0.71038   0.31034   0.00000  Uiso   1.00
H30    H     0.77505   0.94667   0.41151   0.00000  Uiso   1.00
H31    H     0.36679   0.03844   0.26975   0.00000  Uiso   1.00
H32    H     0.50505   0.94769   0.30614   0.00000  Uiso   1.00
H33    H     0.41708   0.25603   0.22164   0.00000  Uiso   1.00
H34    H     0.19792   0.89386   0.26962   0.00000  Uiso   1.00
H35    H     0.62734   0.87519   0.36516   0.00000  Uiso   1.00
H36    H     0.44182   0.52532   0.18698   0.00000  Uiso   1.00
H37    H     0.97968   0.76161   0.28816   0.00000  Uiso   1.00
O38    O     0.61168   0.91196   0.45337   0.00000  Uiso   1.00
O39    O     0.36827   0.76490   0.21960   0.00000  Uiso   1.00
O40    O     0.76196   0.76293   0.35234   0.00000  Uiso   1.00
N41    N     0.45188   0.02913   0.45449   0.00000  Uiso   1.00
N42    N     0.27845   0.63696   0.28791   0.00000  Uiso   1.00
N43    N     0.84638   0.92298   0.38249   0.00000  Uiso   1.00
N44    N     0.56199   0.92954   0.38812   0.00000  Uiso   1.00
N45    N     0.38856   0.53738   0.22153   0.00000  Uiso   1.00
N46    N     0.95649   0.82340   0.31612   0.00000  Uiso   1.00
C47    C     0.81746   0.20506   0.11918   0.00000  Uiso   1.00
C48    C     0.71633   0.13222   0.11509   0.00000  Uiso   1.00
C49    C     0.69263   0.12646   0.07469   0.00000  Uiso   1.00
C50    C     0.59598   0.05476   0.07818   0.00000  Uiso   1.00
C51    C     0.44963   0.95139   0.06539   0.00000  Uiso   1.00
C52    C     0.76411   0.29975   0.16101   0.00000  Uiso   1.00
C53    C     0.78060   0.43485   0.15920   0.00000  Uiso   1.00
C54    C     0.72419   0.50417   0.20135   0.00000  Uiso   1.00
C55    C     0.65208   0.66088   0.25985   0.00000  Uiso   1.00
C56    C     0.88318   0.10297   0.13493   0.00000  Uiso   1.00
C57    C     0.99980   0.07262   0.11122   0.00000  Uiso   1.00
C58    C     0.04364   0.97628   0.13142   0.00000  Uiso   1.00
C59    C     0.15641   0.82746   0.14944   0.00000  Uiso   1.00
C60    C     0.68797   0.08795   0.19724   0.00000  Uiso   1.00
C61    C     0.64600   0.06862   0.15749   0.00000  Uiso   1.00
C62    C     0.54936   0.99690   0.16105   0.00000  Uiso   1.00
C63    C     0.52553   0.99103   0.12065   0.00000  Uiso   1.00
C64    C     0.69378   0.23615   0.20340   0.00000  Uiso   1.00
C65    C     0.63734   0.30528   0.24556   0.00000  Uiso   1.00
C66    C     0.65373   0.44045   0.24382   0.00000  Uiso   1.00
C67    C     0.81285   0.03936   0.17733   0.00000  Uiso   1.00
C68    C     0.85653   0.94306   0.19757   0.00000  Uiso   1.00
C69    C     0.97318   0.91257   0.17389   0.00000  Uiso   1.00
H70    H     0.87221   0.25458   0.08617   0.00000  Uiso   1.00
H71    H     0.74708   0.17571   0.04188   0.00000  Uiso   1.00
H72    H     0.83504   0.48404   0.12639   0.00000  Uiso   1.00
H73    H     0.05420   0.12186   0.07841   0.00000  Uiso   1.00
H74    H     0.57730   0.06025   0.01148   0.00000  Uiso   1.00
H75    H     0.76281   0.71038   0.18966   0.00000  Uiso   1.00
H76    H     0.22495   0.94667   0.08849   0.00000  Uiso   1.00
H77    H     0.63321   0.03844   0.23025   0.00000  Uiso   1.00
H78    H     0.49495   0.94769   0.19386   0.00000  Uiso   1.00
H79    H     0.58292   0.25603   0.27836   0.00000  Uiso   1.00
H80    H     0.80208   0.89386   0.23038   0.00000  Uiso   1.00
H81    H     0.37266   0.87519   0.13484   0.00000  Uiso   1.00
H82    H     0.55818   0.52532   0.31302   0.00000  Uiso   1.00
H83    H     0.02032   0.76161   0.21184   0.00000  Uiso   1.00
O84    O     0.38832   0.91196   0.04663   0.00000  Uiso   1.00
O85    O     0.63173   0.76490   0.28040   0.00000  Uiso   1.00
O86    O     0.23804   0.76293   0.14766   0.00000  Uiso   1.00
N87    N     0.54812   0.02913   0.04551   0.00000  Uiso   1.00
N88    N     0.72155   0.63696   0.21209   0.00000  Uiso   1.00
N89    N     0.15362   0.92298   0.11751   0.00000  Uiso   1.00
N90    N     0.43801   0.92954   0.11188   0.00000  Uiso   1.00
N91    N     0.61144   0.53738   0.27847   0.00000  Uiso   1.00
N92    N     0.04351   0.82340   0.18388   0.00000  Uiso   1.00
C93    C     0.81746   0.79494   0.61918   0.00000  Uiso   1.00
C94    C     0.71633   0.86778   0.61509   0.00000  Uiso   1.00
C95    C     0.69263   0.87354   0.57469   0.00000  Uiso   1.00
C96    C     0.59598   0.94524   0.57818   0.00000  Uiso   1.00
C97    C     0.44963   0.04861   0.56539   0.00000  Uiso   1.00
C98    C     0.76411   0.70025   0.66101   0.00000  Uiso   1.00
C99    C     0.78060   0.56515   0.65920   0.00000  Uiso   1.00
C100   C     0.72419   0.49583   0.70135   0.00000  Uiso   1.00
C101   C     0.65208   0.33912   0.75985   0.00000  Uiso   1.00
C102   C     0.88318   0.89703   0.63493   0.00000  Uiso   1.00
C103   C     0.99980   0.92738   0.61122   0.00000  Uiso   1.00
C104   C     0.04364   0.02372   0.63142   0.00000  Uiso   1.00
C105   C     0.15641   0.17254   0.64944   0.00000  Uiso   1.00
C106   C     0.68797   0.91205   0.69724   0.00000  Uiso   1.00
C107   C     0.64600   0.93138   0.65749   0.00000  Uiso   1.00
C108   C     0.54936   0.00310   0.66105   0.00000  Uiso   1.00
C109   C     0.52553   0.00897   0.62065   0.00000  Uiso   1.00
C110   C     0.69378   0.76385   0.70340   0.00000  Uiso   1.00
C111   C     0.63734   0.69472   0.74556   0.00000  Uiso   1.00
C112   C     0.65373   0.55955   0.74382   0.00000  Uiso   1.00
C113   C     0.81285   0.96064   0.67733   0.00000  Uiso   1.00
C114   C     0.85653   0.05694   0.69757   0.00000  Uiso   1.00
C115   C     0.97318   0.08743   0.67389   0.00000  Uiso   1.00
H116   H     0.87221   0.74542   0.58617   0.00000  Uiso   1.00
H117   H     0.74708   0.82429   0.54188   0.00000  Uiso   1.00
H118   H     0.83504   0.51596   0.62639   0.00000  Uiso   1.00
H119   H     0.05420   0.87814   0.57841   0.00000  Uiso   1.00
H120   H     0.57730   0.93975   0.51148   0.00000  Uiso   1.00
H121   H     0.76281   0.28962   0.68966   0.00000  Uiso   1.00
H122   H     0.22495   0.05333   0.58849   0.00000  Uiso   1.00
H123   H     0.63321   0.96156   0.73025   0.00000  Uiso   1.00
H124   H     0.49495   0.05231   0.69386   0.00000  Uiso   1.00
H125   H     0.58292   0.74397   0.77836   0.00000  Uiso   1.00
H126   H     0.80208   0.10614   0.73038   0.00000  Uiso   1.00
H127   H     0.37266   0.12481   0.63484   0.00000  Uiso   1.00
H128   H     0.55818   0.47468   0.81302   0.00000  Uiso   1.00
H129   H     0.02032   0.23839   0.71184   0.00000  Uiso   1.00
O130   O     0.38832   0.08804   0.54663   0.00000  Uiso   1.00
O131   O     0.63173   0.23510   0.78040   0.00000  Uiso   1.00
O132   O     0.23804   0.23707   0.64766   0.00000  Uiso   1.00
N133   N     0.54812   0.97087   0.54551   0.00000  Uiso   1.00
N134   N     0.72155   0.36304   0.71209   0.00000  Uiso   1.00
N135   N     0.15362   0.07702   0.61751   0.00000  Uiso   1.00
N136   N     0.43801   0.07046   0.61188   0.00000  Uiso   1.00
N137   N     0.61144   0.46262   0.77847   0.00000  Uiso   1.00
N138   N     0.04351   0.17660   0.68388   0.00000  Uiso   1.00
C139   C     0.18254   0.79494   0.88082   0.00000  Uiso   1.00
C140   C     0.28367   0.86778   0.88491   0.00000  Uiso   1.00
C141   C     0.30737   0.87354   0.92531   0.00000  Uiso   1.00
C142   C     0.40402   0.94524   0.92182   0.00000  Uiso   1.00
C143   C     0.55037   0.04861   0.93461   0.00000  Uiso   1.00
C144   C     0.23589   0.70025   0.83899   0.00000  Uiso   1.00
C145   C     0.21940   0.56515   0.84080   0.00000  Uiso   1.00
C146   C     0.27581   0.49583   0.79865   0.00000  Uiso   1.00
C147   C     0.34792   0.33912   0.74015   0.00000  Uiso   1.00
C148   C     0.11682   0.89703   0.86507   0.00000  Uiso   1.00
C149   C     0.00020   0.92738   0.88878   0.00000  Uiso   1.00
C150   C     0.95636   0.02372   0.86858   0.00000  Uiso   1.00
C151   C     0.84359   0.17254   0.85056   0.00000  Uiso   1.00
C152   C     0.31203   0.91205   0.80276   0.00000  Uiso   1.00
C153   C     0.35400   0.93138   0.84251   0.00000  Uiso   1.00
C154   C     0.45064   0.00310   0.83895   0.00000  Uiso   1.00
C155   C     0.47447   0.00897   0.87935   0.00000  Uiso   1.00
C156   C     0.30622   0.76385   0.79660   0.00000  Uiso   1.00
C157   C     0.36266   0.69472   0.75444   0.00000  Uiso   1.00
C158   C     0.34627   0.55955   0.75618   0.00000  Uiso   1.00
C159   C     0.18715   0.96064   0.82267   0.00000  Uiso   1.00
C160   C     0.14347   0.05694   0.80243   0.00000  Uiso   1.00
C161   C     0.02682   0.08743   0.82611   0.00000  Uiso   1.00
H162   H     0.12779   0.74542   0.91383   0.00000  Uiso   1.00
H163   H     0.25292   0.82429   0.95812   0.00000  Uiso   1.00
H164   H     0.16496   0.51596   0.87361   0.00000  Uiso   1.00
H165   H     0.94580   0.87814   0.92159   0.00000  Uiso   1.00
H166   H     0.42270   0.93975   0.98852   0.00000  Uiso   1.00
H167   H     0.23719   0.28962   0.81034   0.00000  Uiso   1.00
H168   H     0.77505   0.05333   0.91151   0.00000  Uiso   1.00
H169   H     0.36679   0.96156   0.76975   0.00000  Uiso   1.00
H170   H     0.50505   0.05231   0.80614   0.00000  Uiso   1.00
H171   H     0.41708   0.74397   0.72164   0.00000  Uiso   1.00
H172   H     0.19792   0.10614   0.76962   0.00000  Uiso   1.00
H173   H     0.62734   0.12481   0.86516   0.00000  Uiso   1.00
H174   H     0.44182   0.47468   0.68698   0.00000  Uiso   1.00
H175   H     0.97968   0.23839   0.78816   0.00000  Uiso   1.00
O176   O     0.61168   0.08804   0.95337   0.00000  Uiso   1.00
O177   O     0.36827   0.23510   0.71960   0.00000  Uiso   1.00
O178   O     0.76196   0.23707   0.85234   0.00000  Uiso   1.00
N179   N     0.45188   0.97087   0.95449   0.00000  Uiso   1.00
N180   N     0.27845   0.36304   0.78791   0.00000  Uiso   1.00
N181   N     0.84638   0.07702   0.88249   0.00000  Uiso   1.00
N182   N     0.56199   0.07046   0.88812   0.00000  Uiso   1.00
N183   N     0.38856   0.46262   0.72153   0.00000  Uiso   1.00
N184   N     0.95649   0.17660   0.81612   0.00000  Uiso   1.00
