data_job_01503
_audit_creation_date              2018-12-19
_audit_creation_method            'Materials Studio'
_symmetry_space_group_name_H-M    'P1'
_symmetry_Int_Tables_number       1
_symmetry_cell_setting            triclinic
loop_
_symmetry_equiv_pos_as_xyz
  x,y,z
_cell_length_a                    23.0822
_cell_length_b                    7.8908
_cell_length_c                    29.2957
_cell_angle_alpha                 90.0000
_cell_angle_beta                  89.9673
_cell_angle_gamma                 90.0000
loop_
_atom_site_label
_atom_site_type_symbol
_atom_site_fract_x
_atom_site_fract_y
_atom_site_fract_z
_atom_site_U_iso_or_equiv
_atom_site_adp_type
_atom_site_occupancy
C1     C     0.40814   0.96719   0.08122   0.00000  Uiso   1.00
C2     C     0.40759   0.11617   0.04807   0.00000  Uiso   1.00
C3     C     0.40707   0.10441   0.00080   0.00000  Uiso   1.00
C4     C     0.40663   0.25552   0.97653   0.00000  Uiso   1.00
C5     C     0.40579   0.46294   0.92166   0.00000  Uiso   1.00
C6     C     0.46124   0.99234   0.11142   0.00000  Uiso   1.00
C7     C     0.50582   0.87645   0.11743   0.00000  Uiso   1.00
C8     C     0.55053   0.92332   0.14649   0.00000  Uiso   1.00
C9     C     0.63296   0.93844   0.19001   0.00000  Uiso   1.00
C10    C     0.35570   0.99130   0.11223   0.00000  Uiso   1.00
C11    C     0.31154   0.87452   0.11892   0.00000  Uiso   1.00
C12    C     0.26741   0.92049   0.14867   0.00000  Uiso   1.00
C13    C     0.18597   0.93399   0.19344   0.00000  Uiso   1.00
C14    C     0.40828   0.25645   0.12215   0.00000  Uiso   1.00
C15    C     0.40767   0.27328   0.07030   0.00000  Uiso   1.00
C16    C     0.40722   0.42444   0.04609   0.00000  Uiso   1.00
C17    C     0.40670   0.41291   0.99880   0.00000  Uiso   1.00
C18    C     0.46132   0.14945   0.13365   0.00000  Uiso   1.00
C19    C     0.50597   0.19649   0.16271   0.00000  Uiso   1.00
C20    C     0.55061   0.08071   0.16876   0.00000  Uiso   1.00
C21    C     0.35577   0.14841   0.13446   0.00000  Uiso   1.00
C22    C     0.31170   0.19456   0.16420   0.00000  Uiso   1.00
C23    C     0.26748   0.07788   0.17094   0.00000  Uiso   1.00
H24    H     0.40808   0.84487   0.06391   0.00000  Uiso   1.00
H25    H     0.40701   0.98280   0.98361   0.00000  Uiso   1.00
H26    H     0.50574   0.75488   0.10022   0.00000  Uiso   1.00
H27    H     0.31150   0.75295   0.10171   0.00000  Uiso   1.00
H28    H     0.40588   0.20501   0.90439   0.00000  Uiso   1.00
H29    H     0.61405   0.72439   0.15027   0.00000  Uiso   1.00
H30    H     0.20445   0.72032   0.15342   0.00000  Uiso   1.00
H31    H     0.40834   0.37877   0.13946   0.00000  Uiso   1.00
H32    H     0.40728   0.54601   0.06330   0.00000  Uiso   1.00
H33    H     0.50602   0.31808   0.17991   0.00000  Uiso   1.00
H34    H     0.31177   0.31615   0.18140   0.00000  Uiso   1.00
H35    H     0.40611   0.66213   0.96907   0.00000  Uiso   1.00
H36    H     0.61427   0.18150   0.21496   0.00000  Uiso   1.00
H37    H     0.20467   0.17744   0.21810   0.00000  Uiso   1.00
O38    O     0.40531   0.53395   0.88526   0.00000  Uiso   1.00
O39    O     0.67841   0.90338   0.20787   0.00000  Uiso   1.00
O40    O     0.14102   0.89805   0.21199   0.00000  Uiso   1.00
N41    N     0.40607   0.28964   0.93006   0.00000  Uiso   1.00
N42    N     0.60070   0.84030   0.15995   0.00000  Uiso   1.00
N43    N     0.21776   0.83648   0.16289   0.00000  Uiso   1.00
N44    N     0.40619   0.53561   0.96486   0.00000  Uiso   1.00
N45    N     0.60082   0.08628   0.19475   0.00000  Uiso   1.00
N46    N     0.21788   0.08245   0.19770   0.00000  Uiso   1.00
C47    C     0.90881   0.20249   0.41834   0.00000  Uiso   1.00
C48    C     0.90807   0.35063   0.45176   0.00000  Uiso   1.00
C49    C     0.90745   0.33771   0.49900   0.00000  Uiso   1.00
C50    C     0.90684   0.48820   0.52355   0.00000  Uiso   1.00
C51    C     0.90572   0.69426   0.57878   0.00000  Uiso   1.00
C52    C     0.96196   0.22873   0.38822   0.00000  Uiso   1.00
C53    C     0.00664   0.11329   0.38203   0.00000  Uiso   1.00
C54    C     0.05138   0.16117   0.35307   0.00000  Uiso   1.00
C55    C     0.13390   0.17791   0.30962   0.00000  Uiso   1.00
C56    C     0.85642   0.22701   0.38736   0.00000  Uiso   1.00
C57    C     0.81237   0.11011   0.38043   0.00000  Uiso   1.00
C58    C     0.76826   0.15652   0.35074   0.00000  Uiso   1.00
C59    C     0.68692   0.17060   0.30595   0.00000  Uiso   1.00
C60    C     0.90882   0.49275   0.37793   0.00000  Uiso   1.00
C61    C     0.90808   0.50829   0.42981   0.00000  Uiso   1.00
C62    C     0.90746   0.65885   0.45430   0.00000  Uiso   1.00
C63    C     0.90684   0.64615   0.50156   0.00000  Uiso   1.00
C64    C     0.96196   0.38638   0.36627   0.00000  Uiso   1.00
C65    C     0.00665   0.43444   0.33732   0.00000  Uiso   1.00
C66    C     0.05139   0.31911   0.33108   0.00000  Uiso   1.00
C67    C     0.85642   0.38467   0.36541   0.00000  Uiso   1.00
C68    C     0.81238   0.43127   0.33572   0.00000  Uiso   1.00
C69    C     0.76827   0.31447   0.32875   0.00000  Uiso   1.00
H70    H     0.90881   0.07974   0.43543   0.00000  Uiso   1.00
H71    H     0.90745   0.21567   0.51598   0.00000  Uiso   1.00
H72    H     0.00662   0.99129   0.39901   0.00000  Uiso   1.00
H73    H     0.81238   0.98812   0.39742   0.00000  Uiso   1.00
H74    H     0.90597   0.43590   0.59560   0.00000  Uiso   1.00
H75    H     0.11506   0.96276   0.34896   0.00000  Uiso   1.00
H76    H     0.70547   0.95607   0.34560   0.00000  Uiso   1.00
H77    H     0.90883   0.61550   0.36084   0.00000  Uiso   1.00
H78    H     0.90747   0.78084   0.43730   0.00000  Uiso   1.00
H79    H     0.00664   0.55645   0.32033   0.00000  Uiso   1.00
H80    H     0.81240   0.55328   0.31874   0.00000  Uiso   1.00
H81    H     0.90599   0.89462   0.53174   0.00000  Uiso   1.00
H82    H     0.11508   0.42146   0.28510   0.00000  Uiso   1.00
H83    H     0.70549   0.41478   0.28174   0.00000  Uiso   1.00
O84    O     0.90510   0.76436   0.61531   0.00000  Uiso   1.00
O85    O     0.17942   0.14359   0.29172   0.00000  Uiso   1.00
O86    O     0.64204   0.13482   0.28732   0.00000  Uiso   1.00
N87    N     0.90615   0.52117   0.57008   0.00000  Uiso   1.00
N88    N     0.10164   0.07882   0.33949   0.00000  Uiso   1.00
N89    N     0.71872   0.07254   0.33634   0.00000  Uiso   1.00
N90    N     0.90616   0.76800   0.53572   0.00000  Uiso   1.00
N91    N     0.10165   0.32565   0.30513   0.00000  Uiso   1.00
N92    N     0.71872   0.31937   0.30198   0.00000  Uiso   1.00
C93    C     0.90814   0.46719   0.08122   0.00000  Uiso   1.00
C94    C     0.90759   0.61617   0.04807   0.00000  Uiso   1.00
C95    C     0.90707   0.60441   0.00080   0.00000  Uiso   1.00
C96    C     0.90663   0.75552   0.97653   0.00000  Uiso   1.00
C97    C     0.90579   0.96294   0.92166   0.00000  Uiso   1.00
C98    C     0.96124   0.49234   0.11142   0.00000  Uiso   1.00
C99    C     0.00582   0.37645   0.11743   0.00000  Uiso   1.00
C100   C     0.05053   0.42332   0.14649   0.00000  Uiso   1.00
C101   C     0.13296   0.43844   0.19001   0.00000  Uiso   1.00
C102   C     0.85570   0.49130   0.11223   0.00000  Uiso   1.00
C103   C     0.81154   0.37452   0.11892   0.00000  Uiso   1.00
C104   C     0.76741   0.42049   0.14867   0.00000  Uiso   1.00
C105   C     0.68597   0.43399   0.19344   0.00000  Uiso   1.00
C106   C     0.90828   0.75645   0.12215   0.00000  Uiso   1.00
C107   C     0.90767   0.77328   0.07030   0.00000  Uiso   1.00
C108   C     0.90722   0.92444   0.04609   0.00000  Uiso   1.00
C109   C     0.90670   0.91291   0.99880   0.00000  Uiso   1.00
C110   C     0.96132   0.64945   0.13365   0.00000  Uiso   1.00
C111   C     0.00597   0.69649   0.16271   0.00000  Uiso   1.00
C112   C     0.05061   0.58071   0.16876   0.00000  Uiso   1.00
C113   C     0.85577   0.64841   0.13446   0.00000  Uiso   1.00
C114   C     0.81170   0.69456   0.16420   0.00000  Uiso   1.00
C115   C     0.76748   0.57788   0.17094   0.00000  Uiso   1.00
H116   H     0.90808   0.34487   0.06391   0.00000  Uiso   1.00
H117   H     0.90701   0.48280   0.98361   0.00000  Uiso   1.00
H118   H     0.00574   0.25488   0.10022   0.00000  Uiso   1.00
H119   H     0.81150   0.25295   0.10171   0.00000  Uiso   1.00
H120   H     0.90588   0.70501   0.90439   0.00000  Uiso   1.00
H121   H     0.11405   0.22439   0.15027   0.00000  Uiso   1.00
H122   H     0.70445   0.22032   0.15342   0.00000  Uiso   1.00
H123   H     0.90834   0.87877   0.13946   0.00000  Uiso   1.00
H124   H     0.90728   0.04601   0.06330   0.00000  Uiso   1.00
H125   H     0.00602   0.81808   0.17991   0.00000  Uiso   1.00
H126   H     0.81177   0.81615   0.18140   0.00000  Uiso   1.00
H127   H     0.90611   0.16213   0.96907   0.00000  Uiso   1.00
H128   H     0.11427   0.68150   0.21496   0.00000  Uiso   1.00
H129   H     0.70467   0.67744   0.21810   0.00000  Uiso   1.00
O130   O     0.90531   0.03395   0.88526   0.00000  Uiso   1.00
O131   O     0.17841   0.40338   0.20787   0.00000  Uiso   1.00
O132   O     0.64102   0.39805   0.21199   0.00000  Uiso   1.00
N133   N     0.90607   0.78964   0.93006   0.00000  Uiso   1.00
N134   N     0.10070   0.34030   0.15995   0.00000  Uiso   1.00
N135   N     0.71776   0.33648   0.16289   0.00000  Uiso   1.00
N136   N     0.90619   0.03561   0.96486   0.00000  Uiso   1.00
N137   N     0.10082   0.58628   0.19475   0.00000  Uiso   1.00
N138   N     0.71788   0.58245   0.19770   0.00000  Uiso   1.00
C139   C     0.40881   0.70249   0.41834   0.00000  Uiso   1.00
C140   C     0.40807   0.85063   0.45176   0.00000  Uiso   1.00
C141   C     0.40745   0.83771   0.49900   0.00000  Uiso   1.00
C142   C     0.40684   0.98820   0.52355   0.00000  Uiso   1.00
C143   C     0.40572   0.19426   0.57878   0.00000  Uiso   1.00
C144   C     0.46196   0.72873   0.38822   0.00000  Uiso   1.00
C145   C     0.50664   0.61329   0.38203   0.00000  Uiso   1.00
C146   C     0.55138   0.66117   0.35307   0.00000  Uiso   1.00
C147   C     0.63390   0.67791   0.30962   0.00000  Uiso   1.00
C148   C     0.35642   0.72701   0.38736   0.00000  Uiso   1.00
C149   C     0.31237   0.61011   0.38043   0.00000  Uiso   1.00
C150   C     0.26826   0.65652   0.35074   0.00000  Uiso   1.00
C151   C     0.18692   0.67060   0.30595   0.00000  Uiso   1.00
C152   C     0.40882   0.99275   0.37793   0.00000  Uiso   1.00
C153   C     0.40808   0.00829   0.42981   0.00000  Uiso   1.00
C154   C     0.40746   0.15885   0.45430   0.00000  Uiso   1.00
C155   C     0.40684   0.14615   0.50156   0.00000  Uiso   1.00
C156   C     0.46196   0.88638   0.36627   0.00000  Uiso   1.00
C157   C     0.50665   0.93444   0.33732   0.00000  Uiso   1.00
C158   C     0.55139   0.81911   0.33108   0.00000  Uiso   1.00
C159   C     0.35642   0.88467   0.36541   0.00000  Uiso   1.00
C160   C     0.31238   0.93127   0.33572   0.00000  Uiso   1.00
C161   C     0.26827   0.81447   0.32875   0.00000  Uiso   1.00
H162   H     0.40881   0.57974   0.43543   0.00000  Uiso   1.00
H163   H     0.40745   0.71567   0.51598   0.00000  Uiso   1.00
H164   H     0.50662   0.49129   0.39901   0.00000  Uiso   1.00
H165   H     0.31238   0.48812   0.39742   0.00000  Uiso   1.00
H166   H     0.40597   0.93590   0.59560   0.00000  Uiso   1.00
H167   H     0.61506   0.46276   0.34896   0.00000  Uiso   1.00
H168   H     0.20547   0.45607   0.34560   0.00000  Uiso   1.00
H169   H     0.40883   0.11550   0.36084   0.00000  Uiso   1.00
H170   H     0.40747   0.28084   0.43730   0.00000  Uiso   1.00
H171   H     0.50664   0.05645   0.32033   0.00000  Uiso   1.00
H172   H     0.31240   0.05328   0.31874   0.00000  Uiso   1.00
H173   H     0.40599   0.39462   0.53174   0.00000  Uiso   1.00
H174   H     0.61508   0.92146   0.28510   0.00000  Uiso   1.00
H175   H     0.20549   0.91478   0.28174   0.00000  Uiso   1.00
O176   O     0.40510   0.26436   0.61531   0.00000  Uiso   1.00
O177   O     0.67942   0.64359   0.29172   0.00000  Uiso   1.00
O178   O     0.14204   0.63482   0.28732   0.00000  Uiso   1.00
N179   N     0.40615   0.02117   0.57008   0.00000  Uiso   1.00
N180   N     0.60164   0.57882   0.33949   0.00000  Uiso   1.00
N181   N     0.21872   0.57254   0.33634   0.00000  Uiso   1.00
N182   N     0.40616   0.26800   0.53572   0.00000  Uiso   1.00
N183   N     0.60165   0.82565   0.30513   0.00000  Uiso   1.00
N184   N     0.21872   0.81937   0.30198   0.00000  Uiso   1.00
C185   C     0.59186   0.96719   0.91878   0.00000  Uiso   1.00
C186   C     0.59241   0.11617   0.95193   0.00000  Uiso   1.00
C187   C     0.59293   0.10441   0.99920   0.00000  Uiso   1.00
C188   C     0.59337   0.25552   0.02347   0.00000  Uiso   1.00
C189   C     0.59421   0.46294   0.07834   0.00000  Uiso   1.00
C190   C     0.53876   0.99234   0.88858   0.00000  Uiso   1.00
C191   C     0.49418   0.87645   0.88257   0.00000  Uiso   1.00
C192   C     0.44947   0.92332   0.85351   0.00000  Uiso   1.00
C193   C     0.36704   0.93844   0.80999   0.00000  Uiso   1.00
C194   C     0.64430   0.99130   0.88777   0.00000  Uiso   1.00
C195   C     0.68846   0.87452   0.88108   0.00000  Uiso   1.00
C196   C     0.73259   0.92049   0.85133   0.00000  Uiso   1.00
C197   C     0.81403   0.93399   0.80656   0.00000  Uiso   1.00
C198   C     0.59172   0.25645   0.87785   0.00000  Uiso   1.00
C199   C     0.59233   0.27328   0.92970   0.00000  Uiso   1.00
C200   C     0.59278   0.42444   0.95391   0.00000  Uiso   1.00
C201   C     0.59330   0.41291   0.00120   0.00000  Uiso   1.00
C202   C     0.53868   0.14945   0.86635   0.00000  Uiso   1.00
C203   C     0.49403   0.19649   0.83729   0.00000  Uiso   1.00
C204   C     0.44939   0.08071   0.83124   0.00000  Uiso   1.00
C205   C     0.64423   0.14841   0.86554   0.00000  Uiso   1.00
C206   C     0.68830   0.19456   0.83580   0.00000  Uiso   1.00
C207   C     0.73252   0.07788   0.82906   0.00000  Uiso   1.00
H208   H     0.59192   0.84487   0.93609   0.00000  Uiso   1.00
H209   H     0.59299   0.98280   0.01639   0.00000  Uiso   1.00
H210   H     0.49426   0.75488   0.89978   0.00000  Uiso   1.00
H211   H     0.68850   0.75295   0.89829   0.00000  Uiso   1.00
H212   H     0.59412   0.20501   0.09561   0.00000  Uiso   1.00
H213   H     0.38595   0.72439   0.84973   0.00000  Uiso   1.00
H214   H     0.79555   0.72032   0.84658   0.00000  Uiso   1.00
H215   H     0.59166   0.37877   0.86054   0.00000  Uiso   1.00
H216   H     0.59272   0.54601   0.93670   0.00000  Uiso   1.00
H217   H     0.49398   0.31808   0.82009   0.00000  Uiso   1.00
H218   H     0.68823   0.31615   0.81860   0.00000  Uiso   1.00
H219   H     0.59389   0.66213   0.03093   0.00000  Uiso   1.00
H220   H     0.38573   0.18150   0.78504   0.00000  Uiso   1.00
H221   H     0.79533   0.17744   0.78190   0.00000  Uiso   1.00
O222   O     0.59469   0.53395   0.11474   0.00000  Uiso   1.00
O223   O     0.32159   0.90338   0.79213   0.00000  Uiso   1.00
O224   O     0.85898   0.89805   0.78801   0.00000  Uiso   1.00
N225   N     0.59393   0.28964   0.06994   0.00000  Uiso   1.00
N226   N     0.39930   0.84030   0.84005   0.00000  Uiso   1.00
N227   N     0.78224   0.83648   0.83711   0.00000  Uiso   1.00
N228   N     0.59381   0.53561   0.03514   0.00000  Uiso   1.00
N229   N     0.39918   0.08628   0.80525   0.00000  Uiso   1.00
N230   N     0.78212   0.08245   0.80230   0.00000  Uiso   1.00
C231   C     0.09119   0.20249   0.58166   0.00000  Uiso   1.00
C232   C     0.09193   0.35063   0.54824   0.00000  Uiso   1.00
C233   C     0.09255   0.33771   0.50100   0.00000  Uiso   1.00
C234   C     0.09316   0.48820   0.47645   0.00000  Uiso   1.00
C235   C     0.09428   0.69426   0.42122   0.00000  Uiso   1.00
C236   C     0.03804   0.22873   0.61178   0.00000  Uiso   1.00
C237   C     0.99336   0.11329   0.61797   0.00000  Uiso   1.00
C238   C     0.94862   0.16117   0.64693   0.00000  Uiso   1.00
C239   C     0.86610   0.17791   0.69038   0.00000  Uiso   1.00
C240   C     0.14358   0.22701   0.61264   0.00000  Uiso   1.00
C241   C     0.18763   0.11011   0.61957   0.00000  Uiso   1.00
C242   C     0.23174   0.15652   0.64926   0.00000  Uiso   1.00
C243   C     0.31308   0.17060   0.69405   0.00000  Uiso   1.00
C244   C     0.09118   0.49275   0.62207   0.00000  Uiso   1.00
C245   C     0.09192   0.50829   0.57019   0.00000  Uiso   1.00
C246   C     0.09254   0.65885   0.54570   0.00000  Uiso   1.00
C247   C     0.09316   0.64615   0.49844   0.00000  Uiso   1.00
C248   C     0.03804   0.38638   0.63373   0.00000  Uiso   1.00
C249   C     0.99335   0.43444   0.66268   0.00000  Uiso   1.00
C250   C     0.94861   0.31911   0.66892   0.00000  Uiso   1.00
C251   C     0.14358   0.38467   0.63459   0.00000  Uiso   1.00
C252   C     0.18762   0.43127   0.66428   0.00000  Uiso   1.00
C253   C     0.23173   0.31447   0.67125   0.00000  Uiso   1.00
H254   H     0.09119   0.07974   0.56457   0.00000  Uiso   1.00
H255   H     0.09255   0.21567   0.48402   0.00000  Uiso   1.00
H256   H     0.99338   0.99129   0.60099   0.00000  Uiso   1.00
H257   H     0.18762   0.98812   0.60258   0.00000  Uiso   1.00
H258   H     0.09403   0.43590   0.40440   0.00000  Uiso   1.00
H259   H     0.88494   0.96276   0.65104   0.00000  Uiso   1.00
H260   H     0.29453   0.95607   0.65440   0.00000  Uiso   1.00
H261   H     0.09117   0.61550   0.63916   0.00000  Uiso   1.00
H262   H     0.09253   0.78084   0.56270   0.00000  Uiso   1.00
H263   H     0.99336   0.55645   0.67967   0.00000  Uiso   1.00
H264   H     0.18760   0.55328   0.68126   0.00000  Uiso   1.00
H265   H     0.09401   0.89462   0.46826   0.00000  Uiso   1.00
H266   H     0.88492   0.42146   0.71490   0.00000  Uiso   1.00
H267   H     0.29451   0.41478   0.71826   0.00000  Uiso   1.00
O268   O     0.09490   0.76436   0.38469   0.00000  Uiso   1.00
O269   O     0.82058   0.14359   0.70828   0.00000  Uiso   1.00
O270   O     0.35796   0.13482   0.71268   0.00000  Uiso   1.00
N271   N     0.09385   0.52117   0.42992   0.00000  Uiso   1.00
N272   N     0.89836   0.07882   0.66051   0.00000  Uiso   1.00
N273   N     0.28128   0.07254   0.66366   0.00000  Uiso   1.00
N274   N     0.09384   0.76800   0.46428   0.00000  Uiso   1.00
N275   N     0.89835   0.32565   0.69487   0.00000  Uiso   1.00
N276   N     0.28128   0.31937   0.69802   0.00000  Uiso   1.00
C277   C     0.09186   0.46719   0.91878   0.00000  Uiso   1.00
C278   C     0.09241   0.61617   0.95193   0.00000  Uiso   1.00
C279   C     0.09293   0.60441   0.99920   0.00000  Uiso   1.00
C280   C     0.09337   0.75552   0.02347   0.00000  Uiso   1.00
C281   C     0.09421   0.96294   0.07834   0.00000  Uiso   1.00
C282   C     0.03876   0.49234   0.88858   0.00000  Uiso   1.00
C283   C     0.99418   0.37645   0.88257   0.00000  Uiso   1.00
C284   C     0.94947   0.42332   0.85351   0.00000  Uiso   1.00
C285   C     0.86704   0.43844   0.80999   0.00000  Uiso   1.00
C286   C     0.14430   0.49130   0.88777   0.00000  Uiso   1.00
C287   C     0.18846   0.37452   0.88108   0.00000  Uiso   1.00
C288   C     0.23259   0.42049   0.85133   0.00000  Uiso   1.00
C289   C     0.31403   0.43399   0.80656   0.00000  Uiso   1.00
C290   C     0.09172   0.75645   0.87785   0.00000  Uiso   1.00
C291   C     0.09233   0.77328   0.92970   0.00000  Uiso   1.00
C292   C     0.09278   0.92444   0.95391   0.00000  Uiso   1.00
C293   C     0.09330   0.91291   0.00120   0.00000  Uiso   1.00
C294   C     0.03868   0.64945   0.86635   0.00000  Uiso   1.00
C295   C     0.99403   0.69649   0.83729   0.00000  Uiso   1.00
C296   C     0.94939   0.58071   0.83124   0.00000  Uiso   1.00
C297   C     0.14423   0.64841   0.86554   0.00000  Uiso   1.00
C298   C     0.18830   0.69456   0.83580   0.00000  Uiso   1.00
C299   C     0.23252   0.57788   0.82906   0.00000  Uiso   1.00
H300   H     0.09192   0.34487   0.93609   0.00000  Uiso   1.00
H301   H     0.09299   0.48280   0.01639   0.00000  Uiso   1.00
H302   H     0.99426   0.25488   0.89978   0.00000  Uiso   1.00
H303   H     0.18850   0.25295   0.89829   0.00000  Uiso   1.00
H304   H     0.09412   0.70501   0.09561   0.00000  Uiso   1.00
H305   H     0.88595   0.22439   0.84973   0.00000  Uiso   1.00
H306   H     0.29555   0.22032   0.84658   0.00000  Uiso   1.00
H307   H     0.09166   0.87877   0.86054   0.00000  Uiso   1.00
H308   H     0.09272   0.04601   0.93670   0.00000  Uiso   1.00
H309   H     0.99398   0.81808   0.82009   0.00000  Uiso   1.00
H310   H     0.18823   0.81615   0.81860   0.00000  Uiso   1.00
H311   H     0.09389   0.16213   0.03093   0.00000  Uiso   1.00
H312   H     0.88573   0.68150   0.78504   0.00000  Uiso   1.00
H313   H     0.29533   0.67744   0.78190   0.00000  Uiso   1.00
O314   O     0.09469   0.03395   0.11474   0.00000  Uiso   1.00
O315   O     0.82159   0.40338   0.79213   0.00000  Uiso   1.00
O316   O     0.35898   0.39805   0.78801   0.00000  Uiso   1.00
N317   N     0.09393   0.78964   0.06994   0.00000  Uiso   1.00
N318   N     0.89930   0.34030   0.84005   0.00000  Uiso   1.00
N319   N     0.28224   0.33648   0.83711   0.00000  Uiso   1.00
N320   N     0.09381   0.03561   0.03514   0.00000  Uiso   1.00
N321   N     0.89918   0.58628   0.80525   0.00000  Uiso   1.00
N322   N     0.28212   0.58245   0.80230   0.00000  Uiso   1.00
C323   C     0.59119   0.70249   0.58166   0.00000  Uiso   1.00
C324   C     0.59193   0.85063   0.54824   0.00000  Uiso   1.00
C325   C     0.59255   0.83771   0.50100   0.00000  Uiso   1.00
C326   C     0.59316   0.98820   0.47645   0.00000  Uiso   1.00
C327   C     0.59428   0.19426   0.42122   0.00000  Uiso   1.00
C328   C     0.53804   0.72873   0.61178   0.00000  Uiso   1.00
C329   C     0.49336   0.61329   0.61797   0.00000  Uiso   1.00
C330   C     0.44862   0.66117   0.64693   0.00000  Uiso   1.00
C331   C     0.36610   0.67791   0.69038   0.00000  Uiso   1.00
C332   C     0.64358   0.72701   0.61264   0.00000  Uiso   1.00
C333   C     0.68763   0.61011   0.61957   0.00000  Uiso   1.00
C334   C     0.73174   0.65652   0.64926   0.00000  Uiso   1.00
C335   C     0.81308   0.67060   0.69405   0.00000  Uiso   1.00
C336   C     0.59118   0.99275   0.62207   0.00000  Uiso   1.00
C337   C     0.59192   0.00829   0.57019   0.00000  Uiso   1.00
C338   C     0.59254   0.15885   0.54570   0.00000  Uiso   1.00
C339   C     0.59316   0.14615   0.49844   0.00000  Uiso   1.00
C340   C     0.53804   0.88638   0.63373   0.00000  Uiso   1.00
C341   C     0.49335   0.93444   0.66268   0.00000  Uiso   1.00
C342   C     0.44861   0.81911   0.66892   0.00000  Uiso   1.00
C343   C     0.64358   0.88467   0.63459   0.00000  Uiso   1.00
C344   C     0.68762   0.93127   0.66428   0.00000  Uiso   1.00
C345   C     0.73173   0.81447   0.67125   0.00000  Uiso   1.00
H346   H     0.59119   0.57974   0.56457   0.00000  Uiso   1.00
H347   H     0.59255   0.71567   0.48402   0.00000  Uiso   1.00
H348   H     0.49338   0.49129   0.60099   0.00000  Uiso   1.00
H349   H     0.68762   0.48812   0.60258   0.00000  Uiso   1.00
H350   H     0.59403   0.93590   0.40440   0.00000  Uiso   1.00
H351   H     0.38494   0.46276   0.65104   0.00000  Uiso   1.00
H352   H     0.79453   0.45607   0.65440   0.00000  Uiso   1.00
H353   H     0.59117   0.11550   0.63916   0.00000  Uiso   1.00
H354   H     0.59253   0.28084   0.56270   0.00000  Uiso   1.00
H355   H     0.49336   0.05645   0.67967   0.00000  Uiso   1.00
H356   H     0.68760   0.05328   0.68126   0.00000  Uiso   1.00
H357   H     0.59401   0.39462   0.46826   0.00000  Uiso   1.00
H358   H     0.38492   0.92146   0.71490   0.00000  Uiso   1.00
H359   H     0.79451   0.91478   0.71826   0.00000  Uiso   1.00
O360   O     0.59490   0.26436   0.38469   0.00000  Uiso   1.00
O361   O     0.32058   0.64359   0.70828   0.00000  Uiso   1.00
O362   O     0.85796   0.63482   0.71268   0.00000  Uiso   1.00
N363   N     0.59385   0.02117   0.42992   0.00000  Uiso   1.00
N364   N     0.39836   0.57882   0.66051   0.00000  Uiso   1.00
N365   N     0.78128   0.57254   0.66366   0.00000  Uiso   1.00
N366   N     0.59384   0.26800   0.46428   0.00000  Uiso   1.00
N367   N     0.39835   0.82565   0.69487   0.00000  Uiso   1.00
N368   N     0.78128   0.81937   0.69802   0.00000  Uiso   1.00
