data_job_02944
_audit_creation_date              2018-12-19
_audit_creation_method            'Materials Studio'
_symmetry_space_group_name_H-M    'P1'
_symmetry_Int_Tables_number       1
_symmetry_cell_setting            triclinic
loop_
_symmetry_equiv_pos_as_xyz
  x,y,z
_cell_length_a                    12.5324
_cell_length_b                    12.6255
_cell_length_c                    15.3945
_cell_angle_alpha                 74.0654
_cell_angle_beta                  92.8726
_cell_angle_gamma                 65.7564
loop_
_atom_site_label
_atom_site_type_symbol
_atom_site_fract_x
_atom_site_fract_y
_atom_site_fract_z
_atom_site_U_iso_or_equiv
_atom_site_adp_type
_atom_site_occupancy
C1     C     0.22222   0.76358   0.33780   0.00000  Uiso   1.00
C2     C     0.29119   0.62978   0.34312   0.00000  Uiso   1.00
C3     C     0.32324   0.52840   0.42107   0.00000  Uiso   1.00
C4     C     0.38618   0.41367   0.41179   0.00000  Uiso   1.00
C5     C     0.48880   0.20785   0.43288   0.00000  Uiso   1.00
C6     C     0.29985   0.82632   0.30191   0.00000  Uiso   1.00
C7     C     0.33915   0.89021   0.34522   0.00000  Uiso   1.00
C8     C     0.40937   0.94094   0.30123   0.00000  Uiso   1.00
C9     C     0.52535   0.04034   0.25832   0.00000  Uiso   1.00
C10    C     0.11320   0.81856   0.26206   0.00000  Uiso   1.00
C11    C     0.99556   0.87596   0.27184   0.00000  Uiso   1.00
C12    C     0.90863   0.92018   0.19429   0.00000  Uiso   1.00
C13    C     0.73481   0.00753   0.08949   0.00000  Uiso   1.00
C14    C     0.27703   0.74011   0.18268   0.00000  Uiso   1.00
C15    C     0.32096   0.61704   0.25887   0.00000  Uiso   1.00
C16    C     0.38387   0.50243   0.24946   0.00000  Uiso   1.00
C17    C     0.41600   0.40089   0.32738   0.00000  Uiso   1.00
C18    C     0.32962   0.81358   0.21767   0.00000  Uiso   1.00
C19    C     0.39979   0.86424   0.17360   0.00000  Uiso   1.00
C20    C     0.43920   0.92817   0.21683   0.00000  Uiso   1.00
C21    C     0.14296   0.80581   0.17780   0.00000  Uiso   1.00
C22    C     0.05620   0.84998   0.10022   0.00000  Uiso   1.00
C23    C     0.93846   0.90741   0.10988   0.00000  Uiso   1.00
H24    H     0.19905   0.77352   0.40339   0.00000  Uiso   1.00
H25    H     0.30019   0.53830   0.48627   0.00000  Uiso   1.00
H26    H     0.31609   0.90007   0.41041   0.00000  Uiso   1.00
H27    H     0.97256   0.88581   0.33705   0.00000  Uiso   1.00
H28    H     0.42549   0.27191   0.54100   0.00000  Uiso   1.00
H29    H     0.45898   0.03474   0.38105   0.00000  Uiso   1.00
H30    H     0.73457   0.00467   0.22634   0.00000  Uiso   1.00
H31    H     0.30021   0.73019   0.11708   0.00000  Uiso   1.00
H32    H     0.40690   0.49259   0.18425   0.00000  Uiso   1.00
H33    H     0.42280   0.85436   0.10840   0.00000  Uiso   1.00
H34    H     0.07927   0.84009   0.03503   0.00000  Uiso   1.00
H35    H     0.51211   0.23480   0.29587   0.00000  Uiso   1.00
H36    H     0.54559   0.99765   0.13592   0.00000  Uiso   1.00
H37    H     0.82119   0.96757   0.98122   0.00000  Uiso   1.00
O38    O     0.53719   0.09784   0.46779   0.00000  Uiso   1.00
O39    O     0.58111   0.09867   0.25794   0.00000  Uiso   1.00
O40    O     0.63071   0.05921   0.05497   0.00000  Uiso   1.00
N41    N     0.43121   0.29578   0.47409   0.00000  Uiso   1.00
N42    N     0.46254   0.00897   0.32455   0.00000  Uiso   1.00
N43    N     0.78528   0.98089   0.17991   0.00000  Uiso   1.00
N44    N     0.47782   0.27582   0.34219   0.00000  Uiso   1.00
N45    N     0.50915   0.98900   0.19265   0.00000  Uiso   1.00
N46    N     0.83189   0.96092   0.04801   0.00000  Uiso   1.00
C47    C     0.77778   0.23642   0.66220   0.00000  Uiso   1.00
C48    C     0.70881   0.37022   0.65688   0.00000  Uiso   1.00
C49    C     0.67676   0.47160   0.57893   0.00000  Uiso   1.00
C50    C     0.61382   0.58633   0.58821   0.00000  Uiso   1.00
C51    C     0.51120   0.79215   0.56712   0.00000  Uiso   1.00
C52    C     0.70015   0.17368   0.69809   0.00000  Uiso   1.00
C53    C     0.66085   0.10979   0.65478   0.00000  Uiso   1.00
C54    C     0.59063   0.05906   0.69877   0.00000  Uiso   1.00
C55    C     0.47465   0.95966   0.74168   0.00000  Uiso   1.00
C56    C     0.88680   0.18144   0.73794   0.00000  Uiso   1.00
C57    C     0.00444   0.12404   0.72816   0.00000  Uiso   1.00
C58    C     0.09137   0.07982   0.80571   0.00000  Uiso   1.00
C59    C     0.26519   0.99247   0.91051   0.00000  Uiso   1.00
C60    C     0.72297   0.25989   0.81732   0.00000  Uiso   1.00
C61    C     0.67904   0.38296   0.74113   0.00000  Uiso   1.00
C62    C     0.61613   0.49757   0.75054   0.00000  Uiso   1.00
C63    C     0.58400   0.59911   0.67262   0.00000  Uiso   1.00
C64    C     0.67038   0.18642   0.78233   0.00000  Uiso   1.00
C65    C     0.60021   0.13576   0.82640   0.00000  Uiso   1.00
C66    C     0.56080   0.07183   0.78317   0.00000  Uiso   1.00
C67    C     0.85704   0.19419   0.82220   0.00000  Uiso   1.00
C68    C     0.94380   0.15002   0.89978   0.00000  Uiso   1.00
C69    C     0.06154   0.09259   0.89012   0.00000  Uiso   1.00
H70    H     0.80095   0.22648   0.59661   0.00000  Uiso   1.00
H71    H     0.69981   0.46170   0.51373   0.00000  Uiso   1.00
H72    H     0.68391   0.09993   0.58959   0.00000  Uiso   1.00
H73    H     0.02744   0.11419   0.66295   0.00000  Uiso   1.00
H74    H     0.57451   0.72809   0.45900   0.00000  Uiso   1.00
H75    H     0.54102   0.96526   0.61895   0.00000  Uiso   1.00
H76    H     0.26543   0.99533   0.77366   0.00000  Uiso   1.00
H77    H     0.69979   0.26981   0.88292   0.00000  Uiso   1.00
H78    H     0.59310   0.50741   0.81575   0.00000  Uiso   1.00
H79    H     0.57720   0.14564   0.89160   0.00000  Uiso   1.00
H80    H     0.92073   0.15991   0.96497   0.00000  Uiso   1.00
H81    H     0.48789   0.76520   0.70413   0.00000  Uiso   1.00
H82    H     0.45441   0.00235   0.86408   0.00000  Uiso   1.00
H83    H     0.17881   0.03243   0.01878   0.00000  Uiso   1.00
O84    O     0.46281   0.90216   0.53221   0.00000  Uiso   1.00
O85    O     0.41889   0.90133   0.74206   0.00000  Uiso   1.00
O86    O     0.36929   0.94079   0.94503   0.00000  Uiso   1.00
N87    N     0.56879   0.70422   0.52591   0.00000  Uiso   1.00
N88    N     0.53746   0.99103   0.67545   0.00000  Uiso   1.00
N89    N     0.21472   0.01911   0.82009   0.00000  Uiso   1.00
N90    N     0.52218   0.72418   0.65781   0.00000  Uiso   1.00
N91    N     0.49085   0.01100   0.80735   0.00000  Uiso   1.00
N92    N     0.16811   0.03908   0.95199   0.00000  Uiso   1.00
