data_job_03406
_audit_creation_date              2018-12-19
_audit_creation_method            'Materials Studio'
_symmetry_space_group_name_H-M    'P1'
_symmetry_Int_Tables_number       1
_symmetry_cell_setting            triclinic
loop_
_symmetry_equiv_pos_as_xyz
  x,y,z
_cell_length_a                    10.0339
_cell_length_b                    10.0884
_cell_length_c                    14.1039
_cell_angle_alpha                 89.6191
_cell_angle_beta                  79.7721
_cell_angle_gamma                 74.4960
loop_
_atom_site_label
_atom_site_type_symbol
_atom_site_fract_x
_atom_site_fract_y
_atom_site_fract_z
_atom_site_U_iso_or_equiv
_atom_site_adp_type
_atom_site_occupancy
C1     C     0.21444   0.78649   0.77588   0.00000  Uiso   1.00
C2     C     0.36554   0.78798   0.77769   0.00000  Uiso   1.00
C3     C     0.45261   0.70899   0.83516   0.00000  Uiso   1.00
C4     C     0.58730   0.72531   0.82620   0.00000  Uiso   1.00
C5     C     0.81493   0.71367   0.83880   0.00000  Uiso   1.00
C6     C     0.12542   0.93482   0.79761   0.00000  Uiso   1.00
C7     C     0.01059   0.97930   0.87183   0.00000  Uiso   1.00
C8     C     0.94314   0.11923   0.87964   0.00000  Uiso   1.00
C9     C     0.79791   0.33555   0.92313   0.00000  Uiso   1.00
C10    C     0.21018   0.75278   0.67141   0.00000  Uiso   1.00
C11    C     0.16657   0.64422   0.63951   0.00000  Uiso   1.00
C12    C     0.17045   0.63090   0.54107   0.00000  Uiso   1.00
C13    C     0.15682   0.56458   0.38861   0.00000  Uiso   1.00
C14    C     0.29882   0.95591   0.65777   0.00000  Uiso   1.00
C15    C     0.41137   0.88000   0.71354   0.00000  Uiso   1.00
C16    C     0.54597   0.89644   0.70449   0.00000  Uiso   1.00
C17    C     0.63322   0.81749   0.76194   0.00000  Uiso   1.00
C18    C     0.17125   0.02685   0.73347   0.00000  Uiso   1.00
C19    C     0.10395   0.16674   0.74116   0.00000  Uiso   1.00
C20    C     0.98905   0.21142   0.81538   0.00000  Uiso   1.00
C21    C     0.25601   0.84480   0.60726   0.00000  Uiso   1.00
C22    C     0.25994   0.83166   0.50884   0.00000  Uiso   1.00
C23    C     0.21636   0.72309   0.47680   0.00000  Uiso   1.00
H24    H     0.17875   0.71485   0.82582   0.00000  Uiso   1.00
H25    H     0.41710   0.63780   0.88480   0.00000  Uiso   1.00
H26    H     0.97514   0.90806   0.92146   0.00000  Uiso   1.00
H27    H     0.13111   0.57303   0.68918   0.00000  Uiso   1.00
H28    H     0.70154   0.59299   0.92192   0.00000  Uiso   1.00
H29    H     0.76963   0.16284   0.99920   0.00000  Uiso   1.00
H30    H     0.09851   0.45636   0.50939   0.00000  Uiso   1.00
H31    H     0.33450   0.02756   0.60783   0.00000  Uiso   1.00
H32    H     0.58140   0.96766   0.65484   0.00000  Uiso   1.00
H33    H     0.13944   0.23792   0.69150   0.00000  Uiso   1.00
H34    H     0.29541   0.90289   0.45922   0.00000  Uiso   1.00
H35    H     0.83490   0.86072   0.73528   0.00000  Uiso   1.00
H36    H     0.90297   0.43057   0.81256   0.00000  Uiso   1.00
H37    H     0.23187   0.72409   0.32275   0.00000  Uiso   1.00
O38    O     0.92781   0.68184   0.86348   0.00000  Uiso   1.00
O39    O     0.70516   0.42945   0.96486   0.00000  Uiso   1.00
O40    O     0.13666   0.50257   0.32224   0.00000  Uiso   1.00
N41    N     0.69905   0.66420   0.87153   0.00000  Uiso   1.00
N42    N     0.82778   0.19698   0.94379   0.00000  Uiso   1.00
N43    N     0.13522   0.53650   0.48586   0.00000  Uiso   1.00
N44    N     0.77081   0.80826   0.77110   0.00000  Uiso   1.00
N45    N     0.89954   0.34104   0.84336   0.00000  Uiso   1.00
N46    N     0.20698   0.68056   0.38543   0.00000  Uiso   1.00
C47    C     0.78556   0.21351   0.22412   0.00000  Uiso   1.00
C48    C     0.63446   0.21202   0.22231   0.00000  Uiso   1.00
C49    C     0.54739   0.29101   0.16484   0.00000  Uiso   1.00
C50    C     0.41270   0.27469   0.17380   0.00000  Uiso   1.00
C51    C     0.18507   0.28633   0.16120   0.00000  Uiso   1.00
C52    C     0.87458   0.06518   0.20239   0.00000  Uiso   1.00
C53    C     0.98941   0.02070   0.12817   0.00000  Uiso   1.00
C54    C     0.05686   0.88077   0.12036   0.00000  Uiso   1.00
C55    C     0.20209   0.66445   0.07687   0.00000  Uiso   1.00
C56    C     0.78982   0.24722   0.32859   0.00000  Uiso   1.00
C57    C     0.83343   0.35578   0.36049   0.00000  Uiso   1.00
C58    C     0.82955   0.36910   0.45893   0.00000  Uiso   1.00
C59    C     0.84318   0.43542   0.61139   0.00000  Uiso   1.00
C60    C     0.70118   0.04409   0.34223   0.00000  Uiso   1.00
C61    C     0.58863   0.12000   0.28646   0.00000  Uiso   1.00
C62    C     0.45403   0.10356   0.29551   0.00000  Uiso   1.00
C63    C     0.36678   0.18251   0.23806   0.00000  Uiso   1.00
C64    C     0.82875   0.97315   0.26653   0.00000  Uiso   1.00
C65    C     0.89605   0.83326   0.25884   0.00000  Uiso   1.00
C66    C     0.01095   0.78858   0.18462   0.00000  Uiso   1.00
C67    C     0.74399   0.15520   0.39274   0.00000  Uiso   1.00
C68    C     0.74006   0.16834   0.49116   0.00000  Uiso   1.00
C69    C     0.78364   0.27691   0.52320   0.00000  Uiso   1.00
H70    H     0.82125   0.28515   0.17418   0.00000  Uiso   1.00
H71    H     0.58290   0.36220   0.11520   0.00000  Uiso   1.00
H72    H     0.02486   0.09194   0.07854   0.00000  Uiso   1.00
H73    H     0.86889   0.42697   0.31082   0.00000  Uiso   1.00
H74    H     0.29846   0.40701   0.07808   0.00000  Uiso   1.00
H75    H     0.23037   0.83716   0.00080   0.00000  Uiso   1.00
H76    H     0.90149   0.54364   0.49061   0.00000  Uiso   1.00
H77    H     0.66550   0.97244   0.39217   0.00000  Uiso   1.00
H78    H     0.41860   0.03234   0.34516   0.00000  Uiso   1.00
H79    H     0.86056   0.76208   0.30850   0.00000  Uiso   1.00
H80    H     0.70459   0.09711   0.54078   0.00000  Uiso   1.00
H81    H     0.16510   0.13928   0.26472   0.00000  Uiso   1.00
H82    H     0.09703   0.56943   0.18744   0.00000  Uiso   1.00
H83    H     0.76813   0.27591   0.67725   0.00000  Uiso   1.00
O84    O     0.07219   0.31816   0.13652   0.00000  Uiso   1.00
O85    O     0.29484   0.57055   0.03514   0.00000  Uiso   1.00
O86    O     0.86334   0.49743   0.67776   0.00000  Uiso   1.00
N87    N     0.30095   0.33580   0.12847   0.00000  Uiso   1.00
N88    N     0.17222   0.80302   0.05621   0.00000  Uiso   1.00
N89    N     0.86478   0.46350   0.51414   0.00000  Uiso   1.00
N90    N     0.22919   0.19174   0.22890   0.00000  Uiso   1.00
N91    N     0.10046   0.65896   0.15664   0.00000  Uiso   1.00
N92    N     0.79302   0.31944   0.61457   0.00000  Uiso   1.00
