data_job_05595
_audit_creation_date              2018-12-19
_audit_creation_method            'Materials Studio'
_symmetry_space_group_name_H-M    'P1'
_symmetry_Int_Tables_number       1
_symmetry_cell_setting            triclinic
loop_
_symmetry_equiv_pos_as_xyz
  x,y,z
_cell_length_a                    25.4026
_cell_length_b                    12.0816
_cell_length_c                    17.5432
_cell_angle_alpha                 90.0000
_cell_angle_beta                  90.0000
_cell_angle_gamma                 90.0000
loop_
_atom_site_label
_atom_site_type_symbol
_atom_site_fract_x
_atom_site_fract_y
_atom_site_fract_z
_atom_site_U_iso_or_equiv
_atom_site_adp_type
_atom_site_occupancy
C1     C     0.36459   0.36463   0.92738   0.00000  Uiso   1.00
C2     C     0.31790   0.28591   0.92056   0.00000  Uiso   1.00
C3     C     0.28846   0.26749   0.85515   0.00000  Uiso   1.00
C4     C     0.24731   0.19227   0.86061   0.00000  Uiso   1.00
C5     C     0.17651   0.07841   0.83962   0.00000  Uiso   1.00
C6     C     0.35111   0.44408   0.99204   0.00000  Uiso   1.00
C7     C     0.34959   0.55864   0.98672   0.00000  Uiso   1.00
C8     C     0.33639   0.61657   0.05235   0.00000  Uiso   1.00
C9     C     0.31718   0.74827   0.14235   0.00000  Uiso   1.00
C10    C     0.41056   0.29482   0.95589   0.00000  Uiso   1.00
C11    C     0.45904   0.28391   0.92019   0.00000  Uiso   1.00
C12    C     0.49591   0.21620   0.95539   0.00000  Uiso   1.00
C13    C     0.56901   0.11615   0.98925   0.00000  Uiso   1.00
C14    C     0.34388   0.26380   0.05339   0.00000  Uiso   1.00
C15    C     0.30665   0.23115   0.98901   0.00000  Uiso   1.00
C16    C     0.26554   0.15593   0.99456   0.00000  Uiso   1.00
C17    C     0.23604   0.13740   0.92917   0.00000  Uiso   1.00
C18    C     0.33985   0.38932   0.06048   0.00000  Uiso   1.00
C19    C     0.32666   0.44709   0.12614   0.00000  Uiso   1.00
C20    C     0.32512   0.56171   0.12092   0.00000  Uiso   1.00
C21    C     0.39931   0.24005   0.02433   0.00000  Uiso   1.00
C22    C     0.43612   0.17235   0.05960   0.00000  Uiso   1.00
C23    C     0.48464   0.16134   0.02396   0.00000  Uiso   1.00
H24    H     0.37335   0.40727   0.87410   0.00000  Uiso   1.00
H25    H     0.29718   0.30990   0.80220   0.00000  Uiso   1.00
H26    H     0.35830   0.60100   0.93375   0.00000  Uiso   1.00
H27    H     0.46773   0.32630   0.86722   0.00000  Uiso   1.00
H28    H     0.20775   0.17781   0.75267   0.00000  Uiso   1.00
H29    H     0.33665   0.79163   0.03007   0.00000  Uiso   1.00
H30    H     0.56741   0.21238   0.88978   0.00000  Uiso   1.00
H31    H     0.33511   0.22116   0.10668   0.00000  Uiso   1.00
H32    H     0.25684   0.11357   0.04754   0.00000  Uiso   1.00
H33    H     0.31796   0.40468   0.17909   0.00000  Uiso   1.00
H34    H     0.42739   0.12998   0.11256   0.00000  Uiso   1.00
H35    H     0.17501   0.01847   0.95180   0.00000  Uiso   1.00
H36    H     0.30391   0.63229   0.22920   0.00000  Uiso   1.00
H37    H     0.53467   0.05304   0.08891   0.00000  Uiso   1.00
O38    O     0.14056   0.03075   0.80914   0.00000  Uiso   1.00
O39    O     0.30969   0.83605   0.17308   0.00000  Uiso   1.00
O40    O     0.61244   0.07609   0.98902   0.00000  Uiso   1.00
N41    N     0.21079   0.15506   0.80765   0.00000  Uiso   1.00
N42    N     0.33130   0.72894   0.06700   0.00000  Uiso   1.00
N43    N     0.54704   0.18742   0.93585   0.00000  Uiso   1.00
N44    N     0.19317   0.06932   0.91480   0.00000  Uiso   1.00
N45    N     0.31368   0.64320   0.17414   0.00000  Uiso   1.00
N46    N     0.52943   0.10168   0.04300   0.00000  Uiso   1.00
C47    C     0.13541   0.63537   0.92738   0.00000  Uiso   1.00
C48    C     0.18210   0.71409   0.92056   0.00000  Uiso   1.00
C49    C     0.21154   0.73251   0.85515   0.00000  Uiso   1.00
C50    C     0.25269   0.80773   0.86061   0.00000  Uiso   1.00
C51    C     0.32349   0.92159   0.83962   0.00000  Uiso   1.00
C52    C     0.14889   0.55592   0.99204   0.00000  Uiso   1.00
C53    C     0.15041   0.44136   0.98672   0.00000  Uiso   1.00
C54    C     0.16361   0.38343   0.05235   0.00000  Uiso   1.00
C55    C     0.18282   0.25173   0.14235   0.00000  Uiso   1.00
C56    C     0.08944   0.70518   0.95589   0.00000  Uiso   1.00
C57    C     0.04096   0.71609   0.92019   0.00000  Uiso   1.00
C58    C     0.00409   0.78380   0.95539   0.00000  Uiso   1.00
C59    C     0.93099   0.88385   0.98925   0.00000  Uiso   1.00
C60    C     0.15612   0.73620   0.05339   0.00000  Uiso   1.00
C61    C     0.19335   0.76885   0.98901   0.00000  Uiso   1.00
C62    C     0.23446   0.84407   0.99456   0.00000  Uiso   1.00
C63    C     0.26396   0.86260   0.92917   0.00000  Uiso   1.00
C64    C     0.16015   0.61068   0.06048   0.00000  Uiso   1.00
C65    C     0.17334   0.55291   0.12614   0.00000  Uiso   1.00
C66    C     0.17488   0.43829   0.12092   0.00000  Uiso   1.00
C67    C     0.10069   0.75995   0.02433   0.00000  Uiso   1.00
C68    C     0.06388   0.82765   0.05960   0.00000  Uiso   1.00
C69    C     0.01536   0.83866   0.02396   0.00000  Uiso   1.00
H70    H     0.12665   0.59273   0.87410   0.00000  Uiso   1.00
H71    H     0.20282   0.69010   0.80220   0.00000  Uiso   1.00
H72    H     0.14170   0.39900   0.93375   0.00000  Uiso   1.00
H73    H     0.03227   0.67370   0.86722   0.00000  Uiso   1.00
H74    H     0.29225   0.82219   0.75267   0.00000  Uiso   1.00
H75    H     0.16335   0.20837   0.03007   0.00000  Uiso   1.00
H76    H     0.93259   0.78762   0.88978   0.00000  Uiso   1.00
H77    H     0.16489   0.77884   0.10668   0.00000  Uiso   1.00
H78    H     0.24316   0.88643   0.04754   0.00000  Uiso   1.00
H79    H     0.18204   0.59532   0.17909   0.00000  Uiso   1.00
H80    H     0.07261   0.87002   0.11256   0.00000  Uiso   1.00
H81    H     0.32499   0.98153   0.95180   0.00000  Uiso   1.00
H82    H     0.19609   0.36771   0.22920   0.00000  Uiso   1.00
H83    H     0.96533   0.94696   0.08891   0.00000  Uiso   1.00
O84    O     0.35944   0.96925   0.80914   0.00000  Uiso   1.00
O85    O     0.19031   0.16395   0.17308   0.00000  Uiso   1.00
O86    O     0.88756   0.92391   0.98902   0.00000  Uiso   1.00
N87    N     0.28921   0.84494   0.80765   0.00000  Uiso   1.00
N88    N     0.16870   0.27106   0.06700   0.00000  Uiso   1.00
N89    N     0.95296   0.81258   0.93585   0.00000  Uiso   1.00
N90    N     0.30683   0.93068   0.91480   0.00000  Uiso   1.00
N91    N     0.18632   0.35680   0.17414   0.00000  Uiso   1.00
N92    N     0.97057   0.89832   0.04300   0.00000  Uiso   1.00
C93    C     0.13541   0.86463   0.57262   0.00000  Uiso   1.00
C94    C     0.18210   0.78591   0.57944   0.00000  Uiso   1.00
C95    C     0.21154   0.76749   0.64485   0.00000  Uiso   1.00
C96    C     0.25269   0.69227   0.63939   0.00000  Uiso   1.00
C97    C     0.32349   0.57841   0.66038   0.00000  Uiso   1.00
C98    C     0.14889   0.94408   0.50796   0.00000  Uiso   1.00
C99    C     0.15041   0.05864   0.51328   0.00000  Uiso   1.00
C100   C     0.16361   0.11657   0.44765   0.00000  Uiso   1.00
C101   C     0.18282   0.24827   0.35765   0.00000  Uiso   1.00
C102   C     0.08944   0.79482   0.54411   0.00000  Uiso   1.00
C103   C     0.04096   0.78391   0.57981   0.00000  Uiso   1.00
C104   C     0.00409   0.71620   0.54461   0.00000  Uiso   1.00
C105   C     0.93099   0.61615   0.51075   0.00000  Uiso   1.00
C106   C     0.15612   0.76380   0.44661   0.00000  Uiso   1.00
C107   C     0.19335   0.73115   0.51099   0.00000  Uiso   1.00
C108   C     0.23446   0.65593   0.50544   0.00000  Uiso   1.00
C109   C     0.26396   0.63740   0.57083   0.00000  Uiso   1.00
C110   C     0.16015   0.88932   0.43952   0.00000  Uiso   1.00
C111   C     0.17334   0.94709   0.37386   0.00000  Uiso   1.00
C112   C     0.17488   0.06171   0.37908   0.00000  Uiso   1.00
C113   C     0.10069   0.74005   0.47567   0.00000  Uiso   1.00
C114   C     0.06388   0.67235   0.44040   0.00000  Uiso   1.00
C115   C     0.01536   0.66134   0.47604   0.00000  Uiso   1.00
H116   H     0.12665   0.90727   0.62590   0.00000  Uiso   1.00
H117   H     0.20282   0.80990   0.69780   0.00000  Uiso   1.00
H118   H     0.14170   0.10100   0.56625   0.00000  Uiso   1.00
H119   H     0.03227   0.82630   0.63278   0.00000  Uiso   1.00
H120   H     0.29225   0.67781   0.74733   0.00000  Uiso   1.00
H121   H     0.16335   0.29163   0.46993   0.00000  Uiso   1.00
H122   H     0.93259   0.71238   0.61022   0.00000  Uiso   1.00
H123   H     0.16489   0.72116   0.39332   0.00000  Uiso   1.00
H124   H     0.24316   0.61357   0.45246   0.00000  Uiso   1.00
H125   H     0.18204   0.90468   0.32091   0.00000  Uiso   1.00
H126   H     0.07261   0.62998   0.38744   0.00000  Uiso   1.00
H127   H     0.32499   0.51847   0.54820   0.00000  Uiso   1.00
H128   H     0.19609   0.13229   0.27080   0.00000  Uiso   1.00
H129   H     0.96533   0.55304   0.41109   0.00000  Uiso   1.00
O130   O     0.35944   0.53075   0.69086   0.00000  Uiso   1.00
O131   O     0.19031   0.33605   0.32692   0.00000  Uiso   1.00
O132   O     0.88756   0.57609   0.51098   0.00000  Uiso   1.00
N133   N     0.28921   0.65506   0.69235   0.00000  Uiso   1.00
N134   N     0.16870   0.22894   0.43300   0.00000  Uiso   1.00
N135   N     0.95296   0.68742   0.56415   0.00000  Uiso   1.00
N136   N     0.30683   0.56932   0.58520   0.00000  Uiso   1.00
N137   N     0.18632   0.14320   0.32586   0.00000  Uiso   1.00
N138   N     0.97057   0.60168   0.45700   0.00000  Uiso   1.00
C139   C     0.36459   0.13537   0.57262   0.00000  Uiso   1.00
C140   C     0.31790   0.21409   0.57944   0.00000  Uiso   1.00
C141   C     0.28846   0.23251   0.64485   0.00000  Uiso   1.00
C142   C     0.24731   0.30773   0.63939   0.00000  Uiso   1.00
C143   C     0.17651   0.42159   0.66038   0.00000  Uiso   1.00
C144   C     0.35111   0.05592   0.50796   0.00000  Uiso   1.00
C145   C     0.34959   0.94136   0.51328   0.00000  Uiso   1.00
C146   C     0.33639   0.88343   0.44765   0.00000  Uiso   1.00
C147   C     0.31718   0.75173   0.35765   0.00000  Uiso   1.00
C148   C     0.41056   0.20518   0.54411   0.00000  Uiso   1.00
C149   C     0.45904   0.21609   0.57981   0.00000  Uiso   1.00
C150   C     0.49591   0.28380   0.54461   0.00000  Uiso   1.00
C151   C     0.56901   0.38385   0.51075   0.00000  Uiso   1.00
C152   C     0.34388   0.23620   0.44661   0.00000  Uiso   1.00
C153   C     0.30665   0.26885   0.51099   0.00000  Uiso   1.00
C154   C     0.26554   0.34407   0.50544   0.00000  Uiso   1.00
C155   C     0.23604   0.36260   0.57083   0.00000  Uiso   1.00
C156   C     0.33985   0.11068   0.43952   0.00000  Uiso   1.00
C157   C     0.32666   0.05291   0.37386   0.00000  Uiso   1.00
C158   C     0.32512   0.93829   0.37908   0.00000  Uiso   1.00
C159   C     0.39931   0.25995   0.47567   0.00000  Uiso   1.00
C160   C     0.43612   0.32765   0.44040   0.00000  Uiso   1.00
C161   C     0.48464   0.33866   0.47604   0.00000  Uiso   1.00
H162   H     0.37335   0.09273   0.62590   0.00000  Uiso   1.00
H163   H     0.29718   0.19010   0.69780   0.00000  Uiso   1.00
H164   H     0.35830   0.89900   0.56625   0.00000  Uiso   1.00
H165   H     0.46773   0.17370   0.63278   0.00000  Uiso   1.00
H166   H     0.20775   0.32219   0.74733   0.00000  Uiso   1.00
H167   H     0.33665   0.70837   0.46993   0.00000  Uiso   1.00
H168   H     0.56741   0.28762   0.61022   0.00000  Uiso   1.00
H169   H     0.33511   0.27884   0.39332   0.00000  Uiso   1.00
H170   H     0.25684   0.38643   0.45246   0.00000  Uiso   1.00
H171   H     0.31796   0.09532   0.32091   0.00000  Uiso   1.00
H172   H     0.42739   0.37002   0.38744   0.00000  Uiso   1.00
H173   H     0.17501   0.48153   0.54820   0.00000  Uiso   1.00
H174   H     0.30391   0.86771   0.27080   0.00000  Uiso   1.00
H175   H     0.53467   0.44696   0.41109   0.00000  Uiso   1.00
O176   O     0.14056   0.46925   0.69086   0.00000  Uiso   1.00
O177   O     0.30969   0.66395   0.32692   0.00000  Uiso   1.00
O178   O     0.61244   0.42391   0.51098   0.00000  Uiso   1.00
N179   N     0.21079   0.34494   0.69235   0.00000  Uiso   1.00
N180   N     0.33130   0.77106   0.43300   0.00000  Uiso   1.00
N181   N     0.54704   0.31258   0.56415   0.00000  Uiso   1.00
N182   N     0.19317   0.43068   0.58520   0.00000  Uiso   1.00
N183   N     0.31368   0.85680   0.32586   0.00000  Uiso   1.00
N184   N     0.52943   0.39832   0.45700   0.00000  Uiso   1.00
C185   C     0.63541   0.63537   0.07262   0.00000  Uiso   1.00
C186   C     0.68210   0.71409   0.07944   0.00000  Uiso   1.00
C187   C     0.71154   0.73251   0.14485   0.00000  Uiso   1.00
C188   C     0.75269   0.80773   0.13939   0.00000  Uiso   1.00
C189   C     0.82349   0.92159   0.16038   0.00000  Uiso   1.00
C190   C     0.64889   0.55592   0.00796   0.00000  Uiso   1.00
C191   C     0.65041   0.44136   0.01328   0.00000  Uiso   1.00
C192   C     0.66361   0.38343   0.94765   0.00000  Uiso   1.00
C193   C     0.68282   0.25173   0.85765   0.00000  Uiso   1.00
C194   C     0.58944   0.70518   0.04411   0.00000  Uiso   1.00
C195   C     0.54096   0.71609   0.07981   0.00000  Uiso   1.00
C196   C     0.50409   0.78380   0.04461   0.00000  Uiso   1.00
C197   C     0.43099   0.88385   0.01075   0.00000  Uiso   1.00
C198   C     0.65612   0.73620   0.94661   0.00000  Uiso   1.00
C199   C     0.69335   0.76885   0.01099   0.00000  Uiso   1.00
C200   C     0.73446   0.84407   0.00544   0.00000  Uiso   1.00
C201   C     0.76396   0.86260   0.07083   0.00000  Uiso   1.00
C202   C     0.66015   0.61068   0.93952   0.00000  Uiso   1.00
C203   C     0.67334   0.55291   0.87386   0.00000  Uiso   1.00
C204   C     0.67488   0.43829   0.87908   0.00000  Uiso   1.00
C205   C     0.60069   0.75995   0.97567   0.00000  Uiso   1.00
C206   C     0.56388   0.82765   0.94040   0.00000  Uiso   1.00
C207   C     0.51536   0.83866   0.97604   0.00000  Uiso   1.00
H208   H     0.62665   0.59273   0.12590   0.00000  Uiso   1.00
H209   H     0.70282   0.69010   0.19780   0.00000  Uiso   1.00
H210   H     0.64170   0.39900   0.06625   0.00000  Uiso   1.00
H211   H     0.53227   0.67370   0.13278   0.00000  Uiso   1.00
H212   H     0.79225   0.82219   0.24733   0.00000  Uiso   1.00
H213   H     0.66335   0.20837   0.96993   0.00000  Uiso   1.00
H214   H     0.43259   0.78762   0.11022   0.00000  Uiso   1.00
H215   H     0.66489   0.77884   0.89332   0.00000  Uiso   1.00
H216   H     0.74316   0.88643   0.95246   0.00000  Uiso   1.00
H217   H     0.68204   0.59532   0.82091   0.00000  Uiso   1.00
H218   H     0.57261   0.87002   0.88744   0.00000  Uiso   1.00
H219   H     0.82499   0.98153   0.04820   0.00000  Uiso   1.00
H220   H     0.69609   0.36771   0.77080   0.00000  Uiso   1.00
H221   H     0.46533   0.94696   0.91109   0.00000  Uiso   1.00
O222   O     0.85944   0.96925   0.19086   0.00000  Uiso   1.00
O223   O     0.69031   0.16395   0.82692   0.00000  Uiso   1.00
O224   O     0.38756   0.92391   0.01098   0.00000  Uiso   1.00
N225   N     0.78921   0.84494   0.19235   0.00000  Uiso   1.00
N226   N     0.66870   0.27106   0.93300   0.00000  Uiso   1.00
N227   N     0.45296   0.81258   0.06415   0.00000  Uiso   1.00
N228   N     0.80683   0.93068   0.08520   0.00000  Uiso   1.00
N229   N     0.68632   0.35680   0.82586   0.00000  Uiso   1.00
N230   N     0.47057   0.89832   0.95700   0.00000  Uiso   1.00
C231   C     0.86459   0.36463   0.07262   0.00000  Uiso   1.00
C232   C     0.81790   0.28591   0.07944   0.00000  Uiso   1.00
C233   C     0.78846   0.26749   0.14485   0.00000  Uiso   1.00
C234   C     0.74731   0.19227   0.13939   0.00000  Uiso   1.00
C235   C     0.67651   0.07841   0.16038   0.00000  Uiso   1.00
C236   C     0.85111   0.44408   0.00796   0.00000  Uiso   1.00
C237   C     0.84959   0.55864   0.01328   0.00000  Uiso   1.00
C238   C     0.83639   0.61657   0.94765   0.00000  Uiso   1.00
C239   C     0.81718   0.74827   0.85765   0.00000  Uiso   1.00
C240   C     0.91056   0.29482   0.04411   0.00000  Uiso   1.00
C241   C     0.95904   0.28391   0.07981   0.00000  Uiso   1.00
C242   C     0.99591   0.21620   0.04461   0.00000  Uiso   1.00
C243   C     0.06901   0.11615   0.01075   0.00000  Uiso   1.00
C244   C     0.84388   0.26380   0.94661   0.00000  Uiso   1.00
C245   C     0.80665   0.23115   0.01099   0.00000  Uiso   1.00
C246   C     0.76554   0.15593   0.00544   0.00000  Uiso   1.00
C247   C     0.73604   0.13740   0.07083   0.00000  Uiso   1.00
C248   C     0.83985   0.38932   0.93952   0.00000  Uiso   1.00
C249   C     0.82666   0.44709   0.87386   0.00000  Uiso   1.00
C250   C     0.82512   0.56171   0.87908   0.00000  Uiso   1.00
C251   C     0.89931   0.24005   0.97567   0.00000  Uiso   1.00
C252   C     0.93612   0.17235   0.94040   0.00000  Uiso   1.00
C253   C     0.98464   0.16134   0.97604   0.00000  Uiso   1.00
H254   H     0.87335   0.40727   0.12590   0.00000  Uiso   1.00
H255   H     0.79718   0.30990   0.19780   0.00000  Uiso   1.00
H256   H     0.85830   0.60100   0.06625   0.00000  Uiso   1.00
H257   H     0.96773   0.32630   0.13278   0.00000  Uiso   1.00
H258   H     0.70775   0.17781   0.24733   0.00000  Uiso   1.00
H259   H     0.83665   0.79163   0.96993   0.00000  Uiso   1.00
H260   H     0.06741   0.21238   0.11022   0.00000  Uiso   1.00
H261   H     0.83511   0.22116   0.89332   0.00000  Uiso   1.00
H262   H     0.75684   0.11357   0.95246   0.00000  Uiso   1.00
H263   H     0.81796   0.40468   0.82091   0.00000  Uiso   1.00
H264   H     0.92739   0.12998   0.88744   0.00000  Uiso   1.00
H265   H     0.67501   0.01847   0.04820   0.00000  Uiso   1.00
H266   H     0.80391   0.63229   0.77080   0.00000  Uiso   1.00
H267   H     0.03467   0.05304   0.91109   0.00000  Uiso   1.00
O268   O     0.64056   0.03075   0.19086   0.00000  Uiso   1.00
O269   O     0.80969   0.83605   0.82692   0.00000  Uiso   1.00
O270   O     0.11244   0.07609   0.01098   0.00000  Uiso   1.00
N271   N     0.71079   0.15506   0.19235   0.00000  Uiso   1.00
N272   N     0.83130   0.72894   0.93300   0.00000  Uiso   1.00
N273   N     0.04704   0.18742   0.06415   0.00000  Uiso   1.00
N274   N     0.69317   0.06932   0.08520   0.00000  Uiso   1.00
N275   N     0.81368   0.64320   0.82586   0.00000  Uiso   1.00
N276   N     0.02943   0.10168   0.95700   0.00000  Uiso   1.00
C277   C     0.86459   0.13537   0.42738   0.00000  Uiso   1.00
C278   C     0.81790   0.21409   0.42056   0.00000  Uiso   1.00
C279   C     0.78846   0.23251   0.35515   0.00000  Uiso   1.00
C280   C     0.74731   0.30773   0.36061   0.00000  Uiso   1.00
C281   C     0.67651   0.42159   0.33962   0.00000  Uiso   1.00
C282   C     0.85111   0.05592   0.49204   0.00000  Uiso   1.00
C283   C     0.84959   0.94136   0.48672   0.00000  Uiso   1.00
C284   C     0.83639   0.88343   0.55235   0.00000  Uiso   1.00
C285   C     0.81718   0.75173   0.64235   0.00000  Uiso   1.00
C286   C     0.91056   0.20518   0.45589   0.00000  Uiso   1.00
C287   C     0.95904   0.21609   0.42019   0.00000  Uiso   1.00
C288   C     0.99591   0.28380   0.45539   0.00000  Uiso   1.00
C289   C     0.06901   0.38385   0.48925   0.00000  Uiso   1.00
C290   C     0.84388   0.23620   0.55339   0.00000  Uiso   1.00
C291   C     0.80665   0.26885   0.48901   0.00000  Uiso   1.00
C292   C     0.76554   0.34407   0.49456   0.00000  Uiso   1.00
C293   C     0.73604   0.36260   0.42917   0.00000  Uiso   1.00
C294   C     0.83985   0.11068   0.56048   0.00000  Uiso   1.00
C295   C     0.82666   0.05291   0.62614   0.00000  Uiso   1.00
C296   C     0.82512   0.93829   0.62092   0.00000  Uiso   1.00
C297   C     0.89931   0.25995   0.52433   0.00000  Uiso   1.00
C298   C     0.93612   0.32765   0.55960   0.00000  Uiso   1.00
C299   C     0.98464   0.33866   0.52396   0.00000  Uiso   1.00
H300   H     0.87335   0.09273   0.37410   0.00000  Uiso   1.00
H301   H     0.79718   0.19010   0.30220   0.00000  Uiso   1.00
H302   H     0.85830   0.89900   0.43375   0.00000  Uiso   1.00
H303   H     0.96773   0.17370   0.36722   0.00000  Uiso   1.00
H304   H     0.70775   0.32219   0.25267   0.00000  Uiso   1.00
H305   H     0.83665   0.70837   0.53007   0.00000  Uiso   1.00
H306   H     0.06741   0.28762   0.38978   0.00000  Uiso   1.00
H307   H     0.83511   0.27884   0.60668   0.00000  Uiso   1.00
H308   H     0.75684   0.38643   0.54754   0.00000  Uiso   1.00
H309   H     0.81796   0.09532   0.67909   0.00000  Uiso   1.00
H310   H     0.92739   0.37002   0.61256   0.00000  Uiso   1.00
H311   H     0.67501   0.48153   0.45180   0.00000  Uiso   1.00
H312   H     0.80391   0.86771   0.72920   0.00000  Uiso   1.00
H313   H     0.03467   0.44696   0.58891   0.00000  Uiso   1.00
O314   O     0.64056   0.46925   0.30914   0.00000  Uiso   1.00
O315   O     0.80969   0.66395   0.67308   0.00000  Uiso   1.00
O316   O     0.11244   0.42391   0.48902   0.00000  Uiso   1.00
N317   N     0.71079   0.34494   0.30765   0.00000  Uiso   1.00
N318   N     0.83130   0.77106   0.56700   0.00000  Uiso   1.00
N319   N     0.04704   0.31258   0.43585   0.00000  Uiso   1.00
N320   N     0.69317   0.43068   0.41480   0.00000  Uiso   1.00
N321   N     0.81368   0.85680   0.67414   0.00000  Uiso   1.00
N322   N     0.02943   0.39832   0.54300   0.00000  Uiso   1.00
C323   C     0.63541   0.86463   0.42738   0.00000  Uiso   1.00
C324   C     0.68210   0.78591   0.42056   0.00000  Uiso   1.00
C325   C     0.71154   0.76749   0.35515   0.00000  Uiso   1.00
C326   C     0.75269   0.69227   0.36061   0.00000  Uiso   1.00
C327   C     0.82349   0.57841   0.33962   0.00000  Uiso   1.00
C328   C     0.64889   0.94408   0.49204   0.00000  Uiso   1.00
C329   C     0.65041   0.05864   0.48672   0.00000  Uiso   1.00
C330   C     0.66361   0.11657   0.55235   0.00000  Uiso   1.00
C331   C     0.68282   0.24827   0.64235   0.00000  Uiso   1.00
C332   C     0.58944   0.79482   0.45589   0.00000  Uiso   1.00
C333   C     0.54096   0.78391   0.42019   0.00000  Uiso   1.00
C334   C     0.50409   0.71620   0.45539   0.00000  Uiso   1.00
C335   C     0.43099   0.61615   0.48925   0.00000  Uiso   1.00
C336   C     0.65612   0.76380   0.55339   0.00000  Uiso   1.00
C337   C     0.69335   0.73115   0.48901   0.00000  Uiso   1.00
C338   C     0.73446   0.65593   0.49456   0.00000  Uiso   1.00
C339   C     0.76396   0.63740   0.42917   0.00000  Uiso   1.00
C340   C     0.66015   0.88932   0.56048   0.00000  Uiso   1.00
C341   C     0.67334   0.94709   0.62614   0.00000  Uiso   1.00
C342   C     0.67488   0.06171   0.62092   0.00000  Uiso   1.00
C343   C     0.60069   0.74005   0.52433   0.00000  Uiso   1.00
C344   C     0.56388   0.67235   0.55960   0.00000  Uiso   1.00
C345   C     0.51536   0.66134   0.52396   0.00000  Uiso   1.00
H346   H     0.62665   0.90727   0.37410   0.00000  Uiso   1.00
H347   H     0.70282   0.80990   0.30220   0.00000  Uiso   1.00
H348   H     0.64170   0.10100   0.43375   0.00000  Uiso   1.00
H349   H     0.53227   0.82630   0.36722   0.00000  Uiso   1.00
H350   H     0.79225   0.67781   0.25267   0.00000  Uiso   1.00
H351   H     0.66335   0.29163   0.53007   0.00000  Uiso   1.00
H352   H     0.43259   0.71238   0.38978   0.00000  Uiso   1.00
H353   H     0.66489   0.72116   0.60668   0.00000  Uiso   1.00
H354   H     0.74316   0.61357   0.54754   0.00000  Uiso   1.00
H355   H     0.68204   0.90468   0.67909   0.00000  Uiso   1.00
H356   H     0.57261   0.62998   0.61256   0.00000  Uiso   1.00
H357   H     0.82499   0.51847   0.45180   0.00000  Uiso   1.00
H358   H     0.69609   0.13229   0.72920   0.00000  Uiso   1.00
H359   H     0.46533   0.55304   0.58891   0.00000  Uiso   1.00
O360   O     0.85944   0.53075   0.30914   0.00000  Uiso   1.00
O361   O     0.69031   0.33605   0.67308   0.00000  Uiso   1.00
O362   O     0.38756   0.57609   0.48902   0.00000  Uiso   1.00
N363   N     0.78921   0.65506   0.30765   0.00000  Uiso   1.00
N364   N     0.66870   0.22894   0.56700   0.00000  Uiso   1.00
N365   N     0.45296   0.68742   0.43585   0.00000  Uiso   1.00
N366   N     0.80683   0.56932   0.41480   0.00000  Uiso   1.00
N367   N     0.68632   0.14320   0.67414   0.00000  Uiso   1.00
N368   N     0.47057   0.60168   0.54300   0.00000  Uiso   1.00
