data_job_06126
_audit_creation_date              2018-12-19
_audit_creation_method            'Materials Studio'
_symmetry_space_group_name_H-M    'P1'
_symmetry_Int_Tables_number       1
_symmetry_cell_setting            triclinic
loop_
_symmetry_equiv_pos_as_xyz
  x,y,z
_cell_length_a                    17.8073
_cell_length_b                    16.6714
_cell_length_c                    16.3534
_cell_angle_alpha                 100.8820
_cell_angle_beta                  99.5916
_cell_angle_gamma                 100.3520
loop_
_atom_site_label
_atom_site_type_symbol
_atom_site_fract_x
_atom_site_fract_y
_atom_site_fract_z
_atom_site_U_iso_or_equiv
_atom_site_adp_type
_atom_site_occupancy
C1     C     0.75085   0.24819   0.40148   0.00000  Uiso   1.00
C2     C     0.75143   0.32456   0.46985   0.00000  Uiso   1.00
C3     C     0.69956   0.32920   0.52430   0.00000  Uiso   1.00
C4     C     0.70986   0.40467   0.58242   0.00000  Uiso   1.00
C5     C     0.70161   0.51289   0.68803   0.00000  Uiso   1.00
C6     C     0.74518   0.27716   0.31804   0.00000  Uiso   1.00
C7     C     0.68805   0.24193   0.24486   0.00000  Uiso   1.00
C8     C     0.69309   0.27749   0.17519   0.00000  Uiso   1.00
C9     C     0.67516   0.31206   0.04510   0.00000  Uiso   1.00
C10    C     0.83167   0.22905   0.42090   0.00000  Uiso   1.00
C11    C     0.84728   0.15336   0.43418   0.00000  Uiso   1.00
C12    C     0.92515   0.14841   0.45109   0.00000  Uiso   1.00
C13    C     0.04152   0.10829   0.48070   0.00000  Uiso   1.00
C14    C     0.86137   0.37398   0.40786   0.00000  Uiso   1.00
C15    C     0.81146   0.39289   0.47331   0.00000  Uiso   1.00
C16    C     0.82185   0.46837   0.53137   0.00000  Uiso   1.00
C17    C     0.77000   0.47312   0.58590   0.00000  Uiso   1.00
C18    C     0.80520   0.34548   0.32151   0.00000  Uiso   1.00
C19    C     0.81033   0.38110   0.25192   0.00000  Uiso   1.00
C20    C     0.75323   0.34593   0.17866   0.00000  Uiso   1.00
C21    C     0.89171   0.29737   0.42437   0.00000  Uiso   1.00
C22    C     0.96956   0.29253   0.44125   0.00000  Uiso   1.00
C23    C     0.98529   0.21686   0.45456   0.00000  Uiso   1.00
H24    H     0.70411   0.19500   0.39877   0.00000  Uiso   1.00
H25    H     0.65311   0.27632   0.52160   0.00000  Uiso   1.00
H26    H     0.64161   0.18905   0.24220   0.00000  Uiso   1.00
H27    H     0.80081   0.10050   0.43149   0.00000  Uiso   1.00
H28    H     0.62302   0.39661   0.65928   0.00000  Uiso   1.00
H29    H     0.59879   0.21259   0.07014   0.00000  Uiso   1.00
H30    H     0.93450   0.02587   0.46931   0.00000  Uiso   1.00
H31    H     0.90811   0.42717   0.41056   0.00000  Uiso   1.00
H32    H     0.86831   0.52123   0.53403   0.00000  Uiso   1.00
H33    H     0.85680   0.43396   0.25463   0.00000  Uiso   1.00
H34    H     0.01600   0.34542   0.44393   0.00000  Uiso   1.00
H35    H     0.79768   0.59540   0.66937   0.00000  Uiso   1.00
H36    H     0.77345   0.41137   0.08023   0.00000  Uiso   1.00
H37    H     0.10916   0.22465   0.47940   0.00000  Uiso   1.00
O38    O     0.68047   0.55370   0.74532   0.00000  Uiso   1.00
O39    O     0.64868   0.31226   0.97239   0.00000  Uiso   1.00
O40    O     0.08912   0.06728   0.49609   0.00000  Uiso   1.00
N41    N     0.66960   0.43048   0.64472   0.00000  Uiso   1.00
N42    N     0.64693   0.25844   0.09391   0.00000  Uiso   1.00
N43    N     0.96079   0.08386   0.46708   0.00000  Uiso   1.00
N44    N     0.76358   0.53745   0.65015   0.00000  Uiso   1.00
N45    N     0.74092   0.36541   0.09934   0.00000  Uiso   1.00
N46    N     0.05478   0.19083   0.47251   0.00000  Uiso   1.00
C47    C     0.40033   0.75332   0.24773   0.00000  Uiso   1.00
C48    C     0.46275   0.75193   0.32330   0.00000  Uiso   1.00
C49    C     0.51030   0.69456   0.32501   0.00000  Uiso   1.00
C50    C     0.56376   0.70393   0.40022   0.00000  Uiso   1.00
C51    C     0.65980   0.69195   0.50679   0.00000  Uiso   1.00
C52    C     0.32446   0.74925   0.27996   0.00000  Uiso   1.00
C53    C     0.25574   0.68964   0.24520   0.00000  Uiso   1.00
C54    C     0.19279   0.69675   0.28393   0.00000  Uiso   1.00
C55    C     0.07411   0.68065   0.32315   0.00000  Uiso   1.00
C56    C     0.42089   0.84007   0.22941   0.00000  Uiso   1.00
C57    C     0.43323   0.85681   0.15216   0.00000  Uiso   1.00
C58    C     0.45145   0.94039   0.14832   0.00000  Uiso   1.00
C59    C     0.48250   0.06528   0.10908   0.00000  Uiso   1.00
C60    C     0.41071   0.87197   0.37829   0.00000  Uiso   1.00
C61    C     0.46838   0.81638   0.39422   0.00000  Uiso   1.00
C62    C     0.52179   0.82583   0.46945   0.00000  Uiso   1.00
C63    C     0.56942   0.76849   0.47126   0.00000  Uiso   1.00
C64    C     0.33010   0.81370   0.35087   0.00000  Uiso   1.00
C65    C     0.26723   0.82091   0.38965   0.00000  Uiso   1.00
C66    C     0.19844   0.76131   0.35497   0.00000  Uiso   1.00
C67    C     0.42653   0.90451   0.30033   0.00000  Uiso   1.00
C68    C     0.44473   0.98808   0.29661   0.00000  Uiso   1.00
C69    C     0.45710   0.00495   0.21936   0.00000  Uiso   1.00
H70    H     0.39593   0.70314   0.19253   0.00000  Uiso   1.00
H71    H     0.50591   0.64469   0.27012   0.00000  Uiso   1.00
H72    H     0.25139   0.63978   0.19032   0.00000  Uiso   1.00
H73    H     0.42886   0.80692   0.09730   0.00000  Uiso   1.00
H74    H     0.63031   0.60830   0.38742   0.00000  Uiso   1.00
H75    H     0.09363   0.59794   0.21915   0.00000  Uiso   1.00
H76    H     0.46787   0.95040   0.02298   0.00000  Uiso   1.00
H77    H     0.41510   0.92214   0.43350   0.00000  Uiso   1.00
H78    H     0.52614   0.87571   0.52432   0.00000  Uiso   1.00
H79    H     0.27162   0.87079   0.44452   0.00000  Uiso   1.00
H80    H     0.44909   0.03793   0.35149   0.00000  Uiso   1.00
H81    H     0.64673   0.79579   0.59374   0.00000  Uiso   1.00
H82    H     0.11004   0.78544   0.42547   0.00000  Uiso   1.00
H83    H     0.48428   0.13790   0.22930   0.00000  Uiso   1.00
O84    O     0.71120   0.66753   0.54598   0.00000  Uiso   1.00
O85    O     0.00709   0.65396   0.32521   0.00000  Uiso   1.00
O86    O     0.49808   0.11637   0.06785   0.00000  Uiso   1.00
N87    N     0.61895   0.65881   0.42351   0.00000  Uiso   1.00
N88    N     0.11719   0.64912   0.26619   0.00000  Uiso   1.00
N89    N     0.46704   0.97863   0.08279   0.00000  Uiso   1.00
N90    N     0.62778   0.75970   0.53453   0.00000  Uiso   1.00
N91    N     0.12602   0.75001   0.37721   0.00000  Uiso   1.00
N92    N     0.47588   0.07953   0.19381   0.00000  Uiso   1.00
C93    C     0.25558   0.40498   0.75717   0.00000  Uiso   1.00
C94    C     0.32652   0.47037   0.75463   0.00000  Uiso   1.00
C95    C     0.32960   0.52181   0.69717   0.00000  Uiso   1.00
C96    C     0.39993   0.57751   0.70540   0.00000  Uiso   1.00
C97    C     0.50023   0.67839   0.69179   0.00000  Uiso   1.00
C98    C     0.28202   0.32232   0.75020   0.00000  Uiso   1.00
C99    C     0.24767   0.24928   0.68902   0.00000  Uiso   1.00
C100   C     0.28054   0.18035   0.69352   0.00000  Uiso   1.00
C101   C     0.31171   0.05138   0.67307   0.00000  Uiso   1.00
C102   C     0.24004   0.42735   0.84670   0.00000  Uiso   1.00
C103   C     0.17040   0.44260   0.86666   0.00000  Uiso   1.00
C104   C     0.16792   0.46208   0.95241   0.00000  Uiso   1.00
C105   C     0.13392   0.49618   0.08178   0.00000  Uiso   1.00
C106   C     0.37500   0.41243   0.87396   0.00000  Uiso   1.00
C107   C     0.39138   0.47441   0.81807   0.00000  Uiso   1.00
C108   C     0.46173   0.53005   0.82639   0.00000  Uiso   1.00
C109   C     0.46491   0.58157   0.76895   0.00000  Uiso   1.00
C110   C     0.34688   0.32636   0.81363   0.00000  Uiso   1.00
C111   C     0.37980   0.25752   0.81823   0.00000  Uiso   1.00
C112   C     0.34552   0.18440   0.75707   0.00000  Uiso   1.00
C113   C     0.30491   0.43140   0.91014   0.00000  Uiso   1.00
C114   C     0.30253   0.45085   0.99587   0.00000  Uiso   1.00
C115   C     0.23290   0.46613   0.01596   0.00000  Uiso   1.00
H116   H     0.20508   0.40182   0.70778   0.00000  Uiso   1.00
H117   H     0.27939   0.51865   0.64809   0.00000  Uiso   1.00
H118   H     0.19747   0.24617   0.63994   0.00000  Uiso   1.00
H119   H     0.12022   0.43946   0.81755   0.00000  Uiso   1.00
H120   H     0.39040   0.64994   0.60986   0.00000  Uiso   1.00
H121   H     0.21765   0.07539   0.59270   0.00000  Uiso   1.00
H122   H     0.05474   0.48298   0.96723   0.00000  Uiso   1.00
H123   H     0.42550   0.41558   0.92335   0.00000  Uiso   1.00
H124   H     0.51192   0.53317   0.87549   0.00000  Uiso   1.00
H125   H     0.42999   0.26068   0.86734   0.00000  Uiso   1.00
H126   H     0.35274   0.45397   0.04495   0.00000  Uiso   1.00
H127   H     0.57912   0.66172   0.79443   0.00000  Uiso   1.00
H128   H     0.40637   0.08716   0.77727   0.00000  Uiso   1.00
H129   H     0.24346   0.49476   0.15180   0.00000  Uiso   1.00
O130   O     0.53763   0.73292   0.66675   0.00000  Uiso   1.00
O131   O     0.31098   0.97912   0.64425   0.00000  Uiso   1.00
O132   O     0.09725   0.51388   0.13562   0.00000  Uiso   1.00
N133   N     0.42295   0.63659   0.65988   0.00000  Uiso   1.00
N134   N     0.26145   0.09942   0.64383   0.00000  Uiso   1.00
N135   N     0.10913   0.48046   0.99398   0.00000  Uiso   1.00
N136   N     0.52450   0.64293   0.75919   0.00000  Uiso   1.00
N137   N     0.36300   0.10575   0.74314   0.00000  Uiso   1.00
N138   N     0.21068   0.48680   0.09329   0.00000  Uiso   1.00
C139   C     0.24915   0.75181   0.59852   0.00000  Uiso   1.00
C140   C     0.24857   0.67544   0.53015   0.00000  Uiso   1.00
C141   C     0.30044   0.67080   0.47570   0.00000  Uiso   1.00
C142   C     0.29014   0.59533   0.41758   0.00000  Uiso   1.00
C143   C     0.29839   0.48711   0.31197   0.00000  Uiso   1.00
C144   C     0.25482   0.72284   0.68196   0.00000  Uiso   1.00
C145   C     0.31195   0.75807   0.75514   0.00000  Uiso   1.00
C146   C     0.30691   0.72251   0.82481   0.00000  Uiso   1.00
C147   C     0.32484   0.68794   0.95490   0.00000  Uiso   1.00
C148   C     0.16833   0.77095   0.57910   0.00000  Uiso   1.00
C149   C     0.15272   0.84664   0.56582   0.00000  Uiso   1.00
C150   C     0.07485   0.85159   0.54891   0.00000  Uiso   1.00
C151   C     0.95848   0.89171   0.51930   0.00000  Uiso   1.00
C152   C     0.13863   0.62602   0.59214   0.00000  Uiso   1.00
C153   C     0.18854   0.60711   0.52669   0.00000  Uiso   1.00
C154   C     0.17815   0.53163   0.46863   0.00000  Uiso   1.00
C155   C     0.23000   0.52688   0.41410   0.00000  Uiso   1.00
C156   C     0.19480   0.65452   0.67849   0.00000  Uiso   1.00
C157   C     0.18967   0.61890   0.74808   0.00000  Uiso   1.00
C158   C     0.24677   0.65407   0.82134   0.00000  Uiso   1.00
C159   C     0.10829   0.70263   0.57563   0.00000  Uiso   1.00
C160   C     0.03044   0.70747   0.55875   0.00000  Uiso   1.00
C161   C     0.01471   0.78314   0.54544   0.00000  Uiso   1.00
H162   H     0.29589   0.80500   0.60123   0.00000  Uiso   1.00
H163   H     0.34689   0.72368   0.47840   0.00000  Uiso   1.00
H164   H     0.35839   0.81095   0.75780   0.00000  Uiso   1.00
H165   H     0.19919   0.89950   0.56851   0.00000  Uiso   1.00
H166   H     0.37698   0.60339   0.34072   0.00000  Uiso   1.00
H167   H     0.40121   0.78741   0.92986   0.00000  Uiso   1.00
H168   H     0.06550   0.97413   0.53069   0.00000  Uiso   1.00
H169   H     0.09189   0.57283   0.58944   0.00000  Uiso   1.00
H170   H     0.13169   0.47877   0.46597   0.00000  Uiso   1.00
H171   H     0.14320   0.56604   0.74537   0.00000  Uiso   1.00
H172   H     0.98400   0.65458   0.55607   0.00000  Uiso   1.00
H173   H     0.20232   0.40460   0.33063   0.00000  Uiso   1.00
H174   H     0.22655   0.58863   0.91977   0.00000  Uiso   1.00
H175   H     0.89084   0.77535   0.52060   0.00000  Uiso   1.00
O176   O     0.31953   0.44630   0.25468   0.00000  Uiso   1.00
O177   O     0.35132   0.68774   0.02761   0.00000  Uiso   1.00
O178   O     0.91088   0.93271   0.50391   0.00000  Uiso   1.00
N179   N     0.33040   0.56952   0.35528   0.00000  Uiso   1.00
N180   N     0.35307   0.74156   0.90609   0.00000  Uiso   1.00
N181   N     0.03921   0.91614   0.53292   0.00000  Uiso   1.00
N182   N     0.23642   0.46255   0.34985   0.00000  Uiso   1.00
N183   N     0.25908   0.63459   0.90066   0.00000  Uiso   1.00
N184   N     0.94522   0.80917   0.52749   0.00000  Uiso   1.00
C185   C     0.59967   0.24668   0.75227   0.00000  Uiso   1.00
C186   C     0.53725   0.24807   0.67670   0.00000  Uiso   1.00
C187   C     0.48970   0.30544   0.67499   0.00000  Uiso   1.00
C188   C     0.43624   0.29607   0.59978   0.00000  Uiso   1.00
C189   C     0.34020   0.30805   0.49321   0.00000  Uiso   1.00
C190   C     0.67554   0.25075   0.72004   0.00000  Uiso   1.00
C191   C     0.74426   0.31036   0.75480   0.00000  Uiso   1.00
C192   C     0.80721   0.30325   0.71607   0.00000  Uiso   1.00
C193   C     0.92589   0.31935   0.67684   0.00000  Uiso   1.00
C194   C     0.57911   0.15993   0.77059   0.00000  Uiso   1.00
C195   C     0.56677   0.14319   0.84784   0.00000  Uiso   1.00
C196   C     0.54855   0.05961   0.85168   0.00000  Uiso   1.00
C197   C     0.51750   0.93472   0.89092   0.00000  Uiso   1.00
C198   C     0.58929   0.12803   0.62171   0.00000  Uiso   1.00
C199   C     0.53162   0.18362   0.60578   0.00000  Uiso   1.00
C200   C     0.47821   0.17417   0.53055   0.00000  Uiso   1.00
C201   C     0.43058   0.23151   0.52874   0.00000  Uiso   1.00
C202   C     0.66990   0.18630   0.64913   0.00000  Uiso   1.00
C203   C     0.73277   0.17909   0.61035   0.00000  Uiso   1.00
C204   C     0.80156   0.23869   0.64503   0.00000  Uiso   1.00
C205   C     0.57347   0.09549   0.69967   0.00000  Uiso   1.00
C206   C     0.55527   0.01192   0.70339   0.00000  Uiso   1.00
C207   C     0.54290   0.99505   0.78064   0.00000  Uiso   1.00
H208   H     0.60407   0.29686   0.80747   0.00000  Uiso   1.00
H209   H     0.49409   0.35531   0.72988   0.00000  Uiso   1.00
H210   H     0.74861   0.36022   0.80968   0.00000  Uiso   1.00
H211   H     0.57114   0.19308   0.90270   0.00000  Uiso   1.00
H212   H     0.36969   0.39170   0.61258   0.00000  Uiso   1.00
H213   H     0.90637   0.40206   0.78085   0.00000  Uiso   1.00
H214   H     0.53213   0.04960   0.97702   0.00000  Uiso   1.00
H215   H     0.58490   0.07786   0.56650   0.00000  Uiso   1.00
H216   H     0.47386   0.12429   0.47568   0.00000  Uiso   1.00
H217   H     0.72838   0.12921   0.55548   0.00000  Uiso   1.00
H218   H     0.55091   0.96207   0.64851   0.00000  Uiso   1.00
H219   H     0.35327   0.20421   0.40626   0.00000  Uiso   1.00
H220   H     0.88996   0.21456   0.57453   0.00000  Uiso   1.00
H221   H     0.51572   0.86210   0.77069   0.00000  Uiso   1.00
O222   O     0.28880   0.33247   0.45402   0.00000  Uiso   1.00
O223   O     0.99291   0.34604   0.67479   0.00000  Uiso   1.00
O224   O     0.50192   0.88363   0.93215   0.00000  Uiso   1.00
N225   N     0.38105   0.34119   0.57649   0.00000  Uiso   1.00
N226   N     0.88281   0.35088   0.73381   0.00000  Uiso   1.00
N227   N     0.53296   0.02137   0.91721   0.00000  Uiso   1.00
N228   N     0.37222   0.24030   0.46547   0.00000  Uiso   1.00
N229   N     0.87398   0.24999   0.62279   0.00000  Uiso   1.00
N230   N     0.52412   0.92047   0.80619   0.00000  Uiso   1.00
C231   C     0.74442   0.59502   0.24283   0.00000  Uiso   1.00
C232   C     0.67348   0.52963   0.24537   0.00000  Uiso   1.00
C233   C     0.67040   0.47819   0.30283   0.00000  Uiso   1.00
C234   C     0.60007   0.42249   0.29460   0.00000  Uiso   1.00
C235   C     0.49977   0.32161   0.30821   0.00000  Uiso   1.00
C236   C     0.71798   0.67768   0.24980   0.00000  Uiso   1.00
C237   C     0.75233   0.75072   0.31098   0.00000  Uiso   1.00
C238   C     0.71946   0.81964   0.30648   0.00000  Uiso   1.00
C239   C     0.68829   0.94862   0.32693   0.00000  Uiso   1.00
C240   C     0.75996   0.57265   0.15330   0.00000  Uiso   1.00
C241   C     0.82960   0.55740   0.13334   0.00000  Uiso   1.00
C242   C     0.83208   0.53792   0.04759   0.00000  Uiso   1.00
C243   C     0.86608   0.50382   0.91822   0.00000  Uiso   1.00
C244   C     0.62500   0.58757   0.12604   0.00000  Uiso   1.00
C245   C     0.60862   0.52559   0.18193   0.00000  Uiso   1.00
C246   C     0.53827   0.46995   0.17361   0.00000  Uiso   1.00
C247   C     0.53509   0.41843   0.23105   0.00000  Uiso   1.00
C248   C     0.65312   0.67364   0.18637   0.00000  Uiso   1.00
C249   C     0.62020   0.74247   0.18177   0.00000  Uiso   1.00
C250   C     0.65448   0.81559   0.24293   0.00000  Uiso   1.00
C251   C     0.69509   0.56860   0.08986   0.00000  Uiso   1.00
C252   C     0.69747   0.54915   0.00413   0.00000  Uiso   1.00
C253   C     0.76710   0.53387   0.98404   0.00000  Uiso   1.00
H254   H     0.79492   0.59818   0.29222   0.00000  Uiso   1.00
H255   H     0.72061   0.48135   0.35191   0.00000  Uiso   1.00
H256   H     0.80253   0.75383   0.36006   0.00000  Uiso   1.00
H257   H     0.87978   0.56054   0.18245   0.00000  Uiso   1.00
H258   H     0.60960   0.35006   0.39014   0.00000  Uiso   1.00
H259   H     0.78235   0.92461   0.40730   0.00000  Uiso   1.00
H260   H     0.94526   0.51702   0.03277   0.00000  Uiso   1.00
H261   H     0.57450   0.58442   0.07665   0.00000  Uiso   1.00
H262   H     0.48808   0.46683   0.12451   0.00000  Uiso   1.00
H263   H     0.57001   0.73932   0.13266   0.00000  Uiso   1.00
H264   H     0.64726   0.54603   0.95505   0.00000  Uiso   1.00
H265   H     0.42088   0.33828   0.20557   0.00000  Uiso   1.00
H266   H     0.59363   0.91284   0.22273   0.00000  Uiso   1.00
H267   H     0.75654   0.50524   0.84820   0.00000  Uiso   1.00
O268   O     0.46237   0.26708   0.33325   0.00000  Uiso   1.00
O269   O     0.68902   0.02088   0.35575   0.00000  Uiso   1.00
O270   O     0.90275   0.48612   0.86438   0.00000  Uiso   1.00
N271   N     0.57705   0.36341   0.34012   0.00000  Uiso   1.00
N272   N     0.73855   0.90058   0.35617   0.00000  Uiso   1.00
N273   N     0.89087   0.51954   0.00602   0.00000  Uiso   1.00
N274   N     0.47550   0.35707   0.24081   0.00000  Uiso   1.00
N275   N     0.63700   0.89425   0.25686   0.00000  Uiso   1.00
N276   N     0.78932   0.51320   0.90671   0.00000  Uiso   1.00
