data_job_07047
_audit_creation_date              2018-12-19
_audit_creation_method            'Materials Studio'
_symmetry_space_group_name_H-M    'P1'
_symmetry_Int_Tables_number       1
_symmetry_cell_setting            triclinic
loop_
_symmetry_equiv_pos_as_xyz
  x,y,z
_cell_length_a                    21.3238
_cell_length_b                    22.0279
_cell_length_c                    20.5730
_cell_angle_alpha                 78.5810
_cell_angle_beta                  84.9854
_cell_angle_gamma                 78.1668
loop_
_atom_site_label
_atom_site_type_symbol
_atom_site_fract_x
_atom_site_fract_y
_atom_site_fract_z
_atom_site_U_iso_or_equiv
_atom_site_adp_type
_atom_site_occupancy
C1     C     0.38519   0.68701   0.84693   0.00000  Uiso   1.00
C2     C     0.38665   0.73494   0.78248   0.00000  Uiso   1.00
C3     C     0.35836   0.73416   0.72449   0.00000  Uiso   1.00
C4     C     0.36514   0.78221   0.67095   0.00000  Uiso   1.00
C5     C     0.36228   0.84945   0.57021   0.00000  Uiso   1.00
C6     C     0.45506   0.66060   0.86322   0.00000  Uiso   1.00
C7     C     0.48428   0.59733   0.87313   0.00000  Uiso   1.00
C8     C     0.54865   0.58280   0.88756   0.00000  Uiso   1.00
C9     C     0.65199   0.53463   0.91222   0.00000  Uiso   1.00
C10    C     0.35659   0.72490   0.90058   0.00000  Uiso   1.00
C11    C     0.30301   0.71567   0.94190   0.00000  Uiso   1.00
C12    C     0.28447   0.75527   0.98779   0.00000  Uiso   1.00
C13    C     0.23491   0.80692   0.07045   0.00000  Uiso   1.00
C14    C     0.44754   0.77372   0.85496   0.00000  Uiso   1.00
C15    C     0.42052   0.78203   0.78685   0.00000  Uiso   1.00
C16    C     0.42734   0.83009   0.73338   0.00000  Uiso   1.00
C17    C     0.39906   0.82939   0.67532   0.00000  Uiso   1.00
C18    C     0.48893   0.70770   0.86759   0.00000  Uiso   1.00
C19    C     0.55326   0.69326   0.88202   0.00000  Uiso   1.00
C20    C     0.58257   0.62998   0.89193   0.00000  Uiso   1.00
C21    C     0.39045   0.77200   0.90494   0.00000  Uiso   1.00
C22    C     0.37199   0.81161   0.95079   0.00000  Uiso   1.00
C23    C     0.31840   0.80245   0.99217   0.00000  Uiso   1.00
H24    H     0.35883   0.65034   0.84353   0.00000  Uiso   1.00
H25    H     0.33216   0.69770   0.72113   0.00000  Uiso   1.00
H26    H     0.45806   0.56089   0.86975   0.00000  Uiso   1.00
H27    H     0.27682   0.67922   0.93851   0.00000  Uiso   1.00
H28    H     0.31755   0.77097   0.58734   0.00000  Uiso   1.00
H29    H     0.58301   0.48249   0.90074   0.00000  Uiso   1.00
H30    H     0.20083   0.73201   0.04573   0.00000  Uiso   1.00
H31    H     0.47390   0.81038   0.85836   0.00000  Uiso   1.00
H32    H     0.45355   0.86653   0.73677   0.00000  Uiso   1.00
H33    H     0.57945   0.72972   0.88539   0.00000  Uiso   1.00
H34    H     0.39821   0.84805   0.95415   0.00000  Uiso   1.00
H35    H     0.41607   0.90800   0.60004   0.00000  Uiso   1.00
H36    H     0.68154   0.61951   0.91344   0.00000  Uiso   1.00
H37    H     0.29935   0.86904   0.05843   0.00000  Uiso   1.00
O38    O     0.35136   0.87352   0.51343   0.00000  Uiso   1.00
O39    O     0.69964   0.49505   0.92461   0.00000  Uiso   1.00
O40    O     0.19822   0.82241   0.11483   0.00000  Uiso   1.00
N41    N     0.34352   0.79552   0.60702   0.00000  Uiso   1.00
N42    N     0.59172   0.52581   0.90002   0.00000  Uiso   1.00
N43    N     0.23441   0.75908   0.03559   0.00000  Uiso   1.00
N44    N     0.39653   0.86925   0.61385   0.00000  Uiso   1.00
N45    N     0.64473   0.59954   0.90685   0.00000  Uiso   1.00
N46    N     0.28743   0.83281   0.04242   0.00000  Uiso   1.00
C47    C     0.94231   0.31461   0.74795   0.00000  Uiso   1.00
C48    C     0.87125   0.32084   0.76896   0.00000  Uiso   1.00
C49    C     0.83419   0.27579   0.76945   0.00000  Uiso   1.00
C50    C     0.77011   0.29047   0.79034   0.00000  Uiso   1.00
C51    C     0.66372   0.29138   0.81994   0.00000  Uiso   1.00
C52    C     0.94757   0.37122   0.69292   0.00000  Uiso   1.00
C53    C     0.97469   0.36852   0.62947   0.00000  Uiso   1.00
C54    C     0.97486   0.42560   0.58636   0.00000  Uiso   1.00
C55    C     0.98700   0.50472   0.49791   0.00000  Uiso   1.00
C56    C     0.97529   0.32455   0.80680   0.00000  Uiso   1.00
C57    C     0.02572   0.28262   0.83911   0.00000  Uiso   1.00
C58    C     0.04924   0.30042   0.89188   0.00000  Uiso   1.00
C59    C     0.10442   0.30708   0.98026   0.00000  Uiso   1.00
C60    C     0.89441   0.42080   0.78419   0.00000  Uiso   1.00
C61    C     0.84524   0.37852   0.78864   0.00000  Uiso   1.00
C62    C     0.78120   0.39327   0.80954   0.00000  Uiso   1.00
C63    C     0.74405   0.34825   0.81006   0.00000  Uiso   1.00
C64    C     0.92156   0.42889   0.71259   0.00000  Uiso   1.00
C65    C     0.92169   0.48600   0.66956   0.00000  Uiso   1.00
C66    C     0.94880   0.48338   0.60607   0.00000  Uiso   1.00
C67    C     0.94927   0.38223   0.82649   0.00000  Uiso   1.00
C68    C     0.97272   0.40010   0.87920   0.00000  Uiso   1.00
C69    C     0.02318   0.35820   0.91159   0.00000  Uiso   1.00
H70    H     0.96257   0.26971   0.73263   0.00000  Uiso   1.00
H71    H     0.85434   0.23116   0.75421   0.00000  Uiso   1.00
H72    H     0.99482   0.32388   0.61426   0.00000  Uiso   1.00
H73    H     0.04584   0.23799   0.82387   0.00000  Uiso   1.00
H74    H     0.72288   0.21387   0.78680   0.00000  Uiso   1.00
H75    H     0.01910   0.40936   0.49171   0.00000  Uiso   1.00
H76    H     0.12670   0.22825   0.93371   0.00000  Uiso   1.00
H77    H     0.87416   0.46571   0.79951   0.00000  Uiso   1.00
H78    H     0.76107   0.43791   0.82477   0.00000  Uiso   1.00
H79    H     0.90156   0.53062   0.68481   0.00000  Uiso   1.00
H80    H     0.95258   0.44474   0.89442   0.00000  Uiso   1.00
H81    H     0.64717   0.38167   0.84406   0.00000  Uiso   1.00
H82    H     0.94341   0.57716   0.54897   0.00000  Uiso   1.00
H83    H     0.05099   0.39606   0.99097   0.00000  Uiso   1.00
O84    O     0.61223   0.27596   0.83081   0.00000  Uiso   1.00
O85    O     0.00088   0.53243   0.44368   0.00000  Uiso   1.00
O86    O     0.14203   0.29482   0.02357   0.00000  Uiso   1.00
N87    N     0.72058   0.25717   0.79682   0.00000  Uiso   1.00
N88    N     0.99753   0.43994   0.52093   0.00000  Uiso   1.00
N89    N     0.09813   0.27063   0.93415   0.00000  Uiso   1.00
N90    N     0.67985   0.34746   0.82763   0.00000  Uiso   1.00
N91    N     0.95679   0.53023   0.55174   0.00000  Uiso   1.00
N92    N     0.05739   0.36092   0.96496   0.00000  Uiso   1.00
C93    C     0.67907   0.80828   0.31478   0.00000  Uiso   1.00
C94    C     0.73010   0.75071   0.33944   0.00000  Uiso   1.00
C95    C     0.73080   0.68933   0.33192   0.00000  Uiso   1.00
C96    C     0.78166   0.64329   0.35798   0.00000  Uiso   1.00
C97    C     0.85352   0.55162   0.39136   0.00000  Uiso   1.00
C98    C     0.65346   0.83735   0.37555   0.00000  Uiso   1.00
C99    C     0.58973   0.84884   0.39839   0.00000  Uiso   1.00
C100   C     0.57608   0.87574   0.45485   0.00000  Uiso   1.00
C101   C     0.52895   0.91863   0.54427   0.00000  Uiso   1.00
C102   C     0.71470   0.85554   0.27025   0.00000  Uiso   1.00
C103   C     0.70244   0.88234   0.20455   0.00000  Uiso   1.00
C104   C     0.74034   0.92457   0.17236   0.00000  Uiso   1.00
C105   C     0.78828   0.99570   0.09828   0.00000  Uiso   1.00
C106   C     0.76815   0.83565   0.37444   0.00000  Uiso   1.00
C107   C     0.77848   0.76557   0.37184   0.00000  Uiso   1.00
C108   C     0.82936   0.71961   0.39791   0.00000  Uiso   1.00
C109   C     0.83014   0.65818   0.39043   0.00000  Uiso   1.00
C110   C     0.70184   0.85222   0.40795   0.00000  Uiso   1.00
C111   C     0.68829   0.87911   0.46439   0.00000  Uiso   1.00
C112   C     0.62455   0.89063   0.48731   0.00000  Uiso   1.00
C113   C     0.76308   0.87040   0.30265   0.00000  Uiso   1.00
C114   C     0.80100   0.91261   0.27055   0.00000  Uiso   1.00
C115   C     0.78881   0.93946   0.20482   0.00000  Uiso   1.00
H116   H     0.64140   0.79671   0.28956   0.00000  Uiso   1.00
H117   H     0.69334   0.67785   0.30685   0.00000  Uiso   1.00
H118   H     0.55230   0.83733   0.37330   0.00000  Uiso   1.00
H119   H     0.66500   0.87082   0.17950   0.00000  Uiso   1.00
H120   H     0.77226   0.55262   0.34032   0.00000  Uiso   1.00
H121   H     0.47485   0.88892   0.48043   0.00000  Uiso   1.00
H122   H     0.71249   0.95954   0.07175   0.00000  Uiso   1.00
H123   H     0.80582   0.84722   0.39966   0.00000  Uiso   1.00
H124   H     0.86679   0.73113   0.42299   0.00000  Uiso   1.00
H125   H     0.72574   0.89061   0.48945   0.00000  Uiso   1.00
H126   H     0.83844   0.92410   0.29564   0.00000  Uiso   1.00
H127   H     0.91303   0.59586   0.43458   0.00000  Uiso   1.00
H128   H     0.61562   0.93216   0.57470   0.00000  Uiso   1.00
H129   H     0.85327   0.00278   0.16602   0.00000  Uiso   1.00
O130   O     0.87978   0.49695   0.40082   0.00000  Uiso   1.00
O131   O     0.48959   0.93818   0.58465   0.00000  Uiso   1.00
O132   O     0.80137   0.03083   0.04847   0.00000  Uiso   1.00
N133   N     0.79703   0.57873   0.35929   0.00000  Uiso   1.00
N134   N     0.51897   0.89314   0.49030   0.00000  Uiso   1.00
N135   N     0.74114   0.95918   0.10822   0.00000  Uiso   1.00
N136   N     0.87278   0.60200   0.41001   0.00000  Uiso   1.00
N137   N     0.59472   0.91641   0.54102   0.00000  Uiso   1.00
N138   N     0.81689   0.98245   0.15895   0.00000  Uiso   1.00
C139   C     0.77554   0.47905   0.06827   0.00000  Uiso   1.00
C140   C     0.81308   0.43042   0.12152   0.00000  Uiso   1.00
C141   C     0.82869   0.36584   0.12300   0.00000  Uiso   1.00
C142   C     0.86329   0.32935   0.17595   0.00000  Uiso   1.00
C143   C     0.91882   0.24972   0.25108   0.00000  Uiso   1.00
C144   C     0.81826   0.52695   0.04123   0.00000  Uiso   1.00
C145   C     0.83822   0.54353   0.97520   0.00000  Uiso   1.00
C146   C     0.87717   0.58830   0.96056   0.00000  Uiso   1.00
C147   C     0.94069   0.65856   0.91102   0.00000  Uiso   1.00
C148   C     0.71838   0.51406   0.10467   0.00000  Uiso   1.00
C149   C     0.65436   0.51982   0.09197   0.00000  Uiso   1.00
C150   C     0.60922   0.55376   0.13074   0.00000  Uiso   1.00
C151   C     0.51768   0.60401   0.17970   0.00000  Uiso   1.00
C152   C     0.80922   0.52908   0.15967   0.00000  Uiso   1.00
C153   C     0.83137   0.45760   0.17117   0.00000  Uiso   1.00
C154   C     0.86595   0.42120   0.22413   0.00000  Uiso   1.00
C155   C     0.88162   0.35658   0.22569   0.00000  Uiso   1.00
C156   C     0.83655   0.55413   0.09087   0.00000  Uiso   1.00
C157   C     0.87547   0.59889   0.07633   0.00000  Uiso   1.00
C158   C     0.89549   0.61553   0.01029   0.00000  Uiso   1.00
C159   C     0.73667   0.54124   0.15432   0.00000  Uiso   1.00
C160   C     0.69162   0.57518   0.19310   0.00000  Uiso   1.00
C161   C     0.62755   0.58098   0.18047   0.00000  Uiso   1.00
H162   H     0.76131   0.45789   0.02961   0.00000  Uiso   1.00
H163   H     0.81454   0.34483   0.08457   0.00000  Uiso   1.00
H164   H     0.82405   0.52250   0.93679   0.00000  Uiso   1.00
H165   H     0.64023   0.49879   0.05355   0.00000  Uiso   1.00
H166   H     0.88164   0.23147   0.16739   0.00000  Uiso   1.00
H167   H     0.90168   0.60610   0.85578   0.00000  Uiso   1.00
H168   H     0.51405   0.55611   0.10199   0.00000  Uiso   1.00
H169   H     0.82346   0.55024   0.19832   0.00000  Uiso   1.00
H170   H     0.88010   0.44224   0.26254   0.00000  Uiso   1.00
H171   H     0.88962   0.61991   0.11476   0.00000  Uiso   1.00
H172   H     0.70580   0.59620   0.23152   0.00000  Uiso   1.00
H173   H     0.93486   0.31053   0.31183   0.00000  Uiso   1.00
H174   H     0.95490   0.68517   0.00022   0.00000  Uiso   1.00
H175   H     0.56727   0.63517   0.24643   0.00000  Uiso   1.00
O176   O     0.94440   0.19829   0.27880   0.00000  Uiso   1.00
O177   O     0.97069   0.68980   0.86998   0.00000  Uiso   1.00
O178   O     0.46213   0.62421   0.19300   0.00000  Uiso   1.00
N179   N     0.88638   0.26489   0.19257   0.00000  Uiso   1.00
N180   N     0.90512   0.61515   0.90124   0.00000  Uiso   1.00
N181   N     0.54273   0.56842   0.13142   0.00000  Uiso   1.00
N182   N     0.91501   0.30744   0.27030   0.00000  Uiso   1.00
N183   N     0.93376   0.65769   0.97897   0.00000  Uiso   1.00
N184   N     0.57136   0.61096   0.20914   0.00000  Uiso   1.00
C185   C     0.27906   0.40224   0.75611   0.00000  Uiso   1.00
C186   C     0.21463   0.44155   0.77417   0.00000  Uiso   1.00
C187   C     0.15749   0.44709   0.74401   0.00000  Uiso   1.00
C188   C     0.10381   0.48534   0.76773   0.00000  Uiso   1.00
C189   C     0.00325   0.54156   0.78789   0.00000  Uiso   1.00
C190   C     0.30105   0.35727   0.81990   0.00000  Uiso   1.00
C191   C     0.31657   0.29195   0.82818   0.00000  Uiso   1.00
C192   C     0.33564   0.25925   0.89038   0.00000  Uiso   1.00
C193   C     0.36929   0.18463   0.98151   0.00000  Uiso   1.00
C194   C     0.32579   0.44767   0.73988   0.00000  Uiso   1.00
C195   C     0.36214   0.45836   0.68089   0.00000  Uiso   1.00
C196   C     0.40206   0.50176   0.67573   0.00000  Uiso   1.00
C197   C     0.47413   0.56751   0.64262   0.00000  Uiso   1.00
C198   C     0.28534   0.46030   0.85185   0.00000  Uiso   1.00
C199   C     0.21805   0.47309   0.82618   0.00000  Uiso   1.00
C200   C     0.16444   0.51133   0.84994   0.00000  Uiso   1.00
C201   C     0.10723   0.51693   0.81982   0.00000  Uiso   1.00
C202   C     0.30446   0.38881   0.87190   0.00000  Uiso   1.00
C203   C     0.32352   0.35620   0.93410   0.00000  Uiso   1.00
C204   C     0.33906   0.29085   0.94248   0.00000  Uiso   1.00
C205   C     0.32921   0.47921   0.79188   0.00000  Uiso   1.00
C206   C     0.36909   0.52260   0.78681   0.00000  Uiso   1.00
C207   C     0.40548   0.53336   0.72783   0.00000  Uiso   1.00
H208   H     0.27640   0.37768   0.71563   0.00000  Uiso   1.00
H209   H     0.15486   0.42267   0.70378   0.00000  Uiso   1.00
H210   H     0.31392   0.26756   0.78792   0.00000  Uiso   1.00
H211   H     0.35948   0.43394   0.64066   0.00000  Uiso   1.00
H212   H     0.02162   0.48645   0.71359   0.00000  Uiso   1.00
H213   H     0.35703   0.15939   0.89101   0.00000  Uiso   1.00
H214   H     0.45310   0.51024   0.58047   0.00000  Uiso   1.00
H215   H     0.28800   0.48485   0.89234   0.00000  Uiso   1.00
H216   H     0.16710   0.53573   0.89018   0.00000  Uiso   1.00
H217   H     0.32616   0.38062   0.97433   0.00000  Uiso   1.00
H218   H     0.37172   0.54700   0.82706   0.00000  Uiso   1.00
H219   H     0.03155   0.57821   0.86488   0.00000  Uiso   1.00
H220   H     0.36697   0.25115   0.04230   0.00000  Uiso   1.00
H221   H     0.46303   0.60200   0.73177   0.00000  Uiso   1.00
O222   O     0.94684   0.56385   0.78464   0.00000  Uiso   1.00
O223   O     0.38689   0.13476   0.01741   0.00000  Uiso   1.00
O224   O     0.51293   0.59506   0.60999   0.00000  Uiso   1.00
N225   N     0.04055   0.50107   0.74948   0.00000  Uiso   1.00
N226   N     0.35413   0.19529   0.91536   0.00000  Uiso   1.00
N227   N     0.44396   0.52329   0.62504   0.00000  Uiso   1.00
N228   N     0.04589   0.55045   0.83089   0.00000  Uiso   1.00
N229   N     0.35947   0.24467   0.99677   0.00000  Uiso   1.00
N230   N     0.44930   0.57267   0.70645   0.00000  Uiso   1.00
C231   C     0.19155   0.97118   0.18177   0.00000  Uiso   1.00
C232   C     0.24008   0.98160   0.12366   0.00000  Uiso   1.00
C233   C     0.23083   0.98074   0.05793   0.00000  Uiso   1.00
C234   C     0.28106   0.99133   0.01217   0.00000  Uiso   1.00
C235   C     0.34767   0.00587   0.91899   0.00000  Uiso   1.00
C236   C     0.18169   0.02940   0.21387   0.00000  Uiso   1.00
C237   C     0.12334   0.06872   0.22400   0.00000  Uiso   1.00
C238   C     0.12442   0.11954   0.25419   0.00000  Uiso   1.00
C239   C     0.10037   0.20825   0.30111   0.00000  Uiso   1.00
C240   C     0.22530   0.91648   0.23217   0.00000  Uiso   1.00
C241   C     0.20361   0.86086   0.25772   0.00000  Uiso   1.00
C242   C     0.24140   0.81662   0.30333   0.00000  Uiso   1.00
C243   C     0.28506   0.73000   0.37867   0.00000  Uiso   1.00
C244   C     0.29723   0.99151   0.21737   0.00000  Uiso   1.00
C245   C     0.29748   0.99264   0.14299   0.00000  Uiso   1.00
C246   C     0.34775   0.00323   0.09732   0.00000  Uiso   1.00
C247   C     0.33857   0.00239   0.03154   0.00000  Uiso   1.00
C248   C     0.23909   0.04044   0.23320   0.00000  Uiso   1.00
C249   C     0.24026   0.09121   0.26339   0.00000  Uiso   1.00
C250   C     0.18193   0.13060   0.27356   0.00000  Uiso   1.00
C251   C     0.28270   0.92752   0.25151   0.00000  Uiso   1.00
C252   C     0.32053   0.88335   0.29710   0.00000  Uiso   1.00
C253   C     0.29891   0.82768   0.32270   0.00000  Uiso   1.00
H254   H     0.14686   0.96258   0.16672   0.00000  Uiso   1.00
H255   H     0.18639   0.97220   0.04299   0.00000  Uiso   1.00
H256   H     0.07892   0.06015   0.20904   0.00000  Uiso   1.00
H257   H     0.15919   0.85233   0.24274   0.00000  Uiso   1.00
H258   H     0.25553   0.98775   0.91434   0.00000  Uiso   1.00
H259   H     0.02892   0.17320   0.26448   0.00000  Uiso   1.00
H260   H     0.19816   0.73496   0.33556   0.00000  Uiso   1.00
H261   H     0.34192   0.00011   0.23242   0.00000  Uiso   1.00
H262   H     0.39216   0.01178   0.11230   0.00000  Uiso   1.00
H263   H     0.28469   0.09974   0.27835   0.00000  Uiso   1.00
H264   H     0.36495   0.89192   0.31205   0.00000  Uiso   1.00
H265   H     0.42254   0.01988   0.97059   0.00000  Uiso   1.00
H266   H     0.19593   0.20533   0.32074   0.00000  Uiso   1.00
H267   H     0.36517   0.76709   0.39181   0.00000  Uiso   1.00
O268   O     0.36856   0.01084   0.86225   0.00000  Uiso   1.00
O269   O     0.07125   0.25413   0.32164   0.00000  Uiso   1.00
O270   O     0.29329   0.67918   0.41488   0.00000  Uiso   1.00
N271   N     0.28795   0.99370   0.94406   0.00000  Uiso   1.00
N272   N     0.07608   0.16709   0.27142   0.00000  Uiso   1.00
N273   N     0.23430   0.75738   0.33788   0.00000  Uiso   1.00
N274   N     0.37781   0.01099   0.97433   0.00000  Uiso   1.00
N275   N     0.16594   0.18438   0.30169   0.00000  Uiso   1.00
N276   N     0.32417   0.77467   0.36815   0.00000  Uiso   1.00
C277   C     0.70928   0.27186   0.08147   0.00000  Uiso   1.00
C278   C     0.69707   0.22072   0.14026   0.00000  Uiso   1.00
C279   C     0.71005   0.21855   0.20571   0.00000  Uiso   1.00
C280   C     0.69540   0.16785   0.25221   0.00000  Uiso   1.00
C281   C     0.68046   0.09559   0.34630   0.00000  Uiso   1.00
C282   C     0.64493   0.29799   0.04969   0.00000  Uiso   1.00
C283   C     0.61408   0.36079   0.03897   0.00000  Uiso   1.00
C284   C     0.55555   0.37514   0.00922   0.00000  Uiso   1.00
C285   C     0.45970   0.42285   0.96265   0.00000  Uiso   1.00
C286   C     0.75218   0.23781   0.03129   0.00000  Uiso   1.00
C287   C     0.81151   0.25001   0.00508   0.00000  Uiso   1.00
C288   C     0.84326   0.21370   0.95983   0.00000  Uiso   1.00
C289   C     0.91393   0.16796   0.88469   0.00000  Uiso   1.00
C290   C     0.66018   0.18569   0.04767   0.00000  Uiso   1.00
C291   C     0.67039   0.17392   0.12190   0.00000  Uiso   1.00
C292   C     0.65572   0.12321   0.16832   0.00000  Uiso   1.00
C293   C     0.66868   0.12096   0.23382   0.00000  Uiso   1.00
C294   C     0.61826   0.25119   0.03133   0.00000  Uiso   1.00
C295   C     0.55976   0.26545   0.00158   0.00000  Uiso   1.00
C296   C     0.52883   0.32825   0.99083   0.00000  Uiso   1.00
C297   C     0.72551   0.19100   0.01293   0.00000  Uiso   1.00
C298   C     0.75718   0.15467   0.96770   0.00000  Uiso   1.00
C299   C     0.81654   0.16681   0.94143   0.00000  Uiso   1.00
H300   H     0.73004   0.30830   0.09576   0.00000  Uiso   1.00
H301   H     0.73068   0.25478   0.21989   0.00000  Uiso   1.00
H302   H     0.63474   0.39700   0.05318   0.00000  Uiso   1.00
H303   H     0.83213   0.28623   0.01930   0.00000  Uiso   1.00
H304   H     0.71961   0.17482   0.34943   0.00000  Uiso   1.00
H305   H     0.51732   0.47470   0.99789   0.00000  Uiso   1.00
H306   H     0.93356   0.24113   0.92644   0.00000  Uiso   1.00
H307   H     0.63941   0.14925   0.03338   0.00000  Uiso   1.00
H308   H     0.63508   0.08700   0.15410   0.00000  Uiso   1.00
H309   H     0.53914   0.22922   0.98738   0.00000  Uiso   1.00
H310   H     0.73653   0.11846   0.95350   0.00000  Uiso   1.00
H311   H     0.64202   0.03865   0.29603   0.00000  Uiso   1.00
H312   H     0.43972   0.33852   0.94448   0.00000  Uiso   1.00
H313   H     0.85596   0.10495   0.87304   0.00000  Uiso   1.00
O314   O     0.67958   0.06867   0.40327   0.00000  Uiso   1.00
O315   O     0.41419   0.46209   0.94204   0.00000  Uiso   1.00
O316   O     0.96028   0.15566   0.84832   0.00000  Uiso   1.00
N317   N     0.70196   0.15131   0.32029   0.00000  Uiso   1.00
N318   N     0.51282   0.43167   0.99163   0.00000  Uiso   1.00
N319   N     0.90196   0.21332   0.92483   0.00000  Uiso   1.00
N320   N     0.66020   0.07803   0.29156   0.00000  Uiso   1.00
N321   N     0.47107   0.35840   0.96289   0.00000  Uiso   1.00
N322   N     0.86021   0.14004   0.89609   0.00000  Uiso   1.00
C323   C     0.14442   0.64366   0.15917   0.00000  Uiso   1.00
C324   C     0.20748   0.61640   0.12529   0.00000  Uiso   1.00
C325   C     0.26832   0.61905   0.14220   0.00000  Uiso   1.00
C326   C     0.31995   0.59130   0.10518   0.00000  Uiso   1.00
C327   C     0.41924   0.55342   0.06051   0.00000  Uiso   1.00
C328   C     0.10917   0.58891   0.18200   0.00000  Uiso   1.00
C329   C     0.08736   0.56845   0.24659   0.00000  Uiso   1.00
C330   C     0.05622   0.51756   0.25729   0.00000  Uiso   1.00
C331   C     0.00285   0.43702   0.30066   0.00000  Uiso   1.00
C332   C     0.10528   0.68866   0.10455   0.00000  Uiso   1.00
C333   C     0.08017   0.75206   0.10403   0.00000  Uiso   1.00
C334   C     0.04574   0.78515   0.04954   0.00000  Uiso   1.00
C335   C     0.98631   0.85948   0.97266   0.00000  Uiso   1.00
C336   C     0.12790   0.58967   0.06333   0.00000  Uiso   1.00
C337   C     0.19851   0.58707   0.07323   0.00000  Uiso   1.00
C338   C     0.25006   0.55932   0.03617   0.00000  Uiso   1.00
C339   C     0.31097   0.56193   0.05303   0.00000  Uiso   1.00
C340   C     0.10020   0.55958   0.12994   0.00000  Uiso   1.00
C341   C     0.06909   0.50872   0.14056   0.00000  Uiso   1.00
C342   C     0.04724   0.48818   0.20515   0.00000  Uiso   1.00
C343   C     0.09631   0.65933   0.05250   0.00000  Uiso   1.00
C344   C     0.06190   0.69233   0.99800   0.00000  Uiso   1.00
C345   C     0.03675   0.75577   0.99740   0.00000  Uiso   1.00
H346   H     0.15140   0.66649   0.19970   0.00000  Uiso   1.00
H347   H     0.27525   0.64175   0.18250   0.00000  Uiso   1.00
H348   H     0.09430   0.59116   0.28686   0.00000  Uiso   1.00
H349   H     0.08712   0.77474   0.14433   0.00000  Uiso   1.00
H350   H     0.40860   0.60137   0.14048   0.00000  Uiso   1.00
H351   H     0.02705   0.49471   0.36054   0.00000  Uiso   1.00
H352   H     0.01190   0.88183   0.05998   0.00000  Uiso   1.00
H353   H     0.12092   0.56683   0.02280   0.00000  Uiso   1.00
H354   H     0.24310   0.53662   0.99589   0.00000  Uiso   1.00
H355   H     0.06216   0.48604   0.10026   0.00000  Uiso   1.00
H356   H     0.05497   0.66962   0.95773   0.00000  Uiso   1.00
H357   H     0.38251   0.51604   0.98903   0.00000  Uiso   1.00
H358   H     0.00096   0.40939   0.20909   0.00000  Uiso   1.00
H359   H     0.98581   0.79651   0.90853   0.00000  Uiso   1.00
O360   O     0.47648   0.54061   0.05026   0.00000  Uiso   1.00
O361   O     0.97589   0.40070   0.33896   0.00000  Uiso   1.00
O362   O     0.95602   0.90858   0.94463   0.00000  Uiso   1.00
N363   N     0.38569   0.58544   0.10852   0.00000  Uiso   1.00
N364   N     0.02898   0.48572   0.31426   0.00000  Uiso   1.00
N365   N     0.01480   0.84764   0.03328   0.00000  Uiso   1.00
N366   N     0.37165   0.53953   0.02702   0.00000  Uiso   1.00
N367   N     0.01494   0.43981   0.23277   0.00000  Uiso   1.00
N368   N     0.00076   0.80173   0.95178   0.00000  Uiso   1.00
C369   C     0.34980   0.11702   0.55138   0.00000  Uiso   1.00
C370   C     0.29115   0.16244   0.52126   0.00000  Uiso   1.00
C371   C     0.27607   0.22681   0.52113   0.00000  Uiso   1.00
C372   C     0.22029   0.26013   0.49103   0.00000  Uiso   1.00
C373   C     0.13521   0.33522   0.44862   0.00000  Uiso   1.00
C374   C     0.38466   0.08517   0.49545   0.00000  Uiso   1.00
C375   C     0.44820   0.08458   0.47363   0.00000  Uiso   1.00
C376   C     0.47114   0.05285   0.42181   0.00000  Uiso   1.00
C377   C     0.53126   0.00795   0.33937   0.00000  Uiso   1.00
C378   C     0.32407   0.06557   0.60096   0.00000  Uiso   1.00
C379   C     0.33668   0.04848   0.66786   0.00000  Uiso   1.00
C380   C     0.30862   0.00024   0.70487   0.00000  Uiso   1.00
C381   C     0.27466   0.92490   0.78625   0.00000  Uiso   1.00
C382   C     0.27756   0.06173   0.49816   0.00000  Uiso   1.00
C383   C     0.25192   0.13240   0.49235   0.00000  Uiso   1.00
C384   C     0.19615   0.16563   0.46225   0.00000  Uiso   1.00
C385   C     0.18098   0.23004   0.46208   0.00000  Uiso   1.00
C386   C     0.34543   0.05514   0.46654   0.00000  Uiso   1.00
C387   C     0.36828   0.02340   0.41475   0.00000  Uiso   1.00
C388   C     0.43184   0.02276   0.39285   0.00000  Uiso   1.00
C389   C     0.28484   0.03554   0.57206   0.00000  Uiso   1.00
C390   C     0.25676   0.98731   0.60897   0.00000  Uiso   1.00
C391   C     0.26931   0.97015   0.67591   0.00000  Uiso   1.00
H392   H     0.38034   0.14041   0.57389   0.00000  Uiso   1.00
H393   H     0.30645   0.25004   0.54350   0.00000  Uiso   1.00
H394   H     0.47855   0.10782   0.49602   0.00000  Uiso   1.00
H395   H     0.36704   0.07174   0.69021   0.00000  Uiso   1.00
H396   H     0.20722   0.35834   0.49705   0.00000  Uiso   1.00
H397   H     0.57013   0.05846   0.39693   0.00000  Uiso   1.00
H398   H     0.33499   0.98236   0.80643   0.00000  Uiso   1.00
H399   H     0.24702   0.03834   0.47565   0.00000  Uiso   1.00
H400   H     0.16579   0.14237   0.43988   0.00000  Uiso   1.00
H401   H     0.33791   0.00016   0.39239   0.00000  Uiso   1.00
H402   H     0.22640   0.96407   0.58659   0.00000  Uiso   1.00
H403   H     0.09307   0.27096   0.41294   0.00000  Uiso   1.00
H404   H     0.45598   0.97107   0.31283   0.00000  Uiso   1.00
H405   H     0.22084   0.89498   0.72232   0.00000  Uiso   1.00
O406   O     0.09913   0.38493   0.43321   0.00000  Uiso   1.00
O407   O     0.57526   0.99149   0.30188   0.00000  Uiso   1.00
O408   O     0.26676   0.89165   0.83913   0.00000  Uiso   1.00
N409   N     0.19150   0.32350   0.48217   0.00000  Uiso   1.00
N410   N     0.53079   0.04313   0.38857   0.00000  Uiso   1.00
N411   N     0.31097   0.97198   0.77141   0.00000  Uiso   1.00
N412   N     0.13007   0.27648   0.43692   0.00000  Uiso   1.00
N413   N     0.46937   0.99611   0.34331   0.00000  Uiso   1.00
N414   N     0.24955   0.92496   0.72615   0.00000  Uiso   1.00
C415   C     0.11320   0.71070   0.60932   0.00000  Uiso   1.00
C416   C     0.12228   0.76401   0.55166   0.00000  Uiso   1.00
C417   C     0.16164   0.80726   0.55033   0.00000  Uiso   1.00
C418   C     0.16332   0.85245   0.49296   0.00000  Uiso   1.00
C419   C     0.18293   0.93498   0.41166   0.00000  Uiso   1.00
C420   C     0.04135   0.72029   0.62709   0.00000  Uiso   1.00
C421   C     0.01267   0.72676   0.68918   0.00000  Uiso   1.00
C422   C     0.94623   0.73513   0.69530   0.00000  Uiso   1.00
C423   C     0.84020   0.74973   0.73112   0.00000  Uiso   1.00
C424   C     0.13006   0.65010   0.58100   0.00000  Uiso   1.00
C425   C     0.17595   0.59754   0.60435   0.00000  Uiso   1.00
C426   C     0.18418   0.54681   0.57167   0.00000  Uiso   1.00
C427   C     0.21588   0.45242   0.53594   0.00000  Uiso   1.00
C428   C     0.04621   0.71406   0.50978   0.00000  Uiso   1.00
C429   C     0.08589   0.76584   0.49759   0.00000  Uiso   1.00
C430   C     0.08752   0.81097   0.44020   0.00000  Uiso   1.00
C431   C     0.12688   0.85427   0.43879   0.00000  Uiso   1.00
C432   C     0.00497   0.72211   0.57302   0.00000  Uiso   1.00
C433   C     0.93856   0.73048   0.57905   0.00000  Uiso   1.00
C434   C     0.90978   0.73696   0.64114   0.00000  Uiso   1.00
C435   C     0.09367   0.65192   0.52693   0.00000  Uiso   1.00
C436   C     0.10183   0.60126   0.49422   0.00000  Uiso   1.00
C437   C     0.14773   0.54864   0.51751   0.00000  Uiso   1.00
H438   H     0.14152   0.70928   0.65141   0.00000  Uiso   1.00
H439   H     0.18978   0.80583   0.59219   0.00000  Uiso   1.00
H440   H     0.04084   0.72534   0.73101   0.00000  Uiso   1.00
H441   H     0.20409   0.59614   0.64619   0.00000  Uiso   1.00
H442   H     0.22722   0.91370   0.50269   0.00000  Uiso   1.00
H443   H     0.91317   0.74395   0.79542   0.00000  Uiso   1.00
H444   H     0.25742   0.47152   0.61656   0.00000  Uiso   1.00
H445   H     0.01788   0.71548   0.46768   0.00000  Uiso   1.00
H446   H     0.05936   0.81237   0.39837   0.00000  Uiso   1.00
H447   H     0.91042   0.73188   0.53720   0.00000  Uiso   1.00
H448   H     0.07367   0.60269   0.45238   0.00000  Uiso   1.00
H449   H     0.12136   0.91901   0.34538   0.00000  Uiso   1.00
H450   H     0.80731   0.74926   0.63812   0.00000  Uiso   1.00
H451   H     0.15156   0.47683   0.45925   0.00000  Uiso   1.00
O452   O     0.20379   0.98000   0.38176   0.00000  Uiso   1.00
O453   O     0.79177   0.75729   0.76582   0.00000  Uiso   1.00
O454   O     0.24342   0.39986   0.53115   0.00000  Uiso   1.00
N455   N     0.19663   0.90164   0.47517   0.00000  Uiso   1.00
N456   N     0.90300   0.74295   0.74886   0.00000  Uiso   1.00
N457   N     0.22484   0.48824   0.58165   0.00000  Uiso   1.00
N458   N     0.13967   0.90450   0.39053   0.00000  Uiso   1.00
N459   N     0.84604   0.74581   0.66421   0.00000  Uiso   1.00
N460   N     0.16788   0.49110   0.49700   0.00000  Uiso   1.00
C461   C     0.63634   0.02689   0.96501   0.00000  Uiso   1.00
C462   C     0.68238   0.97571   0.93520   0.00000  Uiso   1.00
C463   C     0.74879   0.96755   0.93127   0.00000  Uiso   1.00
C464   C     0.78236   0.91793   0.90220   0.00000  Uiso   1.00
C465   C     0.85867   0.84456   0.85957   0.00000  Uiso   1.00
C466   C     0.59109   0.06204   0.91054   0.00000  Uiso   1.00
C467   C     0.58075   0.12647   0.88588   0.00000  Uiso   1.00
C468   C     0.53746   0.14952   0.83606   0.00000  Uiso   1.00
C469   C     0.47201   0.21018   0.75518   0.00000  Uiso   1.00
C470   C     0.59547   0.99249   0.01870   0.00000  Uiso   1.00
C471   C     0.58879   0.99844   0.08498   0.00000  Uiso   1.00
C472   C     0.54917   0.96295   0.12622   0.00000  Uiso   1.00
C473   C     0.49052   0.91562   0.21327   0.00000  Uiso   1.00
C474   C     0.57784   0.95328   0.92038   0.00000  Uiso   1.00
C475   C     0.65060   0.93573   0.91096   0.00000  Uiso   1.00
C476   C     0.68407   0.88611   0.88190   0.00000  Uiso   1.00
C477   C     0.75052   0.87787   0.87792   0.00000  Uiso   1.00
C478   C     0.55932   0.02206   0.88630   0.00000  Uiso   1.00
C479   C     0.51602   0.04502   0.83651   0.00000  Uiso   1.00
C480   C     0.50562   0.10947   0.81177   0.00000  Uiso   1.00
C481   C     0.56369   0.95250   0.99446   0.00000  Uiso   1.00
C482   C     0.52407   0.91700   0.03560   0.00000  Uiso   1.00
C483   C     0.51734   0.92289   0.10193   0.00000  Uiso   1.00
H484   H     0.66108   0.05802   0.98388   0.00000  Uiso   1.00
H485   H     0.77337   0.99851   0.95003   0.00000  Uiso   1.00
H486   H     0.60534   0.15740   0.90465   0.00000  Uiso   1.00
H487   H     0.61339   0.02939   0.10372   0.00000  Uiso   1.00
H488   H     0.88384   0.91490   0.90179   0.00000  Uiso   1.00
H489   H     0.52954   0.24993   0.80613   0.00000  Uiso   1.00
H490   H     0.54650   0.98001   0.22589   0.00000  Uiso   1.00
H491   H     0.55310   0.92215   0.90151   0.00000  Uiso   1.00
H492   H     0.65947   0.85518   0.86314   0.00000  Uiso   1.00
H493   H     0.49144   0.01407   0.81776   0.00000  Uiso   1.00
H494   H     0.49949   0.88606   0.01683   0.00000  Uiso   1.00
H495   H     0.79140   0.79857   0.83126   0.00000  Uiso   1.00
H496   H     0.43709   0.13361   0.73560   0.00000  Uiso   1.00
H497   H     0.45406   0.86368   0.15537   0.00000  Uiso   1.00
O498   O     0.90954   0.81514   0.84275   0.00000  Uiso   1.00
O499   O     0.44469   0.25469   0.71726   0.00000  Uiso   1.00
O500   O     0.46696   0.90055   0.26798   0.00000  Uiso   1.00
N501   N     0.84749   0.89671   0.89047   0.00000  Uiso   1.00
N502   N     0.51624   0.20994   0.80102   0.00000  Uiso   1.00
N503   N     0.53209   0.95759   0.19347   0.00000  Uiso   1.00
N504   N     0.79775   0.83411   0.85252   0.00000  Uiso   1.00
N505   N     0.46650   0.14734   0.76307   0.00000  Uiso   1.00
N506   N     0.48235   0.89500   0.15552   0.00000  Uiso   1.00
C507   C     0.92025   0.18338   0.49615   0.00000  Uiso   1.00
C508   C     0.88714   0.15540   0.56056   0.00000  Uiso   1.00
C509   C     0.90898   0.14776   0.62382   0.00000  Uiso   1.00
C510   C     0.87181   0.12122   0.67634   0.00000  Uiso   1.00
C511   C     0.82909   0.08052   0.77794   0.00000  Uiso   1.00
C512   C     0.93084   0.13348   0.45235   0.00000  Uiso   1.00
C513   C     0.98942   0.10741   0.42463   0.00000  Uiso   1.00
C514   C     0.98902   0.06243   0.38605   0.00000  Uiso   1.00
C515   C     0.01414   0.98774   0.31962   0.00000  Uiso   1.00
C516   C     0.87091   0.23826   0.46236   0.00000  Uiso   1.00
C517   C     0.87909   0.30029   0.44303   0.00000  Uiso   1.00
C518   C     0.82825   0.34352   0.41286   0.00000  Uiso   1.00
C519   C     0.76031   0.43151   0.36196   0.00000  Uiso   1.00
C520   C     0.81540   0.14985   0.47692   0.00000  Uiso   1.00
C521   C     0.83020   0.13719   0.55011   0.00000  Uiso   1.00
C522   C     0.79298   0.11066   0.60255   0.00000  Uiso   1.00
C523   C     0.81476   0.10298   0.66588   0.00000  Uiso   1.00
C524   C     0.87390   0.11527   0.44191   0.00000  Uiso   1.00
C525   C     0.87342   0.07032   0.40336   0.00000  Uiso   1.00
C526   C     0.93198   0.04419   0.37559   0.00000  Uiso   1.00
C527   C     0.81396   0.22005   0.45192   0.00000  Uiso   1.00
C528   C     0.76309   0.26320   0.42177   0.00000  Uiso   1.00
C529   C     0.77120   0.32528   0.40240   0.00000  Uiso   1.00
H530   H     0.96459   0.19755   0.50428   0.00000  Uiso   1.00
H531   H     0.95306   0.16185   0.63188   0.00000  Uiso   1.00
H532   H     0.03348   0.12152   0.43271   0.00000  Uiso   1.00
H533   H     0.92317   0.31436   0.45112   0.00000  Uiso   1.00
H534   H     0.91517   0.11421   0.76874   0.00000  Uiso   1.00
H535   H     0.08474   0.02919   0.34878   0.00000  Uiso   1.00
H536   H     0.85214   0.43585   0.38758   0.00000  Uiso   1.00
H537   H     0.77106   0.13567   0.46879   0.00000  Uiso   1.00
H538   H     0.74891   0.09657   0.59445   0.00000  Uiso   1.00
H539   H     0.82934   0.05624   0.39529   0.00000  Uiso   1.00
H540   H     0.71903   0.24909   0.41369   0.00000  Uiso   1.00
H541   H     0.74948   0.06123   0.73837   0.00000  Uiso   1.00
H542   H     0.91906   0.97621   0.31840   0.00000  Uiso   1.00
H543   H     0.68645   0.38286   0.35720   0.00000  Uiso   1.00
O544   O     0.82126   0.06310   0.83686   0.00000  Uiso   1.00
O545   O     0.04373   0.95157   0.28587   0.00000  Uiso   1.00
O546   O     0.73856   0.48508   0.33678   0.00000  Uiso   1.00
N547   N     0.87921   0.10712   0.74435   0.00000  Uiso   1.00
N548   N     0.03775   0.02763   0.35172   0.00000  Uiso   1.00
N549   N     0.82029   0.40781   0.38798   0.00000  Uiso   1.00
N550   N     0.79006   0.07861   0.72801   0.00000  Uiso   1.00
N551   N     0.94860   0.99912   0.33537   0.00000  Uiso   1.00
N552   N     0.73114   0.37930   0.37163   0.00000  Uiso   1.00
