data_job_03214
_audit_creation_date              2018-12-19
_audit_creation_method            'Materials Studio'
_symmetry_space_group_name_H-M    'P1'
_symmetry_Int_Tables_number       1
_symmetry_cell_setting            triclinic
loop_
_symmetry_equiv_pos_as_xyz
  x,y,z
_cell_length_a                    25.7326
_cell_length_b                    25.7326
_cell_length_c                    7.4835
_cell_angle_alpha                 90.0000
_cell_angle_beta                  90.0000
_cell_angle_gamma                 90.0000
loop_
_atom_site_label
_atom_site_type_symbol
_atom_site_fract_x
_atom_site_fract_y
_atom_site_fract_z
_atom_site_U_iso_or_equiv
_atom_site_adp_type
_atom_site_occupancy
C1     C     0.93258   0.25863   0.78291   0.00000  Uiso   1.00
C2     C     0.87849   0.28087   0.74998   0.00000  Uiso   1.00
C3     C     0.84895   0.30835   0.87303   0.00000  Uiso   1.00
C4     C     0.80043   0.32542   0.81707   0.00000  Uiso   1.00
C5     C     0.71921   0.36147   0.79228   0.00000  Uiso   1.00
C6     C     0.92877   0.20068   0.74239   0.00000  Uiso   1.00
C7     C     0.94150   0.16073   0.85905   0.00000  Uiso   1.00
C8     C     0.93530   0.11029   0.79668   0.00000  Uiso   1.00
C9     C     0.93218   0.02184   0.76005   0.00000  Uiso   1.00
C10    C     0.96742   0.28162   0.63829   0.00000  Uiso   1.00
C11    C     0.01267   0.30973   0.66741   0.00000  Uiso   1.00
C12    C     0.03902   0.32743   0.51739   0.00000  Uiso   1.00
C13    C     0.09592   0.36466   0.31913   0.00000  Uiso   1.00
C14    C     0.89894   0.24008   0.46470   0.00000  Uiso   1.00
C15    C     0.86022   0.27080   0.57715   0.00000  Uiso   1.00
C16    C     0.81173   0.28783   0.52098   0.00000  Uiso   1.00
C17    C     0.78212   0.31534   0.64393   0.00000  Uiso   1.00
C18    C     0.91050   0.19060   0.56956   0.00000  Uiso   1.00
C19    C     0.90428   0.14021   0.50700   0.00000  Uiso   1.00
C20    C     0.91700   0.10020   0.62353   0.00000  Uiso   1.00
C21    C     0.94915   0.27155   0.46545   0.00000  Uiso   1.00
C22    C     0.97544   0.28921   0.31536   0.00000  Uiso   1.00
C23    C     0.02072   0.31734   0.34425   0.00000  Uiso   1.00
H24    H     0.94681   0.26647   0.91746   0.00000  Uiso   1.00
H25    H     0.86311   0.31614   0.00678   0.00000  Uiso   1.00
H26    H     0.95565   0.16854   0.99278   0.00000  Uiso   1.00
H27    H     0.02680   0.31752   0.80118   0.00000  Uiso   1.00
H28    H     0.76224   0.36674   0.02961   0.00000  Uiso   1.00
H29    H     0.95738   0.05553   0.00008   0.00000  Uiso   1.00
H30    H     0.10742   0.36967   0.59604   0.00000  Uiso   1.00
H31    H     0.88471   0.23224   0.33014   0.00000  Uiso   1.00
H32    H     0.79760   0.28003   0.38723   0.00000  Uiso   1.00
H33    H     0.89014   0.13243   0.37324   0.00000  Uiso   1.00
H34    H     0.96129   0.28141   0.18163   0.00000  Uiso   1.00
H35    H     0.70907   0.33744   0.52676   0.00000  Uiso   1.00
H36    H     0.90422   0.02622   0.49723   0.00000  Uiso   1.00
H37    H     0.05425   0.34037   0.09319   0.00000  Uiso   1.00
O38    O     0.67946   0.38413   0.82635   0.00000  Uiso   1.00
O39    O     0.93550   0.97583   0.78760   0.00000  Uiso   1.00
O40    O     0.13234   0.38798   0.25751   0.00000  Uiso   1.00
N41    N     0.76168   0.35330   0.90341   0.00000  Uiso   1.00
N42    N     0.94413   0.06233   0.87582   0.00000  Uiso   1.00
N43    N     0.08441   0.35601   0.49807   0.00000  Uiso   1.00
N44    N     0.73307   0.33753   0.63283   0.00000  Uiso   1.00
N45    N     0.91552   0.04656   0.60524   0.00000  Uiso   1.00
N46    N     0.05580   0.34025   0.22749   0.00000  Uiso   1.00
C47    C     0.06742   0.74137   0.78291   0.00000  Uiso   1.00
C48    C     0.12151   0.71913   0.74998   0.00000  Uiso   1.00
C49    C     0.15105   0.69165   0.87303   0.00000  Uiso   1.00
C50    C     0.19957   0.67458   0.81707   0.00000  Uiso   1.00
C51    C     0.28079   0.63853   0.79228   0.00000  Uiso   1.00
C52    C     0.07123   0.79932   0.74239   0.00000  Uiso   1.00
C53    C     0.05850   0.83927   0.85905   0.00000  Uiso   1.00
C54    C     0.06470   0.88971   0.79668   0.00000  Uiso   1.00
C55    C     0.06782   0.97816   0.76005   0.00000  Uiso   1.00
C56    C     0.03258   0.71838   0.63829   0.00000  Uiso   1.00
C57    C     0.98733   0.69027   0.66741   0.00000  Uiso   1.00
C58    C     0.96098   0.67257   0.51739   0.00000  Uiso   1.00
C59    C     0.90408   0.63534   0.31913   0.00000  Uiso   1.00
C60    C     0.10106   0.75992   0.46470   0.00000  Uiso   1.00
C61    C     0.13978   0.72920   0.57715   0.00000  Uiso   1.00
C62    C     0.18827   0.71217   0.52098   0.00000  Uiso   1.00
C63    C     0.21788   0.68466   0.64393   0.00000  Uiso   1.00
C64    C     0.08950   0.80940   0.56956   0.00000  Uiso   1.00
C65    C     0.09572   0.85979   0.50700   0.00000  Uiso   1.00
C66    C     0.08300   0.89980   0.62353   0.00000  Uiso   1.00
C67    C     0.05085   0.72845   0.46545   0.00000  Uiso   1.00
C68    C     0.02456   0.71079   0.31536   0.00000  Uiso   1.00
C69    C     0.97928   0.68266   0.34425   0.00000  Uiso   1.00
H70    H     0.05319   0.73353   0.91746   0.00000  Uiso   1.00
H71    H     0.13689   0.68386   0.00678   0.00000  Uiso   1.00
H72    H     0.04435   0.83146   0.99278   0.00000  Uiso   1.00
H73    H     0.97320   0.68248   0.80118   0.00000  Uiso   1.00
H74    H     0.23776   0.63326   0.02961   0.00000  Uiso   1.00
H75    H     0.04262   0.94447   0.00008   0.00000  Uiso   1.00
H76    H     0.89258   0.63033   0.59604   0.00000  Uiso   1.00
H77    H     0.11529   0.76776   0.33014   0.00000  Uiso   1.00
H78    H     0.20240   0.71997   0.38723   0.00000  Uiso   1.00
H79    H     0.10986   0.86757   0.37324   0.00000  Uiso   1.00
H80    H     0.03871   0.71859   0.18163   0.00000  Uiso   1.00
H81    H     0.29093   0.66256   0.52676   0.00000  Uiso   1.00
H82    H     0.09578   0.97378   0.49723   0.00000  Uiso   1.00
H83    H     0.94575   0.65963   0.09319   0.00000  Uiso   1.00
O84    O     0.32054   0.61587   0.82635   0.00000  Uiso   1.00
O85    O     0.06450   0.02417   0.78760   0.00000  Uiso   1.00
O86    O     0.86766   0.61202   0.25751   0.00000  Uiso   1.00
N87    N     0.23832   0.64670   0.90341   0.00000  Uiso   1.00
N88    N     0.05587   0.93767   0.87582   0.00000  Uiso   1.00
N89    N     0.91559   0.64399   0.49807   0.00000  Uiso   1.00
N90    N     0.26693   0.66247   0.63283   0.00000  Uiso   1.00
N91    N     0.08448   0.95344   0.60524   0.00000  Uiso   1.00
N92    N     0.94420   0.65975   0.22749   0.00000  Uiso   1.00
C93    C     0.24137   0.43258   0.78291   0.00000  Uiso   1.00
C94    C     0.21913   0.37849   0.74998   0.00000  Uiso   1.00
C95    C     0.19165   0.34895   0.87303   0.00000  Uiso   1.00
C96    C     0.17458   0.30043   0.81707   0.00000  Uiso   1.00
C97    C     0.13853   0.21921   0.79228   0.00000  Uiso   1.00
C98    C     0.29932   0.42877   0.74239   0.00000  Uiso   1.00
C99    C     0.33927   0.44150   0.85905   0.00000  Uiso   1.00
C100   C     0.38971   0.43530   0.79668   0.00000  Uiso   1.00
C101   C     0.47816   0.43218   0.76005   0.00000  Uiso   1.00
C102   C     0.21838   0.46742   0.63829   0.00000  Uiso   1.00
C103   C     0.19027   0.51267   0.66741   0.00000  Uiso   1.00
C104   C     0.17257   0.53902   0.51739   0.00000  Uiso   1.00
C105   C     0.13534   0.59592   0.31913   0.00000  Uiso   1.00
C106   C     0.25992   0.39894   0.46470   0.00000  Uiso   1.00
C107   C     0.22920   0.36022   0.57715   0.00000  Uiso   1.00
C108   C     0.21217   0.31173   0.52098   0.00000  Uiso   1.00
C109   C     0.18466   0.28212   0.64393   0.00000  Uiso   1.00
C110   C     0.30940   0.41050   0.56956   0.00000  Uiso   1.00
C111   C     0.35979   0.40428   0.50700   0.00000  Uiso   1.00
C112   C     0.39980   0.41700   0.62353   0.00000  Uiso   1.00
C113   C     0.22845   0.44915   0.46545   0.00000  Uiso   1.00
C114   C     0.21079   0.47544   0.31536   0.00000  Uiso   1.00
C115   C     0.18266   0.52072   0.34425   0.00000  Uiso   1.00
H116   H     0.23353   0.44681   0.91746   0.00000  Uiso   1.00
H117   H     0.18386   0.36311   0.00678   0.00000  Uiso   1.00
H118   H     0.33146   0.45565   0.99278   0.00000  Uiso   1.00
H119   H     0.18248   0.52680   0.80118   0.00000  Uiso   1.00
H120   H     0.13326   0.26224   0.02961   0.00000  Uiso   1.00
H121   H     0.44447   0.45738   0.00008   0.00000  Uiso   1.00
H122   H     0.13033   0.60742   0.59604   0.00000  Uiso   1.00
H123   H     0.26776   0.38471   0.33014   0.00000  Uiso   1.00
H124   H     0.21997   0.29760   0.38723   0.00000  Uiso   1.00
H125   H     0.36757   0.39014   0.37324   0.00000  Uiso   1.00
H126   H     0.21859   0.46129   0.18163   0.00000  Uiso   1.00
H127   H     0.16256   0.20907   0.52676   0.00000  Uiso   1.00
H128   H     0.47378   0.40422   0.49723   0.00000  Uiso   1.00
H129   H     0.15963   0.55425   0.09319   0.00000  Uiso   1.00
O130   O     0.11587   0.17946   0.82635   0.00000  Uiso   1.00
O131   O     0.52417   0.43550   0.78760   0.00000  Uiso   1.00
O132   O     0.11202   0.63234   0.25751   0.00000  Uiso   1.00
N133   N     0.14670   0.26168   0.90341   0.00000  Uiso   1.00
N134   N     0.43767   0.44413   0.87582   0.00000  Uiso   1.00
N135   N     0.14399   0.58441   0.49807   0.00000  Uiso   1.00
N136   N     0.16247   0.23307   0.63283   0.00000  Uiso   1.00
N137   N     0.45344   0.41552   0.60524   0.00000  Uiso   1.00
N138   N     0.15975   0.55580   0.22749   0.00000  Uiso   1.00
C139   C     0.75863   0.56742   0.78291   0.00000  Uiso   1.00
C140   C     0.78087   0.62151   0.74998   0.00000  Uiso   1.00
C141   C     0.80835   0.65105   0.87303   0.00000  Uiso   1.00
C142   C     0.82542   0.69957   0.81707   0.00000  Uiso   1.00
C143   C     0.86147   0.78079   0.79228   0.00000  Uiso   1.00
C144   C     0.70068   0.57123   0.74239   0.00000  Uiso   1.00
C145   C     0.66073   0.55850   0.85905   0.00000  Uiso   1.00
C146   C     0.61029   0.56470   0.79668   0.00000  Uiso   1.00
C147   C     0.52184   0.56782   0.76005   0.00000  Uiso   1.00
C148   C     0.78162   0.53258   0.63829   0.00000  Uiso   1.00
C149   C     0.80973   0.48733   0.66741   0.00000  Uiso   1.00
C150   C     0.82743   0.46098   0.51739   0.00000  Uiso   1.00
C151   C     0.86466   0.40408   0.31913   0.00000  Uiso   1.00
C152   C     0.74008   0.60106   0.46470   0.00000  Uiso   1.00
C153   C     0.77080   0.63978   0.57715   0.00000  Uiso   1.00
C154   C     0.78783   0.68827   0.52098   0.00000  Uiso   1.00
C155   C     0.81534   0.71788   0.64393   0.00000  Uiso   1.00
C156   C     0.69060   0.58950   0.56956   0.00000  Uiso   1.00
C157   C     0.64021   0.59572   0.50700   0.00000  Uiso   1.00
C158   C     0.60020   0.58300   0.62353   0.00000  Uiso   1.00
C159   C     0.77155   0.55085   0.46545   0.00000  Uiso   1.00
C160   C     0.78921   0.52456   0.31536   0.00000  Uiso   1.00
C161   C     0.81734   0.47928   0.34425   0.00000  Uiso   1.00
H162   H     0.76647   0.55319   0.91746   0.00000  Uiso   1.00
H163   H     0.81614   0.63689   0.00678   0.00000  Uiso   1.00
H164   H     0.66854   0.54435   0.99278   0.00000  Uiso   1.00
H165   H     0.81752   0.47320   0.80118   0.00000  Uiso   1.00
H166   H     0.86674   0.73776   0.02961   0.00000  Uiso   1.00
H167   H     0.55553   0.54262   0.00008   0.00000  Uiso   1.00
H168   H     0.86967   0.39258   0.59604   0.00000  Uiso   1.00
H169   H     0.73224   0.61529   0.33014   0.00000  Uiso   1.00
H170   H     0.78003   0.70240   0.38723   0.00000  Uiso   1.00
H171   H     0.63243   0.60986   0.37324   0.00000  Uiso   1.00
H172   H     0.78141   0.53871   0.18163   0.00000  Uiso   1.00
H173   H     0.83744   0.79093   0.52676   0.00000  Uiso   1.00
H174   H     0.52622   0.59578   0.49723   0.00000  Uiso   1.00
H175   H     0.84037   0.44575   0.09319   0.00000  Uiso   1.00
O176   O     0.88413   0.82054   0.82635   0.00000  Uiso   1.00
O177   O     0.47583   0.56450   0.78760   0.00000  Uiso   1.00
O178   O     0.88798   0.36766   0.25751   0.00000  Uiso   1.00
N179   N     0.85330   0.73832   0.90341   0.00000  Uiso   1.00
N180   N     0.56233   0.55587   0.87582   0.00000  Uiso   1.00
N181   N     0.85601   0.41559   0.49807   0.00000  Uiso   1.00
N182   N     0.83753   0.76693   0.63283   0.00000  Uiso   1.00
N183   N     0.54656   0.58448   0.60524   0.00000  Uiso   1.00
N184   N     0.84025   0.44420   0.22749   0.00000  Uiso   1.00
C185   C     0.56742   0.24137   0.21709   0.00000  Uiso   1.00
C186   C     0.62151   0.21913   0.25002   0.00000  Uiso   1.00
C187   C     0.65105   0.19165   0.12697   0.00000  Uiso   1.00
C188   C     0.69957   0.17458   0.18293   0.00000  Uiso   1.00
C189   C     0.78079   0.13853   0.20772   0.00000  Uiso   1.00
C190   C     0.57123   0.29932   0.25761   0.00000  Uiso   1.00
C191   C     0.55850   0.33927   0.14095   0.00000  Uiso   1.00
C192   C     0.56470   0.38971   0.20332   0.00000  Uiso   1.00
C193   C     0.56782   0.47816   0.23995   0.00000  Uiso   1.00
C194   C     0.53258   0.21838   0.36171   0.00000  Uiso   1.00
C195   C     0.48733   0.19027   0.33259   0.00000  Uiso   1.00
C196   C     0.46098   0.17257   0.48261   0.00000  Uiso   1.00
C197   C     0.40408   0.13534   0.68087   0.00000  Uiso   1.00
C198   C     0.60106   0.25992   0.53530   0.00000  Uiso   1.00
C199   C     0.63978   0.22920   0.42285   0.00000  Uiso   1.00
C200   C     0.68827   0.21217   0.47902   0.00000  Uiso   1.00
C201   C     0.71788   0.18466   0.35607   0.00000  Uiso   1.00
C202   C     0.58950   0.30940   0.43044   0.00000  Uiso   1.00
C203   C     0.59572   0.35979   0.49300   0.00000  Uiso   1.00
C204   C     0.58300   0.39980   0.37647   0.00000  Uiso   1.00
C205   C     0.55085   0.22845   0.53455   0.00000  Uiso   1.00
C206   C     0.52456   0.21079   0.68464   0.00000  Uiso   1.00
C207   C     0.47928   0.18266   0.65575   0.00000  Uiso   1.00
H208   H     0.55319   0.23353   0.08254   0.00000  Uiso   1.00
H209   H     0.63689   0.18386   0.99322   0.00000  Uiso   1.00
H210   H     0.54435   0.33146   0.00722   0.00000  Uiso   1.00
H211   H     0.47320   0.18248   0.19882   0.00000  Uiso   1.00
H212   H     0.73776   0.13326   0.97039   0.00000  Uiso   1.00
H213   H     0.54262   0.44447   0.99992   0.00000  Uiso   1.00
H214   H     0.39258   0.13033   0.40396   0.00000  Uiso   1.00
H215   H     0.61529   0.26776   0.66986   0.00000  Uiso   1.00
H216   H     0.70240   0.21997   0.61277   0.00000  Uiso   1.00
H217   H     0.60986   0.36757   0.62676   0.00000  Uiso   1.00
H218   H     0.53871   0.21859   0.81837   0.00000  Uiso   1.00
H219   H     0.79093   0.16256   0.47324   0.00000  Uiso   1.00
H220   H     0.59578   0.47378   0.50277   0.00000  Uiso   1.00
H221   H     0.44575   0.15963   0.90681   0.00000  Uiso   1.00
O222   O     0.82054   0.11587   0.17365   0.00000  Uiso   1.00
O223   O     0.56450   0.52417   0.21240   0.00000  Uiso   1.00
O224   O     0.36766   0.11202   0.74249   0.00000  Uiso   1.00
N225   N     0.73832   0.14670   0.09659   0.00000  Uiso   1.00
N226   N     0.55587   0.43767   0.12418   0.00000  Uiso   1.00
N227   N     0.41559   0.14399   0.50193   0.00000  Uiso   1.00
N228   N     0.76693   0.16247   0.36717   0.00000  Uiso   1.00
N229   N     0.58448   0.45344   0.39476   0.00000  Uiso   1.00
N230   N     0.44420   0.15975   0.77251   0.00000  Uiso   1.00
C231   C     0.43258   0.75863   0.21709   0.00000  Uiso   1.00
C232   C     0.37849   0.78087   0.25002   0.00000  Uiso   1.00
C233   C     0.34895   0.80835   0.12697   0.00000  Uiso   1.00
C234   C     0.30043   0.82542   0.18293   0.00000  Uiso   1.00
C235   C     0.21921   0.86147   0.20772   0.00000  Uiso   1.00
C236   C     0.42877   0.70068   0.25761   0.00000  Uiso   1.00
C237   C     0.44150   0.66073   0.14095   0.00000  Uiso   1.00
C238   C     0.43530   0.61029   0.20332   0.00000  Uiso   1.00
C239   C     0.43218   0.52184   0.23995   0.00000  Uiso   1.00
C240   C     0.46742   0.78162   0.36171   0.00000  Uiso   1.00
C241   C     0.51267   0.80973   0.33259   0.00000  Uiso   1.00
C242   C     0.53902   0.82743   0.48261   0.00000  Uiso   1.00
C243   C     0.59592   0.86466   0.68087   0.00000  Uiso   1.00
C244   C     0.39894   0.74008   0.53530   0.00000  Uiso   1.00
C245   C     0.36022   0.77080   0.42285   0.00000  Uiso   1.00
C246   C     0.31173   0.78783   0.47902   0.00000  Uiso   1.00
C247   C     0.28212   0.81534   0.35607   0.00000  Uiso   1.00
C248   C     0.41050   0.69060   0.43044   0.00000  Uiso   1.00
C249   C     0.40428   0.64021   0.49300   0.00000  Uiso   1.00
C250   C     0.41700   0.60020   0.37647   0.00000  Uiso   1.00
C251   C     0.44915   0.77155   0.53455   0.00000  Uiso   1.00
C252   C     0.47544   0.78921   0.68464   0.00000  Uiso   1.00
C253   C     0.52072   0.81734   0.65575   0.00000  Uiso   1.00
H254   H     0.44681   0.76647   0.08254   0.00000  Uiso   1.00
H255   H     0.36311   0.81614   0.99322   0.00000  Uiso   1.00
H256   H     0.45565   0.66854   0.00722   0.00000  Uiso   1.00
H257   H     0.52680   0.81752   0.19882   0.00000  Uiso   1.00
H258   H     0.26224   0.86674   0.97039   0.00000  Uiso   1.00
H259   H     0.45738   0.55553   0.99992   0.00000  Uiso   1.00
H260   H     0.60742   0.86967   0.40396   0.00000  Uiso   1.00
H261   H     0.38471   0.73224   0.66986   0.00000  Uiso   1.00
H262   H     0.29760   0.78003   0.61277   0.00000  Uiso   1.00
H263   H     0.39014   0.63243   0.62676   0.00000  Uiso   1.00
H264   H     0.46129   0.78141   0.81837   0.00000  Uiso   1.00
H265   H     0.20907   0.83744   0.47324   0.00000  Uiso   1.00
H266   H     0.40422   0.52622   0.50277   0.00000  Uiso   1.00
H267   H     0.55425   0.84037   0.90681   0.00000  Uiso   1.00
O268   O     0.17946   0.88413   0.17365   0.00000  Uiso   1.00
O269   O     0.43550   0.47583   0.21240   0.00000  Uiso   1.00
O270   O     0.63234   0.88798   0.74249   0.00000  Uiso   1.00
N271   N     0.26168   0.85330   0.09659   0.00000  Uiso   1.00
N272   N     0.44413   0.56233   0.12418   0.00000  Uiso   1.00
N273   N     0.58441   0.85601   0.50193   0.00000  Uiso   1.00
N274   N     0.23307   0.83753   0.36717   0.00000  Uiso   1.00
N275   N     0.41552   0.54656   0.39476   0.00000  Uiso   1.00
N276   N     0.55580   0.84025   0.77251   0.00000  Uiso   1.00
C277   C     0.25863   0.06742   0.21709   0.00000  Uiso   1.00
C278   C     0.28087   0.12151   0.25002   0.00000  Uiso   1.00
C279   C     0.30835   0.15105   0.12697   0.00000  Uiso   1.00
C280   C     0.32542   0.19957   0.18293   0.00000  Uiso   1.00
C281   C     0.36147   0.28079   0.20772   0.00000  Uiso   1.00
C282   C     0.20068   0.07123   0.25761   0.00000  Uiso   1.00
C283   C     0.16073   0.05850   0.14095   0.00000  Uiso   1.00
C284   C     0.11029   0.06470   0.20332   0.00000  Uiso   1.00
C285   C     0.02184   0.06782   0.23995   0.00000  Uiso   1.00
C286   C     0.28162   0.03258   0.36171   0.00000  Uiso   1.00
C287   C     0.30973   0.98733   0.33259   0.00000  Uiso   1.00
C288   C     0.32743   0.96098   0.48261   0.00000  Uiso   1.00
C289   C     0.36466   0.90408   0.68087   0.00000  Uiso   1.00
C290   C     0.24008   0.10106   0.53530   0.00000  Uiso   1.00
C291   C     0.27080   0.13978   0.42285   0.00000  Uiso   1.00
C292   C     0.28783   0.18827   0.47902   0.00000  Uiso   1.00
C293   C     0.31534   0.21788   0.35607   0.00000  Uiso   1.00
C294   C     0.19060   0.08950   0.43044   0.00000  Uiso   1.00
C295   C     0.14021   0.09572   0.49300   0.00000  Uiso   1.00
C296   C     0.10020   0.08300   0.37647   0.00000  Uiso   1.00
C297   C     0.27155   0.05085   0.53455   0.00000  Uiso   1.00
C298   C     0.28921   0.02456   0.68464   0.00000  Uiso   1.00
C299   C     0.31734   0.97928   0.65575   0.00000  Uiso   1.00
H300   H     0.26647   0.05319   0.08254   0.00000  Uiso   1.00
H301   H     0.31614   0.13689   0.99322   0.00000  Uiso   1.00
H302   H     0.16854   0.04435   0.00722   0.00000  Uiso   1.00
H303   H     0.31752   0.97320   0.19882   0.00000  Uiso   1.00
H304   H     0.36674   0.23776   0.97039   0.00000  Uiso   1.00
H305   H     0.05553   0.04262   0.99992   0.00000  Uiso   1.00
H306   H     0.36967   0.89258   0.40396   0.00000  Uiso   1.00
H307   H     0.23224   0.11529   0.66986   0.00000  Uiso   1.00
H308   H     0.28003   0.20240   0.61277   0.00000  Uiso   1.00
H309   H     0.13243   0.10986   0.62676   0.00000  Uiso   1.00
H310   H     0.28141   0.03871   0.81837   0.00000  Uiso   1.00
H311   H     0.33744   0.29093   0.47324   0.00000  Uiso   1.00
H312   H     0.02622   0.09578   0.50277   0.00000  Uiso   1.00
H313   H     0.34037   0.94575   0.90681   0.00000  Uiso   1.00
O314   O     0.38413   0.32054   0.17365   0.00000  Uiso   1.00
O315   O     0.97583   0.06450   0.21240   0.00000  Uiso   1.00
O316   O     0.38798   0.86766   0.74249   0.00000  Uiso   1.00
N317   N     0.35330   0.23832   0.09659   0.00000  Uiso   1.00
N318   N     0.06233   0.05587   0.12418   0.00000  Uiso   1.00
N319   N     0.35601   0.91559   0.50193   0.00000  Uiso   1.00
N320   N     0.33753   0.26693   0.36717   0.00000  Uiso   1.00
N321   N     0.04656   0.08448   0.39476   0.00000  Uiso   1.00
N322   N     0.34025   0.94420   0.77251   0.00000  Uiso   1.00
C323   C     0.74137   0.93258   0.21709   0.00000  Uiso   1.00
C324   C     0.71913   0.87849   0.25002   0.00000  Uiso   1.00
C325   C     0.69165   0.84895   0.12697   0.00000  Uiso   1.00
C326   C     0.67458   0.80043   0.18293   0.00000  Uiso   1.00
C327   C     0.63853   0.71921   0.20772   0.00000  Uiso   1.00
C328   C     0.79932   0.92877   0.25761   0.00000  Uiso   1.00
C329   C     0.83927   0.94150   0.14095   0.00000  Uiso   1.00
C330   C     0.88971   0.93530   0.20332   0.00000  Uiso   1.00
C331   C     0.97816   0.93218   0.23995   0.00000  Uiso   1.00
C332   C     0.71838   0.96742   0.36171   0.00000  Uiso   1.00
C333   C     0.69027   0.01267   0.33259   0.00000  Uiso   1.00
C334   C     0.67257   0.03902   0.48261   0.00000  Uiso   1.00
C335   C     0.63534   0.09592   0.68087   0.00000  Uiso   1.00
C336   C     0.75992   0.89894   0.53530   0.00000  Uiso   1.00
C337   C     0.72920   0.86022   0.42285   0.00000  Uiso   1.00
C338   C     0.71217   0.81173   0.47902   0.00000  Uiso   1.00
C339   C     0.68466   0.78212   0.35607   0.00000  Uiso   1.00
C340   C     0.80940   0.91050   0.43044   0.00000  Uiso   1.00
C341   C     0.85979   0.90428   0.49300   0.00000  Uiso   1.00
C342   C     0.89980   0.91700   0.37647   0.00000  Uiso   1.00
C343   C     0.72845   0.94915   0.53455   0.00000  Uiso   1.00
C344   C     0.71079   0.97544   0.68464   0.00000  Uiso   1.00
C345   C     0.68266   0.02072   0.65575   0.00000  Uiso   1.00
H346   H     0.73353   0.94681   0.08254   0.00000  Uiso   1.00
H347   H     0.68386   0.86311   0.99322   0.00000  Uiso   1.00
H348   H     0.83146   0.95565   0.00722   0.00000  Uiso   1.00
H349   H     0.68248   0.02680   0.19882   0.00000  Uiso   1.00
H350   H     0.63326   0.76224   0.97039   0.00000  Uiso   1.00
H351   H     0.94447   0.95738   0.99992   0.00000  Uiso   1.00
H352   H     0.63033   0.10742   0.40396   0.00000  Uiso   1.00
H353   H     0.76776   0.88471   0.66986   0.00000  Uiso   1.00
H354   H     0.71997   0.79760   0.61277   0.00000  Uiso   1.00
H355   H     0.86757   0.89014   0.62676   0.00000  Uiso   1.00
H356   H     0.71859   0.96129   0.81837   0.00000  Uiso   1.00
H357   H     0.66256   0.70907   0.47324   0.00000  Uiso   1.00
H358   H     0.97378   0.90422   0.50277   0.00000  Uiso   1.00
H359   H     0.65963   0.05425   0.90681   0.00000  Uiso   1.00
O360   O     0.61587   0.67946   0.17365   0.00000  Uiso   1.00
O361   O     0.02417   0.93550   0.21240   0.00000  Uiso   1.00
O362   O     0.61202   0.13234   0.74249   0.00000  Uiso   1.00
N363   N     0.64670   0.76168   0.09659   0.00000  Uiso   1.00
N364   N     0.93767   0.94413   0.12418   0.00000  Uiso   1.00
N365   N     0.64399   0.08441   0.50193   0.00000  Uiso   1.00
N366   N     0.66247   0.73307   0.36717   0.00000  Uiso   1.00
N367   N     0.95344   0.91552   0.39476   0.00000  Uiso   1.00
N368   N     0.65975   0.05580   0.77251   0.00000  Uiso   1.00
