data_job_04098
_audit_creation_date              2018-12-19
_audit_creation_method            'Materials Studio'
_symmetry_space_group_name_H-M    'P1'
_symmetry_Int_Tables_number       1
_symmetry_cell_setting            triclinic
loop_
_symmetry_equiv_pos_as_xyz
  x,y,z
_cell_length_a                    9.7478
_cell_length_b                    37.8896
_cell_length_c                    32.0453
_cell_angle_alpha                 90.0000
_cell_angle_beta                  90.0000
_cell_angle_gamma                 90.0000
loop_
_atom_site_label
_atom_site_type_symbol
_atom_site_fract_x
_atom_site_fract_y
_atom_site_fract_z
_atom_site_U_iso_or_equiv
_atom_site_adp_type
_atom_site_occupancy
C1     C     0.29484   0.37248   0.61931   0.00000  Uiso   1.00
C2     C     0.20353   0.34943   0.64671   0.00000  Uiso   1.00
C3     C     0.18074   0.35410   0.68910   0.00000  Uiso   1.00
C4     C     0.09378   0.33019   0.70854   0.00000  Uiso   1.00
C5     C     0.96147   0.29859   0.75446   0.00000  Uiso   1.00
C6     C     0.39905   0.34763   0.59940   0.00000  Uiso   1.00
C7     C     0.54063   0.35079   0.60200   0.00000  Uiso   1.00
C8     C     0.61825   0.32536   0.58161   0.00000  Uiso   1.00
C9     C     0.78948   0.29098   0.55405   0.00000  Uiso   1.00
C10    C     0.20388   0.38558   0.58383   0.00000  Uiso   1.00
C11    C     0.18140   0.42064   0.57333   0.00000  Uiso   1.00
C12    C     0.09473   0.42716   0.53983   0.00000  Uiso   1.00
C13    C     0.96294   0.45169   0.48810   0.00000  Uiso   1.00
C14    C     0.18092   0.32171   0.57845   0.00000  Uiso   1.00
C15    C     0.14167   0.32186   0.62451   0.00000  Uiso   1.00
C16    C     0.05471   0.29793   0.64389   0.00000  Uiso   1.00
C17    C     0.03178   0.30256   0.68631   0.00000  Uiso   1.00
C18    C     0.33718   0.32006   0.57720   0.00000  Uiso   1.00
C19    C     0.41460   0.29462   0.55680   0.00000  Uiso   1.00
C20    C     0.55626   0.29773   0.55937   0.00000  Uiso   1.00
C21    C     0.14201   0.35800   0.56164   0.00000  Uiso   1.00
C22    C     0.05536   0.36447   0.52813   0.00000  Uiso   1.00
C23    C     0.03274   0.39953   0.51759   0.00000  Uiso   1.00
H24    H     0.34302   0.39395   0.63659   0.00000  Uiso   1.00
H25    H     0.22865   0.37544   0.70626   0.00000  Uiso   1.00
H26    H     0.58848   0.37213   0.61917   0.00000  Uiso   1.00
H27    H     0.22930   0.44197   0.59051   0.00000  Uiso   1.00
H28    H     0.07461   0.34276   0.77373   0.00000  Uiso   1.00
H29    H     0.83334   0.33579   0.59009   0.00000  Uiso   1.00
H30    H     0.07594   0.48306   0.52965   0.00000  Uiso   1.00
H31    H     0.13275   0.30024   0.56117   0.00000  Uiso   1.00
H32    H     0.00684   0.27659   0.62671   0.00000  Uiso   1.00
H33    H     0.36668   0.27328   0.53963   0.00000  Uiso   1.00
H34    H     0.00750   0.34312   0.51097   0.00000  Uiso   1.00
H35    H     0.89459   0.26253   0.70916   0.00000  Uiso   1.00
H36    H     0.65332   0.25556   0.52552   0.00000  Uiso   1.00
H37    H     0.89591   0.40283   0.46509   0.00000  Uiso   1.00
O38    O     0.90560   0.28877   0.78592   0.00000  Uiso   1.00
O39    O     0.90102   0.27963   0.54499   0.00000  Uiso   1.00
O40    O     0.90732   0.47285   0.46570   0.00000  Uiso   1.00
N41    N     0.04950   0.32713   0.74954   0.00000  Uiso   1.00
N42    N     0.75887   0.32061   0.57785   0.00000  Uiso   1.00
N43    N     0.05079   0.45829   0.52134   0.00000  Uiso   1.00
N44    N     0.95263   0.28396   0.71479   0.00000  Uiso   1.00
N45    N     0.66199   0.27743   0.54311   0.00000  Uiso   1.00
N46    N     0.95391   0.41512   0.48660   0.00000  Uiso   1.00
C47    C     0.20516   0.62752   0.61931   0.00000  Uiso   1.00
C48    C     0.29647   0.65057   0.64671   0.00000  Uiso   1.00
C49    C     0.31926   0.64590   0.68910   0.00000  Uiso   1.00
C50    C     0.40622   0.66981   0.70854   0.00000  Uiso   1.00
C51    C     0.53853   0.70141   0.75446   0.00000  Uiso   1.00
C52    C     0.10095   0.65237   0.59940   0.00000  Uiso   1.00
C53    C     0.95937   0.64921   0.60200   0.00000  Uiso   1.00
C54    C     0.88175   0.67464   0.58161   0.00000  Uiso   1.00
C55    C     0.71052   0.70902   0.55405   0.00000  Uiso   1.00
C56    C     0.29612   0.61442   0.58383   0.00000  Uiso   1.00
C57    C     0.31860   0.57936   0.57333   0.00000  Uiso   1.00
C58    C     0.40527   0.57284   0.53983   0.00000  Uiso   1.00
C59    C     0.53706   0.54831   0.48810   0.00000  Uiso   1.00
C60    C     0.31908   0.67829   0.57845   0.00000  Uiso   1.00
C61    C     0.35833   0.67814   0.62451   0.00000  Uiso   1.00
C62    C     0.44529   0.70207   0.64389   0.00000  Uiso   1.00
C63    C     0.46822   0.69744   0.68631   0.00000  Uiso   1.00
C64    C     0.16282   0.67994   0.57720   0.00000  Uiso   1.00
C65    C     0.08540   0.70538   0.55680   0.00000  Uiso   1.00
C66    C     0.94374   0.70227   0.55937   0.00000  Uiso   1.00
C67    C     0.35799   0.64200   0.56164   0.00000  Uiso   1.00
C68    C     0.44464   0.63553   0.52813   0.00000  Uiso   1.00
C69    C     0.46726   0.60047   0.51759   0.00000  Uiso   1.00
H70    H     0.15698   0.60605   0.63659   0.00000  Uiso   1.00
H71    H     0.27135   0.62456   0.70626   0.00000  Uiso   1.00
H72    H     0.91152   0.62787   0.61917   0.00000  Uiso   1.00
H73    H     0.27070   0.55803   0.59051   0.00000  Uiso   1.00
H74    H     0.42539   0.65724   0.77373   0.00000  Uiso   1.00
H75    H     0.66666   0.66421   0.59009   0.00000  Uiso   1.00
H76    H     0.42406   0.51694   0.52965   0.00000  Uiso   1.00
H77    H     0.36725   0.69976   0.56117   0.00000  Uiso   1.00
H78    H     0.49316   0.72341   0.62671   0.00000  Uiso   1.00
H79    H     0.13332   0.72672   0.53963   0.00000  Uiso   1.00
H80    H     0.49250   0.65688   0.51097   0.00000  Uiso   1.00
H81    H     0.60541   0.73747   0.70916   0.00000  Uiso   1.00
H82    H     0.84668   0.74444   0.52552   0.00000  Uiso   1.00
H83    H     0.60409   0.59717   0.46509   0.00000  Uiso   1.00
O84    O     0.59440   0.71123   0.78592   0.00000  Uiso   1.00
O85    O     0.59898   0.72037   0.54499   0.00000  Uiso   1.00
O86    O     0.59268   0.52715   0.46570   0.00000  Uiso   1.00
N87    N     0.45050   0.67287   0.74954   0.00000  Uiso   1.00
N88    N     0.74113   0.67939   0.57785   0.00000  Uiso   1.00
N89    N     0.44921   0.54171   0.52134   0.00000  Uiso   1.00
N90    N     0.54737   0.71604   0.71479   0.00000  Uiso   1.00
N91    N     0.83801   0.72257   0.54311   0.00000  Uiso   1.00
N92    N     0.54609   0.58488   0.48660   0.00000  Uiso   1.00
C93    C     0.20516   0.87248   0.88069   0.00000  Uiso   1.00
C94    C     0.29647   0.84943   0.85329   0.00000  Uiso   1.00
C95    C     0.31926   0.85410   0.81090   0.00000  Uiso   1.00
C96    C     0.40622   0.83019   0.79146   0.00000  Uiso   1.00
C97    C     0.53853   0.79859   0.74554   0.00000  Uiso   1.00
C98    C     0.10095   0.84763   0.90060   0.00000  Uiso   1.00
C99    C     0.95937   0.85079   0.89800   0.00000  Uiso   1.00
C100   C     0.88175   0.82536   0.91839   0.00000  Uiso   1.00
C101   C     0.71052   0.79098   0.94595   0.00000  Uiso   1.00
C102   C     0.29612   0.88558   0.91617   0.00000  Uiso   1.00
C103   C     0.31860   0.92064   0.92667   0.00000  Uiso   1.00
C104   C     0.40527   0.92716   0.96017   0.00000  Uiso   1.00
C105   C     0.53706   0.95169   0.01190   0.00000  Uiso   1.00
C106   C     0.31908   0.82171   0.92155   0.00000  Uiso   1.00
C107   C     0.35833   0.82186   0.87549   0.00000  Uiso   1.00
C108   C     0.44529   0.79793   0.85611   0.00000  Uiso   1.00
C109   C     0.46822   0.80256   0.81369   0.00000  Uiso   1.00
C110   C     0.16282   0.82006   0.92280   0.00000  Uiso   1.00
C111   C     0.08540   0.79462   0.94320   0.00000  Uiso   1.00
C112   C     0.94374   0.79773   0.94063   0.00000  Uiso   1.00
C113   C     0.35799   0.85800   0.93836   0.00000  Uiso   1.00
C114   C     0.44464   0.86447   0.97187   0.00000  Uiso   1.00
C115   C     0.46726   0.89953   0.98241   0.00000  Uiso   1.00
H116   H     0.15698   0.89395   0.86341   0.00000  Uiso   1.00
H117   H     0.27135   0.87544   0.79374   0.00000  Uiso   1.00
H118   H     0.91152   0.87213   0.88083   0.00000  Uiso   1.00
H119   H     0.27070   0.94197   0.90949   0.00000  Uiso   1.00
H120   H     0.42539   0.84276   0.72627   0.00000  Uiso   1.00
H121   H     0.66666   0.83579   0.90991   0.00000  Uiso   1.00
H122   H     0.42406   0.98306   0.97035   0.00000  Uiso   1.00
H123   H     0.36725   0.80024   0.93883   0.00000  Uiso   1.00
H124   H     0.49316   0.77659   0.87329   0.00000  Uiso   1.00
H125   H     0.13332   0.77328   0.96037   0.00000  Uiso   1.00
H126   H     0.49250   0.84312   0.98903   0.00000  Uiso   1.00
H127   H     0.60541   0.76253   0.79084   0.00000  Uiso   1.00
H128   H     0.84668   0.75556   0.97448   0.00000  Uiso   1.00
H129   H     0.60409   0.90283   0.03491   0.00000  Uiso   1.00
O130   O     0.59440   0.78877   0.71408   0.00000  Uiso   1.00
O131   O     0.59898   0.77963   0.95501   0.00000  Uiso   1.00
O132   O     0.59268   0.97285   0.03430   0.00000  Uiso   1.00
N133   N     0.45050   0.82713   0.75046   0.00000  Uiso   1.00
N134   N     0.74113   0.82061   0.92215   0.00000  Uiso   1.00
N135   N     0.44921   0.95829   0.97866   0.00000  Uiso   1.00
N136   N     0.54737   0.78396   0.78521   0.00000  Uiso   1.00
N137   N     0.83801   0.77743   0.95689   0.00000  Uiso   1.00
N138   N     0.54609   0.91512   0.01340   0.00000  Uiso   1.00
C139   C     0.29484   0.12752   0.88069   0.00000  Uiso   1.00
C140   C     0.20353   0.15057   0.85329   0.00000  Uiso   1.00
C141   C     0.18074   0.14590   0.81090   0.00000  Uiso   1.00
C142   C     0.09378   0.16981   0.79146   0.00000  Uiso   1.00
C143   C     0.96147   0.20141   0.74554   0.00000  Uiso   1.00
C144   C     0.39905   0.15237   0.90060   0.00000  Uiso   1.00
C145   C     0.54063   0.14921   0.89800   0.00000  Uiso   1.00
C146   C     0.61825   0.17464   0.91839   0.00000  Uiso   1.00
C147   C     0.78948   0.20902   0.94595   0.00000  Uiso   1.00
C148   C     0.20388   0.11442   0.91617   0.00000  Uiso   1.00
C149   C     0.18140   0.07936   0.92667   0.00000  Uiso   1.00
C150   C     0.09473   0.07284   0.96017   0.00000  Uiso   1.00
C151   C     0.96294   0.04831   0.01190   0.00000  Uiso   1.00
C152   C     0.18092   0.17829   0.92155   0.00000  Uiso   1.00
C153   C     0.14167   0.17814   0.87549   0.00000  Uiso   1.00
C154   C     0.05471   0.20207   0.85611   0.00000  Uiso   1.00
C155   C     0.03178   0.19744   0.81369   0.00000  Uiso   1.00
C156   C     0.33718   0.17994   0.92280   0.00000  Uiso   1.00
C157   C     0.41460   0.20538   0.94320   0.00000  Uiso   1.00
C158   C     0.55626   0.20227   0.94063   0.00000  Uiso   1.00
C159   C     0.14201   0.14200   0.93836   0.00000  Uiso   1.00
C160   C     0.05536   0.13553   0.97187   0.00000  Uiso   1.00
C161   C     0.03274   0.10047   0.98241   0.00000  Uiso   1.00
H162   H     0.34302   0.10605   0.86341   0.00000  Uiso   1.00
H163   H     0.22865   0.12456   0.79374   0.00000  Uiso   1.00
H164   H     0.58848   0.12787   0.88083   0.00000  Uiso   1.00
H165   H     0.22930   0.05803   0.90949   0.00000  Uiso   1.00
H166   H     0.07461   0.15724   0.72627   0.00000  Uiso   1.00
H167   H     0.83334   0.16421   0.90991   0.00000  Uiso   1.00
H168   H     0.07594   0.01694   0.97035   0.00000  Uiso   1.00
H169   H     0.13275   0.19976   0.93883   0.00000  Uiso   1.00
H170   H     0.00684   0.22341   0.87329   0.00000  Uiso   1.00
H171   H     0.36668   0.22672   0.96037   0.00000  Uiso   1.00
H172   H     0.00750   0.15688   0.98903   0.00000  Uiso   1.00
H173   H     0.89459   0.23747   0.79084   0.00000  Uiso   1.00
H174   H     0.65332   0.24444   0.97448   0.00000  Uiso   1.00
H175   H     0.89591   0.09717   0.03491   0.00000  Uiso   1.00
O176   O     0.90560   0.21123   0.71408   0.00000  Uiso   1.00
O177   O     0.90102   0.22037   0.95501   0.00000  Uiso   1.00
O178   O     0.90732   0.02715   0.03430   0.00000  Uiso   1.00
N179   N     0.04950   0.17287   0.75046   0.00000  Uiso   1.00
N180   N     0.75887   0.17939   0.92215   0.00000  Uiso   1.00
N181   N     0.05079   0.04171   0.97866   0.00000  Uiso   1.00
N182   N     0.95263   0.21604   0.78521   0.00000  Uiso   1.00
N183   N     0.66199   0.22257   0.95689   0.00000  Uiso   1.00
N184   N     0.95391   0.08488   0.01340   0.00000  Uiso   1.00
C185   C     0.70516   0.62752   0.38069   0.00000  Uiso   1.00
C186   C     0.79647   0.65057   0.35329   0.00000  Uiso   1.00
C187   C     0.81926   0.64590   0.31090   0.00000  Uiso   1.00
C188   C     0.90622   0.66981   0.29146   0.00000  Uiso   1.00
C189   C     0.03853   0.70141   0.24554   0.00000  Uiso   1.00
C190   C     0.60095   0.65237   0.40060   0.00000  Uiso   1.00
C191   C     0.45937   0.64921   0.39800   0.00000  Uiso   1.00
C192   C     0.38175   0.67464   0.41839   0.00000  Uiso   1.00
C193   C     0.21052   0.70902   0.44595   0.00000  Uiso   1.00
C194   C     0.79612   0.61442   0.41617   0.00000  Uiso   1.00
C195   C     0.81860   0.57936   0.42667   0.00000  Uiso   1.00
C196   C     0.90527   0.57284   0.46017   0.00000  Uiso   1.00
C197   C     0.03706   0.54831   0.51190   0.00000  Uiso   1.00
C198   C     0.81908   0.67829   0.42155   0.00000  Uiso   1.00
C199   C     0.85833   0.67814   0.37549   0.00000  Uiso   1.00
C200   C     0.94529   0.70207   0.35611   0.00000  Uiso   1.00
C201   C     0.96822   0.69744   0.31369   0.00000  Uiso   1.00
C202   C     0.66282   0.67994   0.42280   0.00000  Uiso   1.00
C203   C     0.58540   0.70538   0.44320   0.00000  Uiso   1.00
C204   C     0.44374   0.70227   0.44063   0.00000  Uiso   1.00
C205   C     0.85799   0.64200   0.43836   0.00000  Uiso   1.00
C206   C     0.94464   0.63553   0.47187   0.00000  Uiso   1.00
C207   C     0.96726   0.60047   0.48241   0.00000  Uiso   1.00
H208   H     0.65698   0.60605   0.36341   0.00000  Uiso   1.00
H209   H     0.77135   0.62456   0.29374   0.00000  Uiso   1.00
H210   H     0.41152   0.62787   0.38083   0.00000  Uiso   1.00
H211   H     0.77070   0.55803   0.40949   0.00000  Uiso   1.00
H212   H     0.92539   0.65724   0.22627   0.00000  Uiso   1.00
H213   H     0.16666   0.66421   0.40991   0.00000  Uiso   1.00
H214   H     0.92406   0.51694   0.47035   0.00000  Uiso   1.00
H215   H     0.86725   0.69976   0.43883   0.00000  Uiso   1.00
H216   H     0.99316   0.72341   0.37329   0.00000  Uiso   1.00
H217   H     0.63332   0.72672   0.46037   0.00000  Uiso   1.00
H218   H     0.99250   0.65688   0.48903   0.00000  Uiso   1.00
H219   H     0.10541   0.73747   0.29084   0.00000  Uiso   1.00
H220   H     0.34668   0.74444   0.47448   0.00000  Uiso   1.00
H221   H     0.10409   0.59717   0.53491   0.00000  Uiso   1.00
O222   O     0.09440   0.71123   0.21408   0.00000  Uiso   1.00
O223   O     0.09898   0.72037   0.45501   0.00000  Uiso   1.00
O224   O     0.09268   0.52715   0.53430   0.00000  Uiso   1.00
N225   N     0.95050   0.67287   0.25046   0.00000  Uiso   1.00
N226   N     0.24113   0.67939   0.42215   0.00000  Uiso   1.00
N227   N     0.94921   0.54171   0.47866   0.00000  Uiso   1.00
N228   N     0.04737   0.71604   0.28521   0.00000  Uiso   1.00
N229   N     0.33801   0.72257   0.45689   0.00000  Uiso   1.00
N230   N     0.04609   0.58488   0.51340   0.00000  Uiso   1.00
C231   C     0.79484   0.37248   0.38069   0.00000  Uiso   1.00
C232   C     0.70353   0.34943   0.35329   0.00000  Uiso   1.00
C233   C     0.68074   0.35410   0.31090   0.00000  Uiso   1.00
C234   C     0.59378   0.33019   0.29146   0.00000  Uiso   1.00
C235   C     0.46147   0.29859   0.24554   0.00000  Uiso   1.00
C236   C     0.89905   0.34763   0.40060   0.00000  Uiso   1.00
C237   C     0.04063   0.35079   0.39800   0.00000  Uiso   1.00
C238   C     0.11825   0.32536   0.41839   0.00000  Uiso   1.00
C239   C     0.28948   0.29098   0.44595   0.00000  Uiso   1.00
C240   C     0.70388   0.38558   0.41617   0.00000  Uiso   1.00
C241   C     0.68140   0.42064   0.42667   0.00000  Uiso   1.00
C242   C     0.59473   0.42716   0.46017   0.00000  Uiso   1.00
C243   C     0.46294   0.45169   0.51190   0.00000  Uiso   1.00
C244   C     0.68092   0.32171   0.42155   0.00000  Uiso   1.00
C245   C     0.64167   0.32186   0.37549   0.00000  Uiso   1.00
C246   C     0.55471   0.29793   0.35611   0.00000  Uiso   1.00
C247   C     0.53178   0.30256   0.31369   0.00000  Uiso   1.00
C248   C     0.83718   0.32006   0.42280   0.00000  Uiso   1.00
C249   C     0.91460   0.29462   0.44320   0.00000  Uiso   1.00
C250   C     0.05626   0.29773   0.44063   0.00000  Uiso   1.00
C251   C     0.64201   0.35800   0.43836   0.00000  Uiso   1.00
C252   C     0.55536   0.36447   0.47187   0.00000  Uiso   1.00
C253   C     0.53274   0.39953   0.48241   0.00000  Uiso   1.00
H254   H     0.84302   0.39395   0.36341   0.00000  Uiso   1.00
H255   H     0.72865   0.37544   0.29374   0.00000  Uiso   1.00
H256   H     0.08848   0.37213   0.38083   0.00000  Uiso   1.00
H257   H     0.72930   0.44197   0.40949   0.00000  Uiso   1.00
H258   H     0.57461   0.34276   0.22627   0.00000  Uiso   1.00
H259   H     0.33334   0.33579   0.40991   0.00000  Uiso   1.00
H260   H     0.57594   0.48306   0.47035   0.00000  Uiso   1.00
H261   H     0.63275   0.30024   0.43883   0.00000  Uiso   1.00
H262   H     0.50684   0.27659   0.37329   0.00000  Uiso   1.00
H263   H     0.86668   0.27328   0.46037   0.00000  Uiso   1.00
H264   H     0.50750   0.34312   0.48903   0.00000  Uiso   1.00
H265   H     0.39459   0.26253   0.29084   0.00000  Uiso   1.00
H266   H     0.15332   0.25556   0.47448   0.00000  Uiso   1.00
H267   H     0.39591   0.40283   0.53491   0.00000  Uiso   1.00
O268   O     0.40560   0.28877   0.21408   0.00000  Uiso   1.00
O269   O     0.40102   0.27963   0.45501   0.00000  Uiso   1.00
O270   O     0.40732   0.47285   0.53430   0.00000  Uiso   1.00
N271   N     0.54950   0.32713   0.25046   0.00000  Uiso   1.00
N272   N     0.25887   0.32061   0.42215   0.00000  Uiso   1.00
N273   N     0.55079   0.45829   0.47866   0.00000  Uiso   1.00
N274   N     0.45263   0.28396   0.28521   0.00000  Uiso   1.00
N275   N     0.16199   0.27743   0.45689   0.00000  Uiso   1.00
N276   N     0.45391   0.41512   0.51340   0.00000  Uiso   1.00
C277   C     0.79484   0.12752   0.11931   0.00000  Uiso   1.00
C278   C     0.70353   0.15057   0.14671   0.00000  Uiso   1.00
C279   C     0.68074   0.14590   0.18910   0.00000  Uiso   1.00
C280   C     0.59378   0.16981   0.20854   0.00000  Uiso   1.00
C281   C     0.46147   0.20141   0.25446   0.00000  Uiso   1.00
C282   C     0.89905   0.15237   0.09940   0.00000  Uiso   1.00
C283   C     0.04063   0.14921   0.10200   0.00000  Uiso   1.00
C284   C     0.11825   0.17464   0.08161   0.00000  Uiso   1.00
C285   C     0.28948   0.20902   0.05405   0.00000  Uiso   1.00
C286   C     0.70388   0.11442   0.08383   0.00000  Uiso   1.00
C287   C     0.68140   0.07936   0.07333   0.00000  Uiso   1.00
C288   C     0.59473   0.07284   0.03983   0.00000  Uiso   1.00
C289   C     0.46294   0.04831   0.98810   0.00000  Uiso   1.00
C290   C     0.68092   0.17829   0.07845   0.00000  Uiso   1.00
C291   C     0.64167   0.17814   0.12451   0.00000  Uiso   1.00
C292   C     0.55471   0.20207   0.14389   0.00000  Uiso   1.00
C293   C     0.53178   0.19744   0.18631   0.00000  Uiso   1.00
C294   C     0.83718   0.17994   0.07720   0.00000  Uiso   1.00
C295   C     0.91460   0.20538   0.05680   0.00000  Uiso   1.00
C296   C     0.05626   0.20227   0.05937   0.00000  Uiso   1.00
C297   C     0.64201   0.14200   0.06164   0.00000  Uiso   1.00
C298   C     0.55536   0.13553   0.02813   0.00000  Uiso   1.00
C299   C     0.53274   0.10047   0.01759   0.00000  Uiso   1.00
H300   H     0.84302   0.10605   0.13659   0.00000  Uiso   1.00
H301   H     0.72865   0.12456   0.20626   0.00000  Uiso   1.00
H302   H     0.08848   0.12787   0.11917   0.00000  Uiso   1.00
H303   H     0.72930   0.05803   0.09051   0.00000  Uiso   1.00
H304   H     0.57461   0.15724   0.27373   0.00000  Uiso   1.00
H305   H     0.33334   0.16421   0.09009   0.00000  Uiso   1.00
H306   H     0.57594   0.01694   0.02965   0.00000  Uiso   1.00
H307   H     0.63275   0.19976   0.06117   0.00000  Uiso   1.00
H308   H     0.50684   0.22341   0.12671   0.00000  Uiso   1.00
H309   H     0.86668   0.22672   0.03963   0.00000  Uiso   1.00
H310   H     0.50750   0.15688   0.01097   0.00000  Uiso   1.00
H311   H     0.39459   0.23747   0.20916   0.00000  Uiso   1.00
H312   H     0.15332   0.24444   0.02552   0.00000  Uiso   1.00
H313   H     0.39591   0.09717   0.96509   0.00000  Uiso   1.00
O314   O     0.40560   0.21123   0.28592   0.00000  Uiso   1.00
O315   O     0.40102   0.22037   0.04499   0.00000  Uiso   1.00
O316   O     0.40732   0.02715   0.96570   0.00000  Uiso   1.00
N317   N     0.54950   0.17287   0.24954   0.00000  Uiso   1.00
N318   N     0.25887   0.17939   0.07785   0.00000  Uiso   1.00
N319   N     0.55079   0.04171   0.02134   0.00000  Uiso   1.00
N320   N     0.45263   0.21604   0.21479   0.00000  Uiso   1.00
N321   N     0.16199   0.22257   0.04311   0.00000  Uiso   1.00
N322   N     0.45391   0.08488   0.98660   0.00000  Uiso   1.00
C323   C     0.70516   0.87248   0.11931   0.00000  Uiso   1.00
C324   C     0.79647   0.84943   0.14671   0.00000  Uiso   1.00
C325   C     0.81926   0.85410   0.18910   0.00000  Uiso   1.00
C326   C     0.90622   0.83019   0.20854   0.00000  Uiso   1.00
C327   C     0.03853   0.79859   0.25446   0.00000  Uiso   1.00
C328   C     0.60095   0.84763   0.09940   0.00000  Uiso   1.00
C329   C     0.45937   0.85079   0.10200   0.00000  Uiso   1.00
C330   C     0.38175   0.82536   0.08161   0.00000  Uiso   1.00
C331   C     0.21052   0.79098   0.05405   0.00000  Uiso   1.00
C332   C     0.79612   0.88558   0.08383   0.00000  Uiso   1.00
C333   C     0.81860   0.92064   0.07333   0.00000  Uiso   1.00
C334   C     0.90527   0.92716   0.03983   0.00000  Uiso   1.00
C335   C     0.03706   0.95169   0.98810   0.00000  Uiso   1.00
C336   C     0.81908   0.82171   0.07845   0.00000  Uiso   1.00
C337   C     0.85833   0.82186   0.12451   0.00000  Uiso   1.00
C338   C     0.94529   0.79793   0.14389   0.00000  Uiso   1.00
C339   C     0.96822   0.80256   0.18631   0.00000  Uiso   1.00
C340   C     0.66282   0.82006   0.07720   0.00000  Uiso   1.00
C341   C     0.58540   0.79462   0.05680   0.00000  Uiso   1.00
C342   C     0.44374   0.79773   0.05937   0.00000  Uiso   1.00
C343   C     0.85799   0.85800   0.06164   0.00000  Uiso   1.00
C344   C     0.94464   0.86447   0.02813   0.00000  Uiso   1.00
C345   C     0.96726   0.89953   0.01759   0.00000  Uiso   1.00
H346   H     0.65698   0.89395   0.13659   0.00000  Uiso   1.00
H347   H     0.77135   0.87544   0.20626   0.00000  Uiso   1.00
H348   H     0.41152   0.87213   0.11917   0.00000  Uiso   1.00
H349   H     0.77070   0.94197   0.09051   0.00000  Uiso   1.00
H350   H     0.92539   0.84276   0.27373   0.00000  Uiso   1.00
H351   H     0.16666   0.83579   0.09009   0.00000  Uiso   1.00
H352   H     0.92406   0.98306   0.02965   0.00000  Uiso   1.00
H353   H     0.86725   0.80024   0.06117   0.00000  Uiso   1.00
H354   H     0.99316   0.77659   0.12671   0.00000  Uiso   1.00
H355   H     0.63332   0.77328   0.03963   0.00000  Uiso   1.00
H356   H     0.99250   0.84312   0.01097   0.00000  Uiso   1.00
H357   H     0.10541   0.76253   0.20916   0.00000  Uiso   1.00
H358   H     0.34668   0.75556   0.02552   0.00000  Uiso   1.00
H359   H     0.10409   0.90283   0.96509   0.00000  Uiso   1.00
O360   O     0.09440   0.78877   0.28592   0.00000  Uiso   1.00
O361   O     0.09898   0.77963   0.04499   0.00000  Uiso   1.00
O362   O     0.09268   0.97285   0.96570   0.00000  Uiso   1.00
N363   N     0.95050   0.82713   0.24954   0.00000  Uiso   1.00
N364   N     0.24113   0.82061   0.07785   0.00000  Uiso   1.00
N365   N     0.94921   0.95829   0.02134   0.00000  Uiso   1.00
N366   N     0.04737   0.78396   0.21479   0.00000  Uiso   1.00
N367   N     0.33801   0.77743   0.04311   0.00000  Uiso   1.00
N368   N     0.04609   0.91512   0.98660   0.00000  Uiso   1.00
