data_job_03624
_audit_creation_date              2018-12-19
_audit_creation_method            'Materials Studio'
_symmetry_space_group_name_H-M    'P1'
_symmetry_Int_Tables_number       1
_symmetry_cell_setting            triclinic
loop_
_symmetry_equiv_pos_as_xyz
  x,y,z
_cell_length_a                    23.4872
_cell_length_b                    13.7757
_cell_length_c                    23.7647
_cell_angle_alpha                 90.0000
_cell_angle_beta                  90.0000
_cell_angle_gamma                 90.0000
loop_
_atom_site_label
_atom_site_type_symbol
_atom_site_fract_x
_atom_site_fract_y
_atom_site_fract_z
_atom_site_U_iso_or_equiv
_atom_site_adp_type
_atom_site_occupancy
C1     C     0.11348   0.23932   0.85172   0.00000  Uiso   1.00
C2     C     0.12435   0.21341   0.91317   0.00000  Uiso   1.00
C3     C     0.14767   0.27460   0.95343   0.00000  Uiso   1.00
C4     C     0.15417   0.23722   0.00730   0.00000  Uiso   1.00
C5     C     0.17354   0.21144   0.10072   0.00000  Uiso   1.00
C6     C     0.14528   0.16365   0.81700   0.00000  Uiso   1.00
C7     C     0.18619   0.18302   0.77638   0.00000  Uiso   1.00
C8     C     0.21031   0.10375   0.74929   0.00000  Uiso   1.00
C9     C     0.26215   0.00072   0.69337   0.00000  Uiso   1.00
C10    C     0.05031   0.22083   0.84150   0.00000  Uiso   1.00
C11    C     0.01137   0.28827   0.82147   0.00000  Uiso   1.00
C12    C     0.95553   0.25714   0.81499   0.00000  Uiso   1.00
C13    C     0.85991   0.24291   0.79711   0.00000  Uiso   1.00
C14    C     0.08355   0.06411   0.87581   0.00000  Uiso   1.00
C15    C     0.10809   0.11824   0.92626   0.00000  Uiso   1.00
C16    C     0.11456   0.08075   0.98008   0.00000  Uiso   1.00
C17    C     0.13788   0.14189   0.02041   0.00000  Uiso   1.00
C18    C     0.12903   0.06848   0.83008   0.00000  Uiso   1.00
C19    C     0.15308   0.98917   0.80304   0.00000  Uiso   1.00
C20    C     0.19403   0.00841   0.76240   0.00000  Uiso   1.00
C21    C     0.03405   0.12567   0.85458   0.00000  Uiso   1.00
C22    C     0.97826   0.09442   0.84813   0.00000  Uiso   1.00
C23    C     0.93925   0.16180   0.82810   0.00000  Uiso   1.00
H24    H     0.12614   0.31341   0.84153   0.00000  Uiso   1.00
H25    H     0.16025   0.34825   0.94328   0.00000  Uiso   1.00
H26    H     0.19876   0.25667   0.76626   0.00000  Uiso   1.00
H27    H     0.02397   0.36191   0.81135   0.00000  Uiso   1.00
H28    H     0.19092   0.34489   0.06186   0.00000  Uiso   1.00
H29    H     0.27211   0.15180   0.68859   0.00000  Uiso   1.00
H30    H     0.90352   0.37372   0.78366   0.00000  Uiso   1.00
H31    H     0.07090   0.99001   0.88600   0.00000  Uiso   1.00
H32    H     0.10198   0.00710   0.99020   0.00000  Uiso   1.00
H33    H     0.14049   0.91553   0.81318   0.00000  Uiso   1.00
H34    H     0.96570   0.02077   0.85826   0.00000  Uiso   1.00
H35    H     0.14362   0.06800   0.09994   0.00000  Uiso   1.00
H36    H     0.22482   0.87491   0.72667   0.00000  Uiso   1.00
H37    H     0.85623   0.09684   0.82174   0.00000  Uiso   1.00
O38    O     0.18873   0.22351   0.14864   0.00000  Uiso   1.00
O39    O     0.29524   0.97019   0.65891   0.00000  Uiso   1.00
O40    O     0.81166   0.26135   0.78364   0.00000  Uiso   1.00
N41    N     0.17551   0.27738   0.05653   0.00000  Uiso   1.00
N42    N     0.25143   0.09686   0.70755   0.00000  Uiso   1.00
N43    N     0.90683   0.30433   0.79641   0.00000  Uiso   1.00
N44    N     0.15006   0.12839   0.07702   0.00000  Uiso   1.00
N45    N     0.22598   0.94787   0.72804   0.00000  Uiso   1.00
N46    N     0.88138   0.15534   0.81690   0.00000  Uiso   1.00
C47    C     0.38652   0.26068   0.85172   0.00000  Uiso   1.00
C48    C     0.37565   0.28659   0.91317   0.00000  Uiso   1.00
C49    C     0.35233   0.22540   0.95343   0.00000  Uiso   1.00
C50    C     0.34583   0.26278   0.00730   0.00000  Uiso   1.00
C51    C     0.32646   0.28856   0.10072   0.00000  Uiso   1.00
C52    C     0.35472   0.33635   0.81700   0.00000  Uiso   1.00
C53    C     0.31381   0.31698   0.77638   0.00000  Uiso   1.00
C54    C     0.28969   0.39625   0.74929   0.00000  Uiso   1.00
C55    C     0.23785   0.49928   0.69337   0.00000  Uiso   1.00
C56    C     0.44969   0.27917   0.84150   0.00000  Uiso   1.00
C57    C     0.48863   0.21173   0.82147   0.00000  Uiso   1.00
C58    C     0.54447   0.24286   0.81499   0.00000  Uiso   1.00
C59    C     0.64009   0.25709   0.79711   0.00000  Uiso   1.00
C60    C     0.41645   0.43589   0.87581   0.00000  Uiso   1.00
C61    C     0.39191   0.38176   0.92626   0.00000  Uiso   1.00
C62    C     0.38544   0.41925   0.98008   0.00000  Uiso   1.00
C63    C     0.36212   0.35811   0.02041   0.00000  Uiso   1.00
C64    C     0.37097   0.43152   0.83008   0.00000  Uiso   1.00
C65    C     0.34692   0.51083   0.80304   0.00000  Uiso   1.00
C66    C     0.30597   0.49159   0.76240   0.00000  Uiso   1.00
C67    C     0.46595   0.37433   0.85458   0.00000  Uiso   1.00
C68    C     0.52174   0.40558   0.84813   0.00000  Uiso   1.00
C69    C     0.56075   0.33820   0.82810   0.00000  Uiso   1.00
H70    H     0.37386   0.18659   0.84153   0.00000  Uiso   1.00
H71    H     0.33975   0.15175   0.94328   0.00000  Uiso   1.00
H72    H     0.30124   0.24333   0.76626   0.00000  Uiso   1.00
H73    H     0.47603   0.13809   0.81135   0.00000  Uiso   1.00
H74    H     0.30908   0.15511   0.06186   0.00000  Uiso   1.00
H75    H     0.22789   0.34820   0.68859   0.00000  Uiso   1.00
H76    H     0.59648   0.12628   0.78366   0.00000  Uiso   1.00
H77    H     0.42910   0.50999   0.88600   0.00000  Uiso   1.00
H78    H     0.39802   0.49290   0.99020   0.00000  Uiso   1.00
H79    H     0.35951   0.58447   0.81318   0.00000  Uiso   1.00
H80    H     0.53430   0.47923   0.85826   0.00000  Uiso   1.00
H81    H     0.35638   0.43200   0.09994   0.00000  Uiso   1.00
H82    H     0.27518   0.62509   0.72667   0.00000  Uiso   1.00
H83    H     0.64377   0.40316   0.82174   0.00000  Uiso   1.00
O84    O     0.31127   0.27649   0.14864   0.00000  Uiso   1.00
O85    O     0.20476   0.52981   0.65891   0.00000  Uiso   1.00
O86    O     0.68834   0.23865   0.78364   0.00000  Uiso   1.00
N87    N     0.32449   0.22262   0.05653   0.00000  Uiso   1.00
N88    N     0.24857   0.40314   0.70755   0.00000  Uiso   1.00
N89    N     0.59317   0.19567   0.79641   0.00000  Uiso   1.00
N90    N     0.34994   0.37161   0.07702   0.00000  Uiso   1.00
N91    N     0.27402   0.55213   0.72804   0.00000  Uiso   1.00
N92    N     0.61862   0.34466   0.81690   0.00000  Uiso   1.00
C93    C     0.88652   0.73932   0.64828   0.00000  Uiso   1.00
C94    C     0.87565   0.71341   0.58683   0.00000  Uiso   1.00
C95    C     0.85233   0.77460   0.54657   0.00000  Uiso   1.00
C96    C     0.84583   0.73722   0.49270   0.00000  Uiso   1.00
C97    C     0.82646   0.71144   0.39928   0.00000  Uiso   1.00
C98    C     0.85472   0.66365   0.68300   0.00000  Uiso   1.00
C99    C     0.81381   0.68302   0.72362   0.00000  Uiso   1.00
C100   C     0.78969   0.60375   0.75071   0.00000  Uiso   1.00
C101   C     0.73785   0.50072   0.80663   0.00000  Uiso   1.00
C102   C     0.94969   0.72083   0.65850   0.00000  Uiso   1.00
C103   C     0.98863   0.78827   0.67853   0.00000  Uiso   1.00
C104   C     0.04447   0.75714   0.68501   0.00000  Uiso   1.00
C105   C     0.14009   0.74291   0.70289   0.00000  Uiso   1.00
C106   C     0.91645   0.56411   0.62419   0.00000  Uiso   1.00
C107   C     0.89191   0.61824   0.57374   0.00000  Uiso   1.00
C108   C     0.88544   0.58075   0.51992   0.00000  Uiso   1.00
C109   C     0.86212   0.64189   0.47959   0.00000  Uiso   1.00
C110   C     0.87097   0.56848   0.66992   0.00000  Uiso   1.00
C111   C     0.84692   0.48917   0.69696   0.00000  Uiso   1.00
C112   C     0.80597   0.50841   0.73760   0.00000  Uiso   1.00
C113   C     0.96595   0.62567   0.64542   0.00000  Uiso   1.00
C114   C     0.02174   0.59442   0.65187   0.00000  Uiso   1.00
C115   C     0.06075   0.66180   0.67190   0.00000  Uiso   1.00
H116   H     0.87386   0.81341   0.65847   0.00000  Uiso   1.00
H117   H     0.83975   0.84825   0.55672   0.00000  Uiso   1.00
H118   H     0.80124   0.75667   0.73374   0.00000  Uiso   1.00
H119   H     0.97603   0.86191   0.68865   0.00000  Uiso   1.00
H120   H     0.80908   0.84489   0.43814   0.00000  Uiso   1.00
H121   H     0.72789   0.65180   0.81141   0.00000  Uiso   1.00
H122   H     0.09648   0.87372   0.71634   0.00000  Uiso   1.00
H123   H     0.92910   0.49001   0.61400   0.00000  Uiso   1.00
H124   H     0.89802   0.50710   0.50980   0.00000  Uiso   1.00
H125   H     0.85951   0.41553   0.68682   0.00000  Uiso   1.00
H126   H     0.03430   0.52077   0.64174   0.00000  Uiso   1.00
H127   H     0.85638   0.56800   0.40006   0.00000  Uiso   1.00
H128   H     0.77518   0.37491   0.77333   0.00000  Uiso   1.00
H129   H     0.14377   0.59684   0.67826   0.00000  Uiso   1.00
O130   O     0.81127   0.72351   0.35136   0.00000  Uiso   1.00
O131   O     0.70476   0.47019   0.84109   0.00000  Uiso   1.00
O132   O     0.18834   0.76135   0.71636   0.00000  Uiso   1.00
N133   N     0.82449   0.77738   0.44347   0.00000  Uiso   1.00
N134   N     0.74857   0.59686   0.79245   0.00000  Uiso   1.00
N135   N     0.09317   0.80433   0.70359   0.00000  Uiso   1.00
N136   N     0.84994   0.62839   0.42298   0.00000  Uiso   1.00
N137   N     0.77402   0.44787   0.77196   0.00000  Uiso   1.00
N138   N     0.11862   0.65534   0.68310   0.00000  Uiso   1.00
C139   C     0.61348   0.76068   0.64828   0.00000  Uiso   1.00
C140   C     0.62435   0.78659   0.58683   0.00000  Uiso   1.00
C141   C     0.64767   0.72540   0.54657   0.00000  Uiso   1.00
C142   C     0.65417   0.76278   0.49270   0.00000  Uiso   1.00
C143   C     0.67354   0.78856   0.39928   0.00000  Uiso   1.00
C144   C     0.64528   0.83635   0.68300   0.00000  Uiso   1.00
C145   C     0.68619   0.81698   0.72362   0.00000  Uiso   1.00
C146   C     0.71031   0.89625   0.75071   0.00000  Uiso   1.00
C147   C     0.76215   0.99928   0.80663   0.00000  Uiso   1.00
C148   C     0.55031   0.77917   0.65850   0.00000  Uiso   1.00
C149   C     0.51137   0.71173   0.67853   0.00000  Uiso   1.00
C150   C     0.45553   0.74286   0.68501   0.00000  Uiso   1.00
C151   C     0.35991   0.75709   0.70289   0.00000  Uiso   1.00
C152   C     0.58355   0.93589   0.62419   0.00000  Uiso   1.00
C153   C     0.60809   0.88176   0.57374   0.00000  Uiso   1.00
C154   C     0.61456   0.91925   0.51992   0.00000  Uiso   1.00
C155   C     0.63788   0.85811   0.47959   0.00000  Uiso   1.00
C156   C     0.62903   0.93152   0.66992   0.00000  Uiso   1.00
C157   C     0.65308   0.01083   0.69696   0.00000  Uiso   1.00
C158   C     0.69403   0.99159   0.73760   0.00000  Uiso   1.00
C159   C     0.53405   0.87433   0.64542   0.00000  Uiso   1.00
C160   C     0.47826   0.90558   0.65187   0.00000  Uiso   1.00
C161   C     0.43925   0.83820   0.67190   0.00000  Uiso   1.00
H162   H     0.62614   0.68659   0.65847   0.00000  Uiso   1.00
H163   H     0.66025   0.65175   0.55672   0.00000  Uiso   1.00
H164   H     0.69876   0.74333   0.73374   0.00000  Uiso   1.00
H165   H     0.52397   0.63809   0.68865   0.00000  Uiso   1.00
H166   H     0.69092   0.65511   0.43814   0.00000  Uiso   1.00
H167   H     0.77211   0.84820   0.81141   0.00000  Uiso   1.00
H168   H     0.40352   0.62628   0.71634   0.00000  Uiso   1.00
H169   H     0.57090   0.00999   0.61400   0.00000  Uiso   1.00
H170   H     0.60198   0.99290   0.50980   0.00000  Uiso   1.00
H171   H     0.64049   0.08447   0.68682   0.00000  Uiso   1.00
H172   H     0.46570   0.97923   0.64174   0.00000  Uiso   1.00
H173   H     0.64362   0.93200   0.40006   0.00000  Uiso   1.00
H174   H     0.72482   0.12509   0.77333   0.00000  Uiso   1.00
H175   H     0.35623   0.90316   0.67826   0.00000  Uiso   1.00
O176   O     0.68873   0.77649   0.35136   0.00000  Uiso   1.00
O177   O     0.79524   0.02981   0.84109   0.00000  Uiso   1.00
O178   O     0.31166   0.73865   0.71636   0.00000  Uiso   1.00
N179   N     0.67551   0.72262   0.44347   0.00000  Uiso   1.00
N180   N     0.75143   0.90314   0.79245   0.00000  Uiso   1.00
N181   N     0.40683   0.69567   0.70359   0.00000  Uiso   1.00
N182   N     0.65006   0.87161   0.42298   0.00000  Uiso   1.00
N183   N     0.72598   0.05213   0.77196   0.00000  Uiso   1.00
N184   N     0.38138   0.84466   0.68310   0.00000  Uiso   1.00
C185   C     0.88652   0.76068   0.14828   0.00000  Uiso   1.00
C186   C     0.87565   0.78659   0.08683   0.00000  Uiso   1.00
C187   C     0.85233   0.72540   0.04657   0.00000  Uiso   1.00
C188   C     0.84583   0.76278   0.99270   0.00000  Uiso   1.00
C189   C     0.82646   0.78856   0.89928   0.00000  Uiso   1.00
C190   C     0.85472   0.83635   0.18300   0.00000  Uiso   1.00
C191   C     0.81381   0.81698   0.22362   0.00000  Uiso   1.00
C192   C     0.78969   0.89625   0.25071   0.00000  Uiso   1.00
C193   C     0.73785   0.99928   0.30663   0.00000  Uiso   1.00
C194   C     0.94969   0.77917   0.15850   0.00000  Uiso   1.00
C195   C     0.98863   0.71173   0.17853   0.00000  Uiso   1.00
C196   C     0.04447   0.74286   0.18501   0.00000  Uiso   1.00
C197   C     0.14009   0.75709   0.20289   0.00000  Uiso   1.00
C198   C     0.91645   0.93589   0.12419   0.00000  Uiso   1.00
C199   C     0.89191   0.88176   0.07374   0.00000  Uiso   1.00
C200   C     0.88544   0.91925   0.01992   0.00000  Uiso   1.00
C201   C     0.86212   0.85811   0.97959   0.00000  Uiso   1.00
C202   C     0.87097   0.93152   0.16992   0.00000  Uiso   1.00
C203   C     0.84692   0.01083   0.19696   0.00000  Uiso   1.00
C204   C     0.80597   0.99159   0.23760   0.00000  Uiso   1.00
C205   C     0.96595   0.87433   0.14542   0.00000  Uiso   1.00
C206   C     0.02174   0.90558   0.15187   0.00000  Uiso   1.00
C207   C     0.06075   0.83820   0.17190   0.00000  Uiso   1.00
H208   H     0.87386   0.68659   0.15847   0.00000  Uiso   1.00
H209   H     0.83975   0.65175   0.05672   0.00000  Uiso   1.00
H210   H     0.80124   0.74333   0.23374   0.00000  Uiso   1.00
H211   H     0.97603   0.63809   0.18865   0.00000  Uiso   1.00
H212   H     0.80908   0.65511   0.93814   0.00000  Uiso   1.00
H213   H     0.72789   0.84820   0.31141   0.00000  Uiso   1.00
H214   H     0.09648   0.62628   0.21634   0.00000  Uiso   1.00
H215   H     0.92910   0.00999   0.11400   0.00000  Uiso   1.00
H216   H     0.89802   0.99290   0.00980   0.00000  Uiso   1.00
H217   H     0.85951   0.08447   0.18682   0.00000  Uiso   1.00
H218   H     0.03430   0.97923   0.14174   0.00000  Uiso   1.00
H219   H     0.85638   0.93200   0.90006   0.00000  Uiso   1.00
H220   H     0.77518   0.12509   0.27333   0.00000  Uiso   1.00
H221   H     0.14377   0.90316   0.17826   0.00000  Uiso   1.00
O222   O     0.81127   0.77649   0.85136   0.00000  Uiso   1.00
O223   O     0.70476   0.02981   0.34109   0.00000  Uiso   1.00
O224   O     0.18834   0.73865   0.21636   0.00000  Uiso   1.00
N225   N     0.82449   0.72262   0.94347   0.00000  Uiso   1.00
N226   N     0.74857   0.90314   0.29245   0.00000  Uiso   1.00
N227   N     0.09317   0.69567   0.20359   0.00000  Uiso   1.00
N228   N     0.84994   0.87161   0.92298   0.00000  Uiso   1.00
N229   N     0.77402   0.05213   0.27196   0.00000  Uiso   1.00
N230   N     0.11862   0.84466   0.18310   0.00000  Uiso   1.00
C231   C     0.61348   0.73932   0.14828   0.00000  Uiso   1.00
C232   C     0.62435   0.71341   0.08683   0.00000  Uiso   1.00
C233   C     0.64767   0.77460   0.04657   0.00000  Uiso   1.00
C234   C     0.65417   0.73722   0.99270   0.00000  Uiso   1.00
C235   C     0.67354   0.71144   0.89928   0.00000  Uiso   1.00
C236   C     0.64528   0.66365   0.18300   0.00000  Uiso   1.00
C237   C     0.68619   0.68302   0.22362   0.00000  Uiso   1.00
C238   C     0.71031   0.60375   0.25071   0.00000  Uiso   1.00
C239   C     0.76215   0.50072   0.30663   0.00000  Uiso   1.00
C240   C     0.55031   0.72083   0.15850   0.00000  Uiso   1.00
C241   C     0.51137   0.78827   0.17853   0.00000  Uiso   1.00
C242   C     0.45553   0.75714   0.18501   0.00000  Uiso   1.00
C243   C     0.35991   0.74291   0.20289   0.00000  Uiso   1.00
C244   C     0.58355   0.56411   0.12419   0.00000  Uiso   1.00
C245   C     0.60809   0.61824   0.07374   0.00000  Uiso   1.00
C246   C     0.61456   0.58075   0.01992   0.00000  Uiso   1.00
C247   C     0.63788   0.64189   0.97959   0.00000  Uiso   1.00
C248   C     0.62903   0.56848   0.16992   0.00000  Uiso   1.00
C249   C     0.65308   0.48917   0.19696   0.00000  Uiso   1.00
C250   C     0.69403   0.50841   0.23760   0.00000  Uiso   1.00
C251   C     0.53405   0.62567   0.14542   0.00000  Uiso   1.00
C252   C     0.47826   0.59442   0.15187   0.00000  Uiso   1.00
C253   C     0.43925   0.66180   0.17190   0.00000  Uiso   1.00
H254   H     0.62614   0.81341   0.15847   0.00000  Uiso   1.00
H255   H     0.66025   0.84825   0.05672   0.00000  Uiso   1.00
H256   H     0.69876   0.75667   0.23374   0.00000  Uiso   1.00
H257   H     0.52397   0.86191   0.18865   0.00000  Uiso   1.00
H258   H     0.69092   0.84489   0.93814   0.00000  Uiso   1.00
H259   H     0.77211   0.65180   0.31141   0.00000  Uiso   1.00
H260   H     0.40352   0.87372   0.21634   0.00000  Uiso   1.00
H261   H     0.57090   0.49001   0.11400   0.00000  Uiso   1.00
H262   H     0.60198   0.50710   0.00980   0.00000  Uiso   1.00
H263   H     0.64049   0.41553   0.18682   0.00000  Uiso   1.00
H264   H     0.46570   0.52077   0.14174   0.00000  Uiso   1.00
H265   H     0.64362   0.56800   0.90006   0.00000  Uiso   1.00
H266   H     0.72482   0.37491   0.27333   0.00000  Uiso   1.00
H267   H     0.35623   0.59684   0.17826   0.00000  Uiso   1.00
O268   O     0.68873   0.72351   0.85136   0.00000  Uiso   1.00
O269   O     0.79524   0.47019   0.34109   0.00000  Uiso   1.00
O270   O     0.31166   0.76135   0.21636   0.00000  Uiso   1.00
N271   N     0.67551   0.77738   0.94347   0.00000  Uiso   1.00
N272   N     0.75143   0.59686   0.29245   0.00000  Uiso   1.00
N273   N     0.40683   0.80433   0.20359   0.00000  Uiso   1.00
N274   N     0.65006   0.62839   0.92298   0.00000  Uiso   1.00
N275   N     0.72598   0.44787   0.27196   0.00000  Uiso   1.00
N276   N     0.38138   0.65534   0.18310   0.00000  Uiso   1.00
C277   C     0.11348   0.26068   0.35172   0.00000  Uiso   1.00
C278   C     0.12435   0.28659   0.41317   0.00000  Uiso   1.00
C279   C     0.14767   0.22540   0.45343   0.00000  Uiso   1.00
C280   C     0.15417   0.26278   0.50730   0.00000  Uiso   1.00
C281   C     0.17354   0.28856   0.60072   0.00000  Uiso   1.00
C282   C     0.14528   0.33635   0.31700   0.00000  Uiso   1.00
C283   C     0.18619   0.31698   0.27638   0.00000  Uiso   1.00
C284   C     0.21031   0.39625   0.24929   0.00000  Uiso   1.00
C285   C     0.26215   0.49928   0.19337   0.00000  Uiso   1.00
C286   C     0.05031   0.27917   0.34150   0.00000  Uiso   1.00
C287   C     0.01137   0.21173   0.32147   0.00000  Uiso   1.00
C288   C     0.95553   0.24286   0.31499   0.00000  Uiso   1.00
C289   C     0.85991   0.25709   0.29711   0.00000  Uiso   1.00
C290   C     0.08355   0.43589   0.37581   0.00000  Uiso   1.00
C291   C     0.10809   0.38176   0.42626   0.00000  Uiso   1.00
C292   C     0.11456   0.41925   0.48008   0.00000  Uiso   1.00
C293   C     0.13788   0.35811   0.52041   0.00000  Uiso   1.00
C294   C     0.12903   0.43152   0.33008   0.00000  Uiso   1.00
C295   C     0.15308   0.51083   0.30304   0.00000  Uiso   1.00
C296   C     0.19403   0.49159   0.26240   0.00000  Uiso   1.00
C297   C     0.03405   0.37433   0.35458   0.00000  Uiso   1.00
C298   C     0.97826   0.40558   0.34813   0.00000  Uiso   1.00
C299   C     0.93925   0.33820   0.32810   0.00000  Uiso   1.00
H300   H     0.12614   0.18659   0.34153   0.00000  Uiso   1.00
H301   H     0.16025   0.15175   0.44328   0.00000  Uiso   1.00
H302   H     0.19876   0.24333   0.26626   0.00000  Uiso   1.00
H303   H     0.02397   0.13809   0.31135   0.00000  Uiso   1.00
H304   H     0.19092   0.15511   0.56186   0.00000  Uiso   1.00
H305   H     0.27211   0.34820   0.18859   0.00000  Uiso   1.00
H306   H     0.90352   0.12628   0.28366   0.00000  Uiso   1.00
H307   H     0.07090   0.50999   0.38600   0.00000  Uiso   1.00
H308   H     0.10198   0.49290   0.49020   0.00000  Uiso   1.00
H309   H     0.14049   0.58447   0.31318   0.00000  Uiso   1.00
H310   H     0.96570   0.47923   0.35826   0.00000  Uiso   1.00
H311   H     0.14362   0.43200   0.59994   0.00000  Uiso   1.00
H312   H     0.22482   0.62509   0.22667   0.00000  Uiso   1.00
H313   H     0.85623   0.40316   0.32174   0.00000  Uiso   1.00
O314   O     0.18873   0.27649   0.64864   0.00000  Uiso   1.00
O315   O     0.29524   0.52981   0.15891   0.00000  Uiso   1.00
O316   O     0.81166   0.23865   0.28364   0.00000  Uiso   1.00
N317   N     0.17551   0.22262   0.55653   0.00000  Uiso   1.00
N318   N     0.25143   0.40314   0.20755   0.00000  Uiso   1.00
N319   N     0.90683   0.19567   0.29641   0.00000  Uiso   1.00
N320   N     0.15006   0.37161   0.57702   0.00000  Uiso   1.00
N321   N     0.22598   0.55213   0.22804   0.00000  Uiso   1.00
N322   N     0.88138   0.34466   0.31690   0.00000  Uiso   1.00
C323   C     0.38652   0.23932   0.35172   0.00000  Uiso   1.00
C324   C     0.37565   0.21341   0.41317   0.00000  Uiso   1.00
C325   C     0.35233   0.27460   0.45343   0.00000  Uiso   1.00
C326   C     0.34583   0.23722   0.50730   0.00000  Uiso   1.00
C327   C     0.32646   0.21144   0.60072   0.00000  Uiso   1.00
C328   C     0.35472   0.16365   0.31700   0.00000  Uiso   1.00
C329   C     0.31381   0.18302   0.27638   0.00000  Uiso   1.00
C330   C     0.28969   0.10375   0.24929   0.00000  Uiso   1.00
C331   C     0.23785   0.00072   0.19337   0.00000  Uiso   1.00
C332   C     0.44969   0.22083   0.34150   0.00000  Uiso   1.00
C333   C     0.48863   0.28827   0.32147   0.00000  Uiso   1.00
C334   C     0.54447   0.25714   0.31499   0.00000  Uiso   1.00
C335   C     0.64009   0.24291   0.29711   0.00000  Uiso   1.00
C336   C     0.41645   0.06411   0.37581   0.00000  Uiso   1.00
C337   C     0.39191   0.11824   0.42626   0.00000  Uiso   1.00
C338   C     0.38544   0.08075   0.48008   0.00000  Uiso   1.00
C339   C     0.36212   0.14189   0.52041   0.00000  Uiso   1.00
C340   C     0.37097   0.06848   0.33008   0.00000  Uiso   1.00
C341   C     0.34692   0.98917   0.30304   0.00000  Uiso   1.00
C342   C     0.30597   0.00841   0.26240   0.00000  Uiso   1.00
C343   C     0.46595   0.12567   0.35458   0.00000  Uiso   1.00
C344   C     0.52174   0.09442   0.34813   0.00000  Uiso   1.00
C345   C     0.56075   0.16180   0.32810   0.00000  Uiso   1.00
H346   H     0.37386   0.31341   0.34153   0.00000  Uiso   1.00
H347   H     0.33975   0.34825   0.44328   0.00000  Uiso   1.00
H348   H     0.30124   0.25667   0.26626   0.00000  Uiso   1.00
H349   H     0.47603   0.36191   0.31135   0.00000  Uiso   1.00
H350   H     0.30908   0.34489   0.56186   0.00000  Uiso   1.00
H351   H     0.22789   0.15180   0.18859   0.00000  Uiso   1.00
H352   H     0.59648   0.37372   0.28366   0.00000  Uiso   1.00
H353   H     0.42910   0.99001   0.38600   0.00000  Uiso   1.00
H354   H     0.39802   0.00710   0.49020   0.00000  Uiso   1.00
H355   H     0.35951   0.91553   0.31318   0.00000  Uiso   1.00
H356   H     0.53430   0.02077   0.35826   0.00000  Uiso   1.00
H357   H     0.35638   0.06800   0.59994   0.00000  Uiso   1.00
H358   H     0.27518   0.87491   0.22667   0.00000  Uiso   1.00
H359   H     0.64377   0.09684   0.32174   0.00000  Uiso   1.00
O360   O     0.31127   0.22351   0.64864   0.00000  Uiso   1.00
O361   O     0.20476   0.97019   0.15891   0.00000  Uiso   1.00
O362   O     0.68834   0.26135   0.28364   0.00000  Uiso   1.00
N363   N     0.32449   0.27738   0.55653   0.00000  Uiso   1.00
N364   N     0.24857   0.09686   0.20755   0.00000  Uiso   1.00
N365   N     0.59317   0.30433   0.29641   0.00000  Uiso   1.00
N366   N     0.34994   0.12839   0.57702   0.00000  Uiso   1.00
N367   N     0.27402   0.94787   0.22804   0.00000  Uiso   1.00
N368   N     0.61862   0.15534   0.31690   0.00000  Uiso   1.00
