data_job_03078
_audit_creation_date              2018-12-19
_audit_creation_method            'Materials Studio'
_symmetry_space_group_name_H-M    'P1'
_symmetry_Int_Tables_number       1
_symmetry_cell_setting            triclinic
loop_
_symmetry_equiv_pos_as_xyz
  x,y,z
_cell_length_a                    16.9522
_cell_length_b                    12.7113
_cell_length_c                    17.1207
_cell_angle_alpha                 90.0000
_cell_angle_beta                  90.0000
_cell_angle_gamma                 90.0000
loop_
_atom_site_label
_atom_site_type_symbol
_atom_site_fract_x
_atom_site_fract_y
_atom_site_fract_z
_atom_site_U_iso_or_equiv
_atom_site_adp_type
_atom_site_occupancy
C1     C     0.96777   0.72064   0.89742   0.00000  Uiso   1.00
C2     C     0.89583   0.71882   0.84397   0.00000  Uiso   1.00
C3     C     0.89563   0.74284   0.76490   0.00000  Uiso   1.00
C4     C     0.82376   0.73653   0.72629   0.00000  Uiso   1.00
C5     C     0.72257   0.73820   0.63735   0.00000  Uiso   1.00
C6     C     0.94713   0.79502   0.96425   0.00000  Uiso   1.00
C7     C     0.99007   0.88310   0.98632   0.00000  Uiso   1.00
C8     C     0.96138   0.94092   0.04899   0.00000  Uiso   1.00
C9     C     0.93986   0.06085   0.14682   0.00000  Uiso   1.00
C10    C     0.97313   0.61115   0.93343   0.00000  Uiso   1.00
C11    C     0.03794   0.54464   0.92960   0.00000  Uiso   1.00
C12    C     0.03115   0.44768   0.96632   0.00000  Uiso   1.00
C13    C     0.04999   0.28213   0.01630   0.00000  Uiso   1.00
C14    C     0.84049   0.66672   0.96948   0.00000  Uiso   1.00
C15    C     0.82670   0.68953   0.88311   0.00000  Uiso   1.00
C16    C     0.75481   0.68318   0.84461   0.00000  Uiso   1.00
C17    C     0.75450   0.70718   0.76550   0.00000  Uiso   1.00
C18    C     0.87799   0.76573   0.00339   0.00000  Uiso   1.00
C19    C     0.84924   0.82344   0.06604   0.00000  Uiso   1.00
C20    C     0.89212   0.91158   0.08819   0.00000  Uiso   1.00
C21    C     0.90399   0.58186   0.97256   0.00000  Uiso   1.00
C22    C     0.89710   0.48498   0.00931   0.00000  Uiso   1.00
C23    C     0.96189   0.41834   0.00553   0.00000  Uiso   1.00
H24    H     0.02160   0.74345   0.86696   0.00000  Uiso   1.00
H25    H     0.94915   0.76551   0.73463   0.00000  Uiso   1.00
H26    H     0.04357   0.90574   0.95603   0.00000  Uiso   1.00
H27    H     0.09143   0.56734   0.89931   0.00000  Uiso   1.00
H28    H     0.83833   0.77709   0.60519   0.00000  Uiso   1.00
H29    H     0.03744   0.07275   0.07203   0.00000  Uiso   1.00
H30    H     0.13836   0.35916   0.95243   0.00000  Uiso   1.00
H31    H     0.78666   0.64392   0.99995   0.00000  Uiso   1.00
H32    H     0.70131   0.66051   0.87492   0.00000  Uiso   1.00
H33    H     0.79574   0.80074   0.09631   0.00000  Uiso   1.00
H34    H     0.84359   0.46234   0.03959   0.00000  Uiso   1.00
H35    H     0.63718   0.69188   0.71905   0.00000  Uiso   1.00
H36    H     0.83629   0.98753   0.18590   0.00000  Uiso   1.00
H37    H     0.93720   0.27395   0.06629   0.00000  Uiso   1.00
O38    O     0.68585   0.74723   0.57748   0.00000  Uiso   1.00
O39    O     0.94708   0.13511   0.18997   0.00000  Uiso   1.00
O40    O     0.07948   0.19890   0.03304   0.00000  Uiso   1.00
N41    N     0.80271   0.75474   0.64914   0.00000  Uiso   1.00
N42    N     0.98885   0.03117   0.08561   0.00000  Uiso   1.00
N43    N     0.08321   0.36404   0.97380   0.00000  Uiso   1.00
N44    N     0.69447   0.70888   0.71041   0.00000  Uiso   1.00
N45    N     0.88061   0.98531   0.14687   0.00000  Uiso   1.00
N46    N     0.97497   0.31818   0.03507   0.00000  Uiso   1.00
C47    C     0.03223   0.27936   0.39742   0.00000  Uiso   1.00
C48    C     0.10417   0.28118   0.34397   0.00000  Uiso   1.00
C49    C     0.10437   0.25716   0.26490   0.00000  Uiso   1.00
C50    C     0.17624   0.26347   0.22629   0.00000  Uiso   1.00
C51    C     0.27743   0.26180   0.13735   0.00000  Uiso   1.00
C52    C     0.05287   0.20498   0.46425   0.00000  Uiso   1.00
C53    C     0.00993   0.11690   0.48632   0.00000  Uiso   1.00
C54    C     0.03862   0.05908   0.54899   0.00000  Uiso   1.00
C55    C     0.06014   0.93915   0.64682   0.00000  Uiso   1.00
C56    C     0.02687   0.38885   0.43343   0.00000  Uiso   1.00
C57    C     0.96206   0.45536   0.42960   0.00000  Uiso   1.00
C58    C     0.96885   0.55232   0.46632   0.00000  Uiso   1.00
C59    C     0.95001   0.71787   0.51630   0.00000  Uiso   1.00
C60    C     0.15951   0.33328   0.46948   0.00000  Uiso   1.00
C61    C     0.17330   0.31047   0.38311   0.00000  Uiso   1.00
C62    C     0.24519   0.31682   0.34461   0.00000  Uiso   1.00
C63    C     0.24550   0.29282   0.26550   0.00000  Uiso   1.00
C64    C     0.12201   0.23427   0.50339   0.00000  Uiso   1.00
C65    C     0.15076   0.17656   0.56604   0.00000  Uiso   1.00
C66    C     0.10788   0.08842   0.58819   0.00000  Uiso   1.00
C67    C     0.09601   0.41814   0.47256   0.00000  Uiso   1.00
C68    C     0.10290   0.51502   0.50931   0.00000  Uiso   1.00
C69    C     0.03811   0.58166   0.50553   0.00000  Uiso   1.00
H70    H     0.97840   0.25655   0.36696   0.00000  Uiso   1.00
H71    H     0.05085   0.23449   0.23463   0.00000  Uiso   1.00
H72    H     0.95643   0.09426   0.45603   0.00000  Uiso   1.00
H73    H     0.90857   0.43266   0.39931   0.00000  Uiso   1.00
H74    H     0.16167   0.22291   0.10519   0.00000  Uiso   1.00
H75    H     0.96256   0.92725   0.57203   0.00000  Uiso   1.00
H76    H     0.86164   0.64084   0.45243   0.00000  Uiso   1.00
H77    H     0.21334   0.35608   0.49995   0.00000  Uiso   1.00
H78    H     0.29869   0.33949   0.37492   0.00000  Uiso   1.00
H79    H     0.20426   0.19926   0.59631   0.00000  Uiso   1.00
H80    H     0.15641   0.53766   0.53959   0.00000  Uiso   1.00
H81    H     0.36282   0.30812   0.21905   0.00000  Uiso   1.00
H82    H     0.16371   0.01247   0.68590   0.00000  Uiso   1.00
H83    H     0.06280   0.72605   0.56629   0.00000  Uiso   1.00
O84    O     0.31415   0.25277   0.07748   0.00000  Uiso   1.00
O85    O     0.05292   0.86489   0.68997   0.00000  Uiso   1.00
O86    O     0.92052   0.80110   0.53304   0.00000  Uiso   1.00
N87    N     0.19729   0.24526   0.14914   0.00000  Uiso   1.00
N88    N     0.01115   0.96883   0.58561   0.00000  Uiso   1.00
N89    N     0.91679   0.63596   0.47380   0.00000  Uiso   1.00
N90    N     0.30553   0.29112   0.21041   0.00000  Uiso   1.00
N91    N     0.11939   0.01469   0.64687   0.00000  Uiso   1.00
N92    N     0.02503   0.68182   0.53507   0.00000  Uiso   1.00
C93    C     0.46777   0.77936   0.89742   0.00000  Uiso   1.00
C94    C     0.39583   0.78118   0.84397   0.00000  Uiso   1.00
C95    C     0.39563   0.75716   0.76490   0.00000  Uiso   1.00
C96    C     0.32376   0.76347   0.72629   0.00000  Uiso   1.00
C97    C     0.22257   0.76180   0.63735   0.00000  Uiso   1.00
C98    C     0.44713   0.70498   0.96425   0.00000  Uiso   1.00
C99    C     0.49007   0.61690   0.98632   0.00000  Uiso   1.00
C100   C     0.46138   0.55908   0.04899   0.00000  Uiso   1.00
C101   C     0.43986   0.43915   0.14682   0.00000  Uiso   1.00
C102   C     0.47313   0.88885   0.93343   0.00000  Uiso   1.00
C103   C     0.53794   0.95536   0.92960   0.00000  Uiso   1.00
C104   C     0.53115   0.05232   0.96632   0.00000  Uiso   1.00
C105   C     0.54999   0.21787   0.01630   0.00000  Uiso   1.00
C106   C     0.34049   0.83328   0.96948   0.00000  Uiso   1.00
C107   C     0.32670   0.81047   0.88311   0.00000  Uiso   1.00
C108   C     0.25481   0.81682   0.84461   0.00000  Uiso   1.00
C109   C     0.25450   0.79282   0.76550   0.00000  Uiso   1.00
C110   C     0.37799   0.73427   0.00339   0.00000  Uiso   1.00
C111   C     0.34924   0.67656   0.06604   0.00000  Uiso   1.00
C112   C     0.39212   0.58842   0.08819   0.00000  Uiso   1.00
C113   C     0.40399   0.91814   0.97256   0.00000  Uiso   1.00
C114   C     0.39710   0.01502   0.00931   0.00000  Uiso   1.00
C115   C     0.46189   0.08166   0.00553   0.00000  Uiso   1.00
H116   H     0.52160   0.75655   0.86696   0.00000  Uiso   1.00
H117   H     0.44915   0.73449   0.73463   0.00000  Uiso   1.00
H118   H     0.54357   0.59426   0.95603   0.00000  Uiso   1.00
H119   H     0.59143   0.93266   0.89931   0.00000  Uiso   1.00
H120   H     0.33833   0.72291   0.60519   0.00000  Uiso   1.00
H121   H     0.53744   0.42725   0.07203   0.00000  Uiso   1.00
H122   H     0.63836   0.14084   0.95243   0.00000  Uiso   1.00
H123   H     0.28666   0.85608   0.99995   0.00000  Uiso   1.00
H124   H     0.20131   0.83949   0.87492   0.00000  Uiso   1.00
H125   H     0.29574   0.69926   0.09631   0.00000  Uiso   1.00
H126   H     0.34359   0.03766   0.03959   0.00000  Uiso   1.00
H127   H     0.13718   0.80812   0.71905   0.00000  Uiso   1.00
H128   H     0.33629   0.51247   0.18590   0.00000  Uiso   1.00
H129   H     0.43720   0.22605   0.06629   0.00000  Uiso   1.00
O130   O     0.18585   0.75277   0.57748   0.00000  Uiso   1.00
O131   O     0.44708   0.36489   0.18997   0.00000  Uiso   1.00
O132   O     0.57948   0.30110   0.03304   0.00000  Uiso   1.00
N133   N     0.30271   0.74526   0.64914   0.00000  Uiso   1.00
N134   N     0.48885   0.46883   0.08561   0.00000  Uiso   1.00
N135   N     0.58321   0.13596   0.97380   0.00000  Uiso   1.00
N136   N     0.19447   0.79112   0.71041   0.00000  Uiso   1.00
N137   N     0.38061   0.51469   0.14687   0.00000  Uiso   1.00
N138   N     0.47497   0.18182   0.03507   0.00000  Uiso   1.00
C139   C     0.53223   0.22064   0.39742   0.00000  Uiso   1.00
C140   C     0.60417   0.21882   0.34397   0.00000  Uiso   1.00
C141   C     0.60437   0.24284   0.26490   0.00000  Uiso   1.00
C142   C     0.67624   0.23653   0.22629   0.00000  Uiso   1.00
C143   C     0.77743   0.23820   0.13735   0.00000  Uiso   1.00
C144   C     0.55287   0.29502   0.46425   0.00000  Uiso   1.00
C145   C     0.50993   0.38310   0.48632   0.00000  Uiso   1.00
C146   C     0.53862   0.44092   0.54899   0.00000  Uiso   1.00
C147   C     0.56014   0.56085   0.64682   0.00000  Uiso   1.00
C148   C     0.52687   0.11115   0.43343   0.00000  Uiso   1.00
C149   C     0.46206   0.04464   0.42960   0.00000  Uiso   1.00
C150   C     0.46885   0.94768   0.46632   0.00000  Uiso   1.00
C151   C     0.45001   0.78213   0.51630   0.00000  Uiso   1.00
C152   C     0.65951   0.16672   0.46948   0.00000  Uiso   1.00
C153   C     0.67330   0.18953   0.38311   0.00000  Uiso   1.00
C154   C     0.74519   0.18318   0.34461   0.00000  Uiso   1.00
C155   C     0.74550   0.20718   0.26550   0.00000  Uiso   1.00
C156   C     0.62201   0.26573   0.50339   0.00000  Uiso   1.00
C157   C     0.65076   0.32344   0.56604   0.00000  Uiso   1.00
C158   C     0.60788   0.41158   0.58819   0.00000  Uiso   1.00
C159   C     0.59601   0.08186   0.47256   0.00000  Uiso   1.00
C160   C     0.60290   0.98498   0.50931   0.00000  Uiso   1.00
C161   C     0.53811   0.91834   0.50553   0.00000  Uiso   1.00
H162   H     0.47840   0.24345   0.36696   0.00000  Uiso   1.00
H163   H     0.55085   0.26551   0.23463   0.00000  Uiso   1.00
H164   H     0.45643   0.40574   0.45603   0.00000  Uiso   1.00
H165   H     0.40857   0.06734   0.39931   0.00000  Uiso   1.00
H166   H     0.66167   0.27709   0.10519   0.00000  Uiso   1.00
H167   H     0.46256   0.57275   0.57203   0.00000  Uiso   1.00
H168   H     0.36164   0.85916   0.45243   0.00000  Uiso   1.00
H169   H     0.71334   0.14392   0.49995   0.00000  Uiso   1.00
H170   H     0.79869   0.16051   0.37492   0.00000  Uiso   1.00
H171   H     0.70426   0.30074   0.59631   0.00000  Uiso   1.00
H172   H     0.65641   0.96234   0.53959   0.00000  Uiso   1.00
H173   H     0.86282   0.19188   0.21905   0.00000  Uiso   1.00
H174   H     0.66371   0.48753   0.68590   0.00000  Uiso   1.00
H175   H     0.56280   0.77395   0.56629   0.00000  Uiso   1.00
O176   O     0.81415   0.24723   0.07748   0.00000  Uiso   1.00
O177   O     0.55292   0.63511   0.68997   0.00000  Uiso   1.00
O178   O     0.42052   0.69890   0.53304   0.00000  Uiso   1.00
N179   N     0.69729   0.25474   0.14914   0.00000  Uiso   1.00
N180   N     0.51115   0.53117   0.58561   0.00000  Uiso   1.00
N181   N     0.41679   0.86404   0.47380   0.00000  Uiso   1.00
N182   N     0.80553   0.20888   0.21041   0.00000  Uiso   1.00
N183   N     0.61939   0.48531   0.64687   0.00000  Uiso   1.00
N184   N     0.52503   0.81818   0.53507   0.00000  Uiso   1.00
