data_job_02631
_audit_creation_date              2018-12-19
_audit_creation_method            'Materials Studio'
_symmetry_space_group_name_H-M    'P1'
_symmetry_Int_Tables_number       1
_symmetry_cell_setting            triclinic
loop_
_symmetry_equiv_pos_as_xyz
  x,y,z
_cell_length_a                    18.3478
_cell_length_b                    22.9266
_cell_length_c                    27.1533
_cell_angle_alpha                 90.0000
_cell_angle_beta                  120.8820
_cell_angle_gamma                 90.0000
loop_
_atom_site_label
_atom_site_type_symbol
_atom_site_fract_x
_atom_site_fract_y
_atom_site_fract_z
_atom_site_U_iso_or_equiv
_atom_site_adp_type
_atom_site_occupancy
C1     C     0.31912   0.60485   0.88847   0.00000  Uiso   1.00
C2     C     0.26354   0.65130   0.84518   0.00000  Uiso   1.00
C3     C     0.28618   0.68575   0.81311   0.00000  Uiso   1.00
C4     C     0.22639   0.72573   0.77586   0.00000  Uiso   1.00
C5     C     0.15220   0.79708   0.70941   0.00000  Uiso   1.00
C6     C     0.32554   0.62150   0.94494   0.00000  Uiso   1.00
C7     C     0.40031   0.63088   0.99675   0.00000  Uiso   1.00
C8     C     0.39271   0.64577   0.04348   0.00000  Uiso   1.00
C9     C     0.41477   0.67080   0.13192   0.00000  Uiso   1.00
C10    C     0.26793   0.54843   0.86904   0.00000  Uiso   1.00
C11    C     0.29427   0.49636   0.85705   0.00000  Uiso   1.00
C12    C     0.23817   0.44972   0.83989   0.00000  Uiso   1.00
C13    C     0.17080   0.36129   0.81049   0.00000  Uiso   1.00
C14    C     0.17268   0.61459   0.87934   0.00000  Uiso   1.00
C15    C     0.18400   0.65659   0.84022   0.00000  Uiso   1.00
C16    C     0.12415   0.69653   0.80301   0.00000  Uiso   1.00
C17    C     0.14670   0.73103   0.77089   0.00000  Uiso   1.00
C18    C     0.24600   0.62679   0.93998   0.00000  Uiso   1.00
C19    C     0.23828   0.64166   0.98665   0.00000  Uiso   1.00
C20    C     0.31302   0.65107   0.03851   0.00000  Uiso   1.00
C21    C     0.18839   0.55372   0.86408   0.00000  Uiso   1.00
C22    C     0.13224   0.50714   0.84695   0.00000  Uiso   1.00
C23    C     0.15848   0.45502   0.83493   0.00000  Uiso   1.00
H24    H     0.38105   0.60073   0.89233   0.00000  Uiso   1.00
H25    H     0.34775   0.68165   0.81696   0.00000  Uiso   1.00
H26    H     0.46186   0.62678   0.00057   0.00000  Uiso   1.00
H27    H     0.35583   0.49228   0.86089   0.00000  Uiso   1.00
H28    H     0.27576   0.77370   0.73123   0.00000  Uiso   1.00
H29    H     0.51636   0.65800   0.11838   0.00000  Uiso   1.00
H30    H     0.29279   0.37438   0.82384   0.00000  Uiso   1.00
H31    H     0.11075   0.61871   0.87548   0.00000  Uiso   1.00
H32    H     0.06260   0.70062   0.79918   0.00000  Uiso   1.00
H33    H     0.17672   0.64575   0.98280   0.00000  Uiso   1.00
H34    H     0.07069   0.51125   0.84311   0.00000  Uiso   1.00
H35    H     0.04433   0.78910   0.71680   0.00000  Uiso   1.00
H36    H     0.28493   0.67340   0.10396   0.00000  Uiso   1.00
H37    H     0.06135   0.38978   0.80941   0.00000  Uiso   1.00
O38    O     0.13326   0.83497   0.67414   0.00000  Uiso   1.00
O39    O     0.44893   0.68316   0.18208   0.00000  Uiso   1.00
O40    O     0.15560   0.31106   0.79564   0.00000  Uiso   1.00
N41    N     0.22789   0.76608   0.73829   0.00000  Uiso   1.00
N42    N     0.45284   0.65791   0.10026   0.00000  Uiso   1.00
N43    N     0.24383   0.39275   0.82490   0.00000  Uiso   1.00
N44    N     0.10336   0.77437   0.73053   0.00000  Uiso   1.00
N45    N     0.32831   0.66620   0.09250   0.00000  Uiso   1.00
N46    N     0.11929   0.40103   0.81714   0.00000  Uiso   1.00
C47    C     0.81912   0.10485   0.88847   0.00000  Uiso   1.00
C48    C     0.76354   0.15130   0.84518   0.00000  Uiso   1.00
C49    C     0.78618   0.18575   0.81311   0.00000  Uiso   1.00
C50    C     0.72639   0.22573   0.77586   0.00000  Uiso   1.00
C51    C     0.65220   0.29708   0.70941   0.00000  Uiso   1.00
C52    C     0.82554   0.12150   0.94494   0.00000  Uiso   1.00
C53    C     0.90031   0.13088   0.99675   0.00000  Uiso   1.00
C54    C     0.89271   0.14577   0.04348   0.00000  Uiso   1.00
C55    C     0.91477   0.17080   0.13192   0.00000  Uiso   1.00
C56    C     0.76793   0.04843   0.86904   0.00000  Uiso   1.00
C57    C     0.79427   0.99636   0.85705   0.00000  Uiso   1.00
C58    C     0.73817   0.94972   0.83989   0.00000  Uiso   1.00
C59    C     0.67080   0.86129   0.81049   0.00000  Uiso   1.00
C60    C     0.67268   0.11459   0.87934   0.00000  Uiso   1.00
C61    C     0.68400   0.15659   0.84022   0.00000  Uiso   1.00
C62    C     0.62415   0.19653   0.80301   0.00000  Uiso   1.00
C63    C     0.64670   0.23103   0.77089   0.00000  Uiso   1.00
C64    C     0.74600   0.12679   0.93998   0.00000  Uiso   1.00
C65    C     0.73828   0.14166   0.98665   0.00000  Uiso   1.00
C66    C     0.81302   0.15107   0.03851   0.00000  Uiso   1.00
C67    C     0.68839   0.05372   0.86408   0.00000  Uiso   1.00
C68    C     0.63224   0.00714   0.84695   0.00000  Uiso   1.00
C69    C     0.65848   0.95502   0.83493   0.00000  Uiso   1.00
H70    H     0.88105   0.10073   0.89233   0.00000  Uiso   1.00
H71    H     0.84775   0.18165   0.81696   0.00000  Uiso   1.00
H72    H     0.96186   0.12678   0.00057   0.00000  Uiso   1.00
H73    H     0.85583   0.99228   0.86089   0.00000  Uiso   1.00
H74    H     0.77576   0.27370   0.73123   0.00000  Uiso   1.00
H75    H     0.01636   0.15800   0.11838   0.00000  Uiso   1.00
H76    H     0.79279   0.87438   0.82384   0.00000  Uiso   1.00
H77    H     0.61075   0.11871   0.87548   0.00000  Uiso   1.00
H78    H     0.56260   0.20062   0.79918   0.00000  Uiso   1.00
H79    H     0.67672   0.14575   0.98280   0.00000  Uiso   1.00
H80    H     0.57069   0.01125   0.84311   0.00000  Uiso   1.00
H81    H     0.54433   0.28910   0.71680   0.00000  Uiso   1.00
H82    H     0.78493   0.17340   0.10396   0.00000  Uiso   1.00
H83    H     0.56135   0.88978   0.80941   0.00000  Uiso   1.00
O84    O     0.63326   0.33497   0.67414   0.00000  Uiso   1.00
O85    O     0.94893   0.18316   0.18208   0.00000  Uiso   1.00
O86    O     0.65560   0.81106   0.79564   0.00000  Uiso   1.00
N87    N     0.72789   0.26608   0.73829   0.00000  Uiso   1.00
N88    N     0.95284   0.15791   0.10026   0.00000  Uiso   1.00
N89    N     0.74383   0.89275   0.82490   0.00000  Uiso   1.00
N90    N     0.60336   0.27437   0.73053   0.00000  Uiso   1.00
N91    N     0.82831   0.16620   0.09250   0.00000  Uiso   1.00
N92    N     0.61929   0.90103   0.81714   0.00000  Uiso   1.00
C93    C     0.68088   0.60485   0.61153   0.00000  Uiso   1.00
C94    C     0.73646   0.65130   0.65482   0.00000  Uiso   1.00
C95    C     0.71382   0.68575   0.68689   0.00000  Uiso   1.00
C96    C     0.77361   0.72573   0.72414   0.00000  Uiso   1.00
C97    C     0.84780   0.79708   0.79059   0.00000  Uiso   1.00
C98    C     0.67446   0.62150   0.55506   0.00000  Uiso   1.00
C99    C     0.59969   0.63088   0.50325   0.00000  Uiso   1.00
C100   C     0.60729   0.64577   0.45652   0.00000  Uiso   1.00
C101   C     0.58523   0.67080   0.36808   0.00000  Uiso   1.00
C102   C     0.73207   0.54843   0.63096   0.00000  Uiso   1.00
C103   C     0.70573   0.49636   0.64295   0.00000  Uiso   1.00
C104   C     0.76183   0.44972   0.66011   0.00000  Uiso   1.00
C105   C     0.82920   0.36129   0.68951   0.00000  Uiso   1.00
C106   C     0.82732   0.61459   0.62066   0.00000  Uiso   1.00
C107   C     0.81600   0.65659   0.65978   0.00000  Uiso   1.00
C108   C     0.87585   0.69653   0.69699   0.00000  Uiso   1.00
C109   C     0.85330   0.73103   0.72911   0.00000  Uiso   1.00
C110   C     0.75400   0.62679   0.56002   0.00000  Uiso   1.00
C111   C     0.76172   0.64166   0.51335   0.00000  Uiso   1.00
C112   C     0.68698   0.65107   0.46149   0.00000  Uiso   1.00
C113   C     0.81161   0.55372   0.63592   0.00000  Uiso   1.00
C114   C     0.86776   0.50714   0.65305   0.00000  Uiso   1.00
C115   C     0.84152   0.45502   0.66507   0.00000  Uiso   1.00
H116   H     0.61895   0.60073   0.60767   0.00000  Uiso   1.00
H117   H     0.65225   0.68165   0.68304   0.00000  Uiso   1.00
H118   H     0.53814   0.62678   0.49943   0.00000  Uiso   1.00
H119   H     0.64417   0.49228   0.63911   0.00000  Uiso   1.00
H120   H     0.72424   0.77370   0.76877   0.00000  Uiso   1.00
H121   H     0.48364   0.65800   0.38162   0.00000  Uiso   1.00
H122   H     0.70721   0.37438   0.67616   0.00000  Uiso   1.00
H123   H     0.88925   0.61871   0.62452   0.00000  Uiso   1.00
H124   H     0.93740   0.70062   0.70082   0.00000  Uiso   1.00
H125   H     0.82328   0.64575   0.51720   0.00000  Uiso   1.00
H126   H     0.92931   0.51125   0.65689   0.00000  Uiso   1.00
H127   H     0.95567   0.78910   0.78320   0.00000  Uiso   1.00
H128   H     0.71507   0.67340   0.39604   0.00000  Uiso   1.00
H129   H     0.93865   0.38978   0.69059   0.00000  Uiso   1.00
O130   O     0.86674   0.83497   0.82586   0.00000  Uiso   1.00
O131   O     0.55107   0.68316   0.31792   0.00000  Uiso   1.00
O132   O     0.84440   0.31106   0.70436   0.00000  Uiso   1.00
N133   N     0.77211   0.76608   0.76171   0.00000  Uiso   1.00
N134   N     0.54716   0.65791   0.39974   0.00000  Uiso   1.00
N135   N     0.75617   0.39275   0.67510   0.00000  Uiso   1.00
N136   N     0.89664   0.77437   0.76947   0.00000  Uiso   1.00
N137   N     0.67169   0.66620   0.40750   0.00000  Uiso   1.00
N138   N     0.88071   0.40103   0.68286   0.00000  Uiso   1.00
C139   C     0.18088   0.10485   0.61153   0.00000  Uiso   1.00
C140   C     0.23646   0.15130   0.65482   0.00000  Uiso   1.00
C141   C     0.21382   0.18575   0.68689   0.00000  Uiso   1.00
C142   C     0.27361   0.22573   0.72414   0.00000  Uiso   1.00
C143   C     0.34780   0.29708   0.79059   0.00000  Uiso   1.00
C144   C     0.17446   0.12150   0.55506   0.00000  Uiso   1.00
C145   C     0.09969   0.13088   0.50325   0.00000  Uiso   1.00
C146   C     0.10729   0.14577   0.45652   0.00000  Uiso   1.00
C147   C     0.08523   0.17080   0.36808   0.00000  Uiso   1.00
C148   C     0.23207   0.04843   0.63096   0.00000  Uiso   1.00
C149   C     0.20573   0.99636   0.64295   0.00000  Uiso   1.00
C150   C     0.26183   0.94972   0.66011   0.00000  Uiso   1.00
C151   C     0.32920   0.86129   0.68951   0.00000  Uiso   1.00
C152   C     0.32732   0.11459   0.62066   0.00000  Uiso   1.00
C153   C     0.31600   0.15659   0.65978   0.00000  Uiso   1.00
C154   C     0.37585   0.19653   0.69699   0.00000  Uiso   1.00
C155   C     0.35330   0.23103   0.72911   0.00000  Uiso   1.00
C156   C     0.25400   0.12679   0.56002   0.00000  Uiso   1.00
C157   C     0.26172   0.14166   0.51335   0.00000  Uiso   1.00
C158   C     0.18698   0.15107   0.46149   0.00000  Uiso   1.00
C159   C     0.31161   0.05372   0.63592   0.00000  Uiso   1.00
C160   C     0.36776   0.00714   0.65305   0.00000  Uiso   1.00
C161   C     0.34152   0.95502   0.66507   0.00000  Uiso   1.00
H162   H     0.11895   0.10073   0.60767   0.00000  Uiso   1.00
H163   H     0.15225   0.18165   0.68304   0.00000  Uiso   1.00
H164   H     0.03814   0.12678   0.49943   0.00000  Uiso   1.00
H165   H     0.14417   0.99228   0.63911   0.00000  Uiso   1.00
H166   H     0.22424   0.27370   0.76877   0.00000  Uiso   1.00
H167   H     0.98364   0.15800   0.38162   0.00000  Uiso   1.00
H168   H     0.20721   0.87438   0.67616   0.00000  Uiso   1.00
H169   H     0.38925   0.11871   0.62452   0.00000  Uiso   1.00
H170   H     0.43740   0.20062   0.70082   0.00000  Uiso   1.00
H171   H     0.32328   0.14575   0.51720   0.00000  Uiso   1.00
H172   H     0.42931   0.01125   0.65689   0.00000  Uiso   1.00
H173   H     0.45567   0.28910   0.78320   0.00000  Uiso   1.00
H174   H     0.21507   0.17340   0.39604   0.00000  Uiso   1.00
H175   H     0.43865   0.88978   0.69059   0.00000  Uiso   1.00
O176   O     0.36674   0.33497   0.82586   0.00000  Uiso   1.00
O177   O     0.05107   0.18316   0.31792   0.00000  Uiso   1.00
O178   O     0.34440   0.81106   0.70436   0.00000  Uiso   1.00
N179   N     0.27211   0.26608   0.76171   0.00000  Uiso   1.00
N180   N     0.04716   0.15791   0.39974   0.00000  Uiso   1.00
N181   N     0.25617   0.89275   0.67510   0.00000  Uiso   1.00
N182   N     0.39664   0.27437   0.76947   0.00000  Uiso   1.00
N183   N     0.17169   0.16620   0.40750   0.00000  Uiso   1.00
N184   N     0.38071   0.90103   0.68286   0.00000  Uiso   1.00
C185   C     0.68088   0.39515   0.11153   0.00000  Uiso   1.00
C186   C     0.73646   0.34870   0.15482   0.00000  Uiso   1.00
C187   C     0.71382   0.31425   0.18689   0.00000  Uiso   1.00
C188   C     0.77361   0.27427   0.22414   0.00000  Uiso   1.00
C189   C     0.84780   0.20292   0.29059   0.00000  Uiso   1.00
C190   C     0.67446   0.37850   0.05506   0.00000  Uiso   1.00
C191   C     0.59969   0.36912   0.00325   0.00000  Uiso   1.00
C192   C     0.60729   0.35423   0.95652   0.00000  Uiso   1.00
C193   C     0.58523   0.32920   0.86808   0.00000  Uiso   1.00
C194   C     0.73207   0.45157   0.13096   0.00000  Uiso   1.00
C195   C     0.70573   0.50364   0.14295   0.00000  Uiso   1.00
C196   C     0.76183   0.55028   0.16011   0.00000  Uiso   1.00
C197   C     0.82920   0.63871   0.18951   0.00000  Uiso   1.00
C198   C     0.82732   0.38541   0.12066   0.00000  Uiso   1.00
C199   C     0.81600   0.34341   0.15978   0.00000  Uiso   1.00
C200   C     0.87585   0.30347   0.19699   0.00000  Uiso   1.00
C201   C     0.85330   0.26897   0.22911   0.00000  Uiso   1.00
C202   C     0.75400   0.37321   0.06002   0.00000  Uiso   1.00
C203   C     0.76172   0.35834   0.01335   0.00000  Uiso   1.00
C204   C     0.68698   0.34893   0.96149   0.00000  Uiso   1.00
C205   C     0.81161   0.44628   0.13592   0.00000  Uiso   1.00
C206   C     0.86776   0.49286   0.15305   0.00000  Uiso   1.00
C207   C     0.84152   0.54498   0.16507   0.00000  Uiso   1.00
H208   H     0.61895   0.39927   0.10767   0.00000  Uiso   1.00
H209   H     0.65225   0.31835   0.18304   0.00000  Uiso   1.00
H210   H     0.53814   0.37322   0.99943   0.00000  Uiso   1.00
H211   H     0.64417   0.50772   0.13911   0.00000  Uiso   1.00
H212   H     0.72424   0.22630   0.26877   0.00000  Uiso   1.00
H213   H     0.48364   0.34200   0.88162   0.00000  Uiso   1.00
H214   H     0.70721   0.62562   0.17616   0.00000  Uiso   1.00
H215   H     0.88925   0.38129   0.12452   0.00000  Uiso   1.00
H216   H     0.93740   0.29938   0.20082   0.00000  Uiso   1.00
H217   H     0.82328   0.35425   0.01720   0.00000  Uiso   1.00
H218   H     0.92931   0.48875   0.15689   0.00000  Uiso   1.00
H219   H     0.95567   0.21090   0.28320   0.00000  Uiso   1.00
H220   H     0.71507   0.32660   0.89604   0.00000  Uiso   1.00
H221   H     0.93865   0.61022   0.19059   0.00000  Uiso   1.00
O222   O     0.86674   0.16503   0.32586   0.00000  Uiso   1.00
O223   O     0.55107   0.31684   0.81792   0.00000  Uiso   1.00
O224   O     0.84440   0.68894   0.20436   0.00000  Uiso   1.00
N225   N     0.77211   0.23392   0.26171   0.00000  Uiso   1.00
N226   N     0.54716   0.34209   0.89974   0.00000  Uiso   1.00
N227   N     0.75617   0.60725   0.17510   0.00000  Uiso   1.00
N228   N     0.89664   0.22563   0.26947   0.00000  Uiso   1.00
N229   N     0.67169   0.33380   0.90750   0.00000  Uiso   1.00
N230   N     0.88071   0.59897   0.18286   0.00000  Uiso   1.00
C231   C     0.18088   0.89515   0.11153   0.00000  Uiso   1.00
C232   C     0.23646   0.84870   0.15482   0.00000  Uiso   1.00
C233   C     0.21382   0.81425   0.18689   0.00000  Uiso   1.00
C234   C     0.27361   0.77427   0.22414   0.00000  Uiso   1.00
C235   C     0.34780   0.70292   0.29059   0.00000  Uiso   1.00
C236   C     0.17446   0.87850   0.05506   0.00000  Uiso   1.00
C237   C     0.09969   0.86912   0.00325   0.00000  Uiso   1.00
C238   C     0.10729   0.85423   0.95652   0.00000  Uiso   1.00
C239   C     0.08523   0.82920   0.86808   0.00000  Uiso   1.00
C240   C     0.23207   0.95157   0.13096   0.00000  Uiso   1.00
C241   C     0.20573   0.00364   0.14295   0.00000  Uiso   1.00
C242   C     0.26183   0.05028   0.16011   0.00000  Uiso   1.00
C243   C     0.32920   0.13871   0.18951   0.00000  Uiso   1.00
C244   C     0.32732   0.88541   0.12066   0.00000  Uiso   1.00
C245   C     0.31600   0.84341   0.15978   0.00000  Uiso   1.00
C246   C     0.37585   0.80347   0.19699   0.00000  Uiso   1.00
C247   C     0.35330   0.76897   0.22911   0.00000  Uiso   1.00
C248   C     0.25400   0.87321   0.06002   0.00000  Uiso   1.00
C249   C     0.26172   0.85834   0.01335   0.00000  Uiso   1.00
C250   C     0.18698   0.84893   0.96149   0.00000  Uiso   1.00
C251   C     0.31161   0.94628   0.13592   0.00000  Uiso   1.00
C252   C     0.36776   0.99286   0.15305   0.00000  Uiso   1.00
C253   C     0.34152   0.04498   0.16507   0.00000  Uiso   1.00
H254   H     0.11895   0.89927   0.10767   0.00000  Uiso   1.00
H255   H     0.15225   0.81835   0.18304   0.00000  Uiso   1.00
H256   H     0.03814   0.87322   0.99943   0.00000  Uiso   1.00
H257   H     0.14417   0.00772   0.13911   0.00000  Uiso   1.00
H258   H     0.22424   0.72630   0.26877   0.00000  Uiso   1.00
H259   H     0.98364   0.84200   0.88162   0.00000  Uiso   1.00
H260   H     0.20721   0.12562   0.17616   0.00000  Uiso   1.00
H261   H     0.38925   0.88129   0.12452   0.00000  Uiso   1.00
H262   H     0.43740   0.79938   0.20082   0.00000  Uiso   1.00
H263   H     0.32328   0.85425   0.01720   0.00000  Uiso   1.00
H264   H     0.42931   0.98875   0.15689   0.00000  Uiso   1.00
H265   H     0.45567   0.71090   0.28320   0.00000  Uiso   1.00
H266   H     0.21507   0.82660   0.89604   0.00000  Uiso   1.00
H267   H     0.43865   0.11022   0.19059   0.00000  Uiso   1.00
O268   O     0.36674   0.66503   0.32586   0.00000  Uiso   1.00
O269   O     0.05107   0.81684   0.81792   0.00000  Uiso   1.00
O270   O     0.34440   0.18894   0.20436   0.00000  Uiso   1.00
N271   N     0.27211   0.73392   0.26171   0.00000  Uiso   1.00
N272   N     0.04716   0.84209   0.89974   0.00000  Uiso   1.00
N273   N     0.25617   0.10725   0.17510   0.00000  Uiso   1.00
N274   N     0.39664   0.72563   0.26947   0.00000  Uiso   1.00
N275   N     0.17169   0.83380   0.90750   0.00000  Uiso   1.00
N276   N     0.38071   0.09897   0.18286   0.00000  Uiso   1.00
C277   C     0.31912   0.39515   0.38847   0.00000  Uiso   1.00
C278   C     0.26354   0.34870   0.34518   0.00000  Uiso   1.00
C279   C     0.28618   0.31425   0.31311   0.00000  Uiso   1.00
C280   C     0.22639   0.27427   0.27586   0.00000  Uiso   1.00
C281   C     0.15220   0.20292   0.20941   0.00000  Uiso   1.00
C282   C     0.32554   0.37850   0.44494   0.00000  Uiso   1.00
C283   C     0.40031   0.36912   0.49675   0.00000  Uiso   1.00
C284   C     0.39271   0.35423   0.54348   0.00000  Uiso   1.00
C285   C     0.41477   0.32920   0.63192   0.00000  Uiso   1.00
C286   C     0.26793   0.45157   0.36904   0.00000  Uiso   1.00
C287   C     0.29427   0.50364   0.35705   0.00000  Uiso   1.00
C288   C     0.23817   0.55028   0.33989   0.00000  Uiso   1.00
C289   C     0.17080   0.63871   0.31049   0.00000  Uiso   1.00
C290   C     0.17268   0.38541   0.37934   0.00000  Uiso   1.00
C291   C     0.18400   0.34341   0.34022   0.00000  Uiso   1.00
C292   C     0.12415   0.30347   0.30301   0.00000  Uiso   1.00
C293   C     0.14670   0.26897   0.27089   0.00000  Uiso   1.00
C294   C     0.24600   0.37321   0.43998   0.00000  Uiso   1.00
C295   C     0.23828   0.35834   0.48665   0.00000  Uiso   1.00
C296   C     0.31302   0.34893   0.53851   0.00000  Uiso   1.00
C297   C     0.18839   0.44628   0.36408   0.00000  Uiso   1.00
C298   C     0.13224   0.49286   0.34695   0.00000  Uiso   1.00
C299   C     0.15848   0.54498   0.33493   0.00000  Uiso   1.00
H300   H     0.38105   0.39927   0.39233   0.00000  Uiso   1.00
H301   H     0.34775   0.31835   0.31696   0.00000  Uiso   1.00
H302   H     0.46186   0.37322   0.50057   0.00000  Uiso   1.00
H303   H     0.35583   0.50772   0.36089   0.00000  Uiso   1.00
H304   H     0.27576   0.22630   0.23123   0.00000  Uiso   1.00
H305   H     0.51636   0.34200   0.61838   0.00000  Uiso   1.00
H306   H     0.29279   0.62562   0.32384   0.00000  Uiso   1.00
H307   H     0.11075   0.38129   0.37548   0.00000  Uiso   1.00
H308   H     0.06260   0.29938   0.29918   0.00000  Uiso   1.00
H309   H     0.17672   0.35425   0.48280   0.00000  Uiso   1.00
H310   H     0.07069   0.48875   0.34311   0.00000  Uiso   1.00
H311   H     0.04433   0.21090   0.21680   0.00000  Uiso   1.00
H312   H     0.28493   0.32660   0.60396   0.00000  Uiso   1.00
H313   H     0.06135   0.61022   0.30941   0.00000  Uiso   1.00
O314   O     0.13326   0.16503   0.17414   0.00000  Uiso   1.00
O315   O     0.44893   0.31684   0.68208   0.00000  Uiso   1.00
O316   O     0.15560   0.68894   0.29564   0.00000  Uiso   1.00
N317   N     0.22789   0.23392   0.23829   0.00000  Uiso   1.00
N318   N     0.45284   0.34209   0.60026   0.00000  Uiso   1.00
N319   N     0.24383   0.60725   0.32490   0.00000  Uiso   1.00
N320   N     0.10336   0.22563   0.23053   0.00000  Uiso   1.00
N321   N     0.32831   0.33380   0.59250   0.00000  Uiso   1.00
N322   N     0.11929   0.59897   0.31714   0.00000  Uiso   1.00
C323   C     0.81912   0.89515   0.38847   0.00000  Uiso   1.00
C324   C     0.76354   0.84870   0.34518   0.00000  Uiso   1.00
C325   C     0.78618   0.81425   0.31311   0.00000  Uiso   1.00
C326   C     0.72639   0.77427   0.27586   0.00000  Uiso   1.00
C327   C     0.65220   0.70292   0.20941   0.00000  Uiso   1.00
C328   C     0.82554   0.87850   0.44494   0.00000  Uiso   1.00
C329   C     0.90031   0.86912   0.49675   0.00000  Uiso   1.00
C330   C     0.89271   0.85423   0.54348   0.00000  Uiso   1.00
C331   C     0.91477   0.82920   0.63192   0.00000  Uiso   1.00
C332   C     0.76793   0.95157   0.36904   0.00000  Uiso   1.00
C333   C     0.79427   0.00364   0.35705   0.00000  Uiso   1.00
C334   C     0.73817   0.05028   0.33989   0.00000  Uiso   1.00
C335   C     0.67080   0.13871   0.31049   0.00000  Uiso   1.00
C336   C     0.67268   0.88541   0.37934   0.00000  Uiso   1.00
C337   C     0.68400   0.84341   0.34022   0.00000  Uiso   1.00
C338   C     0.62415   0.80347   0.30301   0.00000  Uiso   1.00
C339   C     0.64670   0.76897   0.27089   0.00000  Uiso   1.00
C340   C     0.74600   0.87321   0.43998   0.00000  Uiso   1.00
C341   C     0.73828   0.85834   0.48665   0.00000  Uiso   1.00
C342   C     0.81302   0.84893   0.53851   0.00000  Uiso   1.00
C343   C     0.68839   0.94628   0.36408   0.00000  Uiso   1.00
C344   C     0.63224   0.99286   0.34695   0.00000  Uiso   1.00
C345   C     0.65848   0.04498   0.33493   0.00000  Uiso   1.00
H346   H     0.88105   0.89927   0.39233   0.00000  Uiso   1.00
H347   H     0.84775   0.81835   0.31696   0.00000  Uiso   1.00
H348   H     0.96186   0.87322   0.50057   0.00000  Uiso   1.00
H349   H     0.85583   0.00772   0.36089   0.00000  Uiso   1.00
H350   H     0.77576   0.72630   0.23123   0.00000  Uiso   1.00
H351   H     0.01636   0.84200   0.61838   0.00000  Uiso   1.00
H352   H     0.79279   0.12562   0.32384   0.00000  Uiso   1.00
H353   H     0.61075   0.88129   0.37548   0.00000  Uiso   1.00
H354   H     0.56260   0.79938   0.29918   0.00000  Uiso   1.00
H355   H     0.67672   0.85425   0.48280   0.00000  Uiso   1.00
H356   H     0.57069   0.98875   0.34311   0.00000  Uiso   1.00
H357   H     0.54433   0.71090   0.21680   0.00000  Uiso   1.00
H358   H     0.78493   0.82660   0.60396   0.00000  Uiso   1.00
H359   H     0.56135   0.11022   0.30941   0.00000  Uiso   1.00
O360   O     0.63326   0.66503   0.17414   0.00000  Uiso   1.00
O361   O     0.94893   0.81684   0.68208   0.00000  Uiso   1.00
O362   O     0.65560   0.18894   0.29564   0.00000  Uiso   1.00
N363   N     0.72789   0.73392   0.23829   0.00000  Uiso   1.00
N364   N     0.95284   0.84209   0.60026   0.00000  Uiso   1.00
N365   N     0.74383   0.10725   0.32490   0.00000  Uiso   1.00
N366   N     0.60336   0.72563   0.23053   0.00000  Uiso   1.00
N367   N     0.82831   0.83380   0.59250   0.00000  Uiso   1.00
N368   N     0.61929   0.09897   0.31714   0.00000  Uiso   1.00
