data_job_03006
_audit_creation_date              2018-12-19
_audit_creation_method            'Materials Studio'
_symmetry_space_group_name_H-M    'P1'
_symmetry_Int_Tables_number       1
_symmetry_cell_setting            triclinic
loop_
_symmetry_equiv_pos_as_xyz
  x,y,z
_cell_length_a                    14.9635
_cell_length_b                    17.2437
_cell_length_c                    10.6273
_cell_angle_alpha                 90.0000
_cell_angle_beta                  59.6647
_cell_angle_gamma                 90.0000
loop_
_atom_site_label
_atom_site_type_symbol
_atom_site_fract_x
_atom_site_fract_y
_atom_site_fract_z
_atom_site_U_iso_or_equiv
_atom_site_adp_type
_atom_site_occupancy
C1     C     0.56457   0.34825   0.85785   0.00000  Uiso   1.00
C2     C     0.56378   0.32549   0.71976   0.00000  Uiso   1.00
C3     C     0.57414   0.25073   0.66569   0.00000  Uiso   1.00
C4     C     0.57143   0.24200   0.53779   0.00000  Uiso   1.00
C5     C     0.57217   0.19696   0.33416   0.00000  Uiso   1.00
C6     C     0.65061   0.40817   0.81106   0.00000  Uiso   1.00
C7     C     0.73396   0.40293   0.83378   0.00000  Uiso   1.00
C8     C     0.80432   0.46381   0.78275   0.00000  Uiso   1.00
C9     C     0.93982   0.54715   0.72096   0.00000  Uiso   1.00
C10    C     0.46342   0.39157   0.95296   0.00000  Uiso   1.00
C11    C     0.38938   0.37238   0.09500   0.00000  Uiso   1.00
C12    C     0.30215   0.41929   0.16345   0.00000  Uiso   1.00
C13    C     0.14701   0.47685   0.32197   0.00000  Uiso   1.00
C14    C     0.54133   0.46567   0.72686   0.00000  Uiso   1.00
C15    C     0.55116   0.38927   0.64861   0.00000  Uiso   1.00
C16    C     0.54842   0.38064   0.52077   0.00000  Uiso   1.00
C17    C     0.55877   0.30589   0.46652   0.00000  Uiso   1.00
C18    C     0.63798   0.47195   0.73992   0.00000  Uiso   1.00
C19    C     0.70824   0.53284   0.68885   0.00000  Uiso   1.00
C20    C     0.79168   0.52770   0.71147   0.00000  Uiso   1.00
C21    C     0.45079   0.45534   0.88181   0.00000  Uiso   1.00
C22    C     0.36366   0.50229   0.95006   0.00000  Uiso   1.00
C23    C     0.28951   0.48318   0.09218   0.00000  Uiso   1.00
H24    H     0.57441   0.29860   0.91325   0.00000  Uiso   1.00
H25    H     0.58392   0.20139   0.72078   0.00000  Uiso   1.00
H26    H     0.74370   0.35358   0.88885   0.00000  Uiso   1.00
H27    H     0.39918   0.32303   0.15002   0.00000  Uiso   1.00
H28    H     0.58894   0.12175   0.47599   0.00000  Uiso   1.00
H29    H     0.92583   0.44264   0.83042   0.00000  Uiso   1.00
H30    H     0.19933   0.37823   0.38116   0.00000  Uiso   1.00
H31    H     0.53150   0.51533   0.67147   0.00000  Uiso   1.00
H32    H     0.53865   0.43001   0.46573   0.00000  Uiso   1.00
H33    H     0.69844   0.58219   0.63380   0.00000  Uiso   1.00
H34    H     0.35392   0.55164   0.89497   0.00000  Uiso   1.00
H35    H     0.55220   0.30730   0.26898   0.00000  Uiso   1.00
H36    H     0.88909   0.62820   0.62342   0.00000  Uiso   1.00
H37    H     0.16260   0.56378   0.17415   0.00000  Uiso   1.00
O38    O     0.57608   0.15449   0.24148   0.00000  Uiso   1.00
O39    O     0.01806   0.57550   0.70651   0.00000  Uiso   1.00
O40    O     0.06492   0.49098   0.42906   0.00000  Uiso   1.00
N41    N     0.57929   0.17713   0.45552   0.00000  Uiso   1.00
N42    N     0.89427   0.47714   0.78687   0.00000  Uiso   1.00
N43    N     0.21507   0.41692   0.30178   0.00000  Uiso   1.00
N44    N     0.55952   0.27697   0.34413   0.00000  Uiso   1.00
N45    N     0.87450   0.57698   0.67548   0.00000  Uiso   1.00
N46    N     0.19530   0.51677   0.19039   0.00000  Uiso   1.00
C47    C     0.06457   0.84825   0.85785   0.00000  Uiso   1.00
C48    C     0.06378   0.82549   0.71976   0.00000  Uiso   1.00
C49    C     0.07414   0.75073   0.66569   0.00000  Uiso   1.00
C50    C     0.07143   0.74200   0.53779   0.00000  Uiso   1.00
C51    C     0.07217   0.69696   0.33416   0.00000  Uiso   1.00
C52    C     0.15061   0.90817   0.81106   0.00000  Uiso   1.00
C53    C     0.23396   0.90293   0.83378   0.00000  Uiso   1.00
C54    C     0.30432   0.96381   0.78275   0.00000  Uiso   1.00
C55    C     0.43982   0.04715   0.72096   0.00000  Uiso   1.00
C56    C     0.96342   0.89157   0.95296   0.00000  Uiso   1.00
C57    C     0.88938   0.87238   0.09500   0.00000  Uiso   1.00
C58    C     0.80215   0.91929   0.16345   0.00000  Uiso   1.00
C59    C     0.64701   0.97685   0.32197   0.00000  Uiso   1.00
C60    C     0.04133   0.96567   0.72686   0.00000  Uiso   1.00
C61    C     0.05116   0.88927   0.64861   0.00000  Uiso   1.00
C62    C     0.04842   0.88064   0.52077   0.00000  Uiso   1.00
C63    C     0.05877   0.80589   0.46652   0.00000  Uiso   1.00
C64    C     0.13798   0.97195   0.73992   0.00000  Uiso   1.00
C65    C     0.20824   0.03284   0.68885   0.00000  Uiso   1.00
C66    C     0.29168   0.02770   0.71147   0.00000  Uiso   1.00
C67    C     0.95079   0.95534   0.88181   0.00000  Uiso   1.00
C68    C     0.86366   0.00229   0.95006   0.00000  Uiso   1.00
C69    C     0.78951   0.98318   0.09218   0.00000  Uiso   1.00
H70    H     0.07441   0.79860   0.91325   0.00000  Uiso   1.00
H71    H     0.08392   0.70139   0.72078   0.00000  Uiso   1.00
H72    H     0.24370   0.85358   0.88885   0.00000  Uiso   1.00
H73    H     0.89918   0.82303   0.15002   0.00000  Uiso   1.00
H74    H     0.08894   0.62175   0.47599   0.00000  Uiso   1.00
H75    H     0.42583   0.94264   0.83042   0.00000  Uiso   1.00
H76    H     0.69933   0.87823   0.38116   0.00000  Uiso   1.00
H77    H     0.03150   0.01533   0.67147   0.00000  Uiso   1.00
H78    H     0.03865   0.93001   0.46573   0.00000  Uiso   1.00
H79    H     0.19844   0.08219   0.63380   0.00000  Uiso   1.00
H80    H     0.85392   0.05164   0.89497   0.00000  Uiso   1.00
H81    H     0.05220   0.80730   0.26898   0.00000  Uiso   1.00
H82    H     0.38909   0.12820   0.62342   0.00000  Uiso   1.00
H83    H     0.66260   0.06378   0.17415   0.00000  Uiso   1.00
O84    O     0.07608   0.65449   0.24148   0.00000  Uiso   1.00
O85    O     0.51806   0.07550   0.70651   0.00000  Uiso   1.00
O86    O     0.56492   0.99098   0.42906   0.00000  Uiso   1.00
N87    N     0.07929   0.67713   0.45552   0.00000  Uiso   1.00
N88    N     0.39427   0.97714   0.78687   0.00000  Uiso   1.00
N89    N     0.71507   0.91692   0.30178   0.00000  Uiso   1.00
N90    N     0.05952   0.77697   0.34413   0.00000  Uiso   1.00
N91    N     0.37450   0.07698   0.67548   0.00000  Uiso   1.00
N92    N     0.69530   0.01677   0.19039   0.00000  Uiso   1.00
C93    C     0.56457   0.65175   0.35785   0.00000  Uiso   1.00
C94    C     0.56378   0.67451   0.21976   0.00000  Uiso   1.00
C95    C     0.57414   0.74927   0.16569   0.00000  Uiso   1.00
C96    C     0.57143   0.75800   0.03779   0.00000  Uiso   1.00
C97    C     0.57217   0.80304   0.83416   0.00000  Uiso   1.00
C98    C     0.65061   0.59183   0.31106   0.00000  Uiso   1.00
C99    C     0.73396   0.59707   0.33378   0.00000  Uiso   1.00
C100   C     0.80432   0.53619   0.28275   0.00000  Uiso   1.00
C101   C     0.93982   0.45285   0.22096   0.00000  Uiso   1.00
C102   C     0.46342   0.60843   0.45296   0.00000  Uiso   1.00
C103   C     0.38938   0.62762   0.59500   0.00000  Uiso   1.00
C104   C     0.30215   0.58071   0.66345   0.00000  Uiso   1.00
C105   C     0.14701   0.52315   0.82197   0.00000  Uiso   1.00
C106   C     0.54133   0.53433   0.22686   0.00000  Uiso   1.00
C107   C     0.55116   0.61073   0.14861   0.00000  Uiso   1.00
C108   C     0.54842   0.61936   0.02077   0.00000  Uiso   1.00
C109   C     0.55877   0.69411   0.96652   0.00000  Uiso   1.00
C110   C     0.63798   0.52805   0.23992   0.00000  Uiso   1.00
C111   C     0.70824   0.46716   0.18885   0.00000  Uiso   1.00
C112   C     0.79168   0.47230   0.21147   0.00000  Uiso   1.00
C113   C     0.45079   0.54466   0.38181   0.00000  Uiso   1.00
C114   C     0.36366   0.49771   0.45006   0.00000  Uiso   1.00
C115   C     0.28951   0.51682   0.59218   0.00000  Uiso   1.00
H116   H     0.57441   0.70140   0.41325   0.00000  Uiso   1.00
H117   H     0.58392   0.79861   0.22078   0.00000  Uiso   1.00
H118   H     0.74370   0.64642   0.38885   0.00000  Uiso   1.00
H119   H     0.39918   0.67697   0.65002   0.00000  Uiso   1.00
H120   H     0.58894   0.87825   0.97599   0.00000  Uiso   1.00
H121   H     0.92583   0.55736   0.33042   0.00000  Uiso   1.00
H122   H     0.19933   0.62177   0.88116   0.00000  Uiso   1.00
H123   H     0.53150   0.48467   0.17147   0.00000  Uiso   1.00
H124   H     0.53865   0.56999   0.96573   0.00000  Uiso   1.00
H125   H     0.69844   0.41781   0.13380   0.00000  Uiso   1.00
H126   H     0.35392   0.44836   0.39497   0.00000  Uiso   1.00
H127   H     0.55220   0.69270   0.76898   0.00000  Uiso   1.00
H128   H     0.88909   0.37180   0.12342   0.00000  Uiso   1.00
H129   H     0.16260   0.43622   0.67415   0.00000  Uiso   1.00
O130   O     0.57608   0.84551   0.74148   0.00000  Uiso   1.00
O131   O     0.01806   0.42450   0.20651   0.00000  Uiso   1.00
O132   O     0.06492   0.50902   0.92906   0.00000  Uiso   1.00
N133   N     0.57929   0.82287   0.95552   0.00000  Uiso   1.00
N134   N     0.89427   0.52286   0.28687   0.00000  Uiso   1.00
N135   N     0.21507   0.58308   0.80178   0.00000  Uiso   1.00
N136   N     0.55952   0.72303   0.84413   0.00000  Uiso   1.00
N137   N     0.87450   0.42302   0.17548   0.00000  Uiso   1.00
N138   N     0.19530   0.48323   0.69039   0.00000  Uiso   1.00
C139   C     0.06457   0.15175   0.35785   0.00000  Uiso   1.00
C140   C     0.06378   0.17451   0.21976   0.00000  Uiso   1.00
C141   C     0.07414   0.24927   0.16569   0.00000  Uiso   1.00
C142   C     0.07143   0.25800   0.03779   0.00000  Uiso   1.00
C143   C     0.07217   0.30304   0.83416   0.00000  Uiso   1.00
C144   C     0.15061   0.09183   0.31106   0.00000  Uiso   1.00
C145   C     0.23396   0.09707   0.33378   0.00000  Uiso   1.00
C146   C     0.30432   0.03619   0.28275   0.00000  Uiso   1.00
C147   C     0.43982   0.95285   0.22096   0.00000  Uiso   1.00
C148   C     0.96342   0.10843   0.45296   0.00000  Uiso   1.00
C149   C     0.88938   0.12762   0.59500   0.00000  Uiso   1.00
C150   C     0.80215   0.08071   0.66345   0.00000  Uiso   1.00
C151   C     0.64701   0.02315   0.82197   0.00000  Uiso   1.00
C152   C     0.04133   0.03433   0.22686   0.00000  Uiso   1.00
C153   C     0.05116   0.11073   0.14861   0.00000  Uiso   1.00
C154   C     0.04842   0.11936   0.02077   0.00000  Uiso   1.00
C155   C     0.05877   0.19411   0.96652   0.00000  Uiso   1.00
C156   C     0.13798   0.02805   0.23992   0.00000  Uiso   1.00
C157   C     0.20824   0.96716   0.18885   0.00000  Uiso   1.00
C158   C     0.29168   0.97230   0.21147   0.00000  Uiso   1.00
C159   C     0.95079   0.04466   0.38181   0.00000  Uiso   1.00
C160   C     0.86366   0.99771   0.45006   0.00000  Uiso   1.00
C161   C     0.78951   0.01682   0.59218   0.00000  Uiso   1.00
H162   H     0.07441   0.20140   0.41325   0.00000  Uiso   1.00
H163   H     0.08392   0.29861   0.22078   0.00000  Uiso   1.00
H164   H     0.24370   0.14642   0.38885   0.00000  Uiso   1.00
H165   H     0.89918   0.17697   0.65002   0.00000  Uiso   1.00
H166   H     0.08894   0.37825   0.97599   0.00000  Uiso   1.00
H167   H     0.42583   0.05736   0.33042   0.00000  Uiso   1.00
H168   H     0.69933   0.12177   0.88116   0.00000  Uiso   1.00
H169   H     0.03150   0.98467   0.17147   0.00000  Uiso   1.00
H170   H     0.03865   0.06999   0.96573   0.00000  Uiso   1.00
H171   H     0.19844   0.91781   0.13380   0.00000  Uiso   1.00
H172   H     0.85392   0.94836   0.39497   0.00000  Uiso   1.00
H173   H     0.05220   0.19270   0.76898   0.00000  Uiso   1.00
H174   H     0.38909   0.87180   0.12342   0.00000  Uiso   1.00
H175   H     0.66260   0.93622   0.67415   0.00000  Uiso   1.00
O176   O     0.07608   0.34551   0.74148   0.00000  Uiso   1.00
O177   O     0.51806   0.92450   0.20651   0.00000  Uiso   1.00
O178   O     0.56492   0.00902   0.92906   0.00000  Uiso   1.00
N179   N     0.07929   0.32287   0.95552   0.00000  Uiso   1.00
N180   N     0.39427   0.02286   0.28687   0.00000  Uiso   1.00
N181   N     0.71507   0.08308   0.80178   0.00000  Uiso   1.00
N182   N     0.05952   0.22303   0.84413   0.00000  Uiso   1.00
N183   N     0.37450   0.92302   0.17548   0.00000  Uiso   1.00
N184   N     0.69530   0.98323   0.69039   0.00000  Uiso   1.00
