data_job_06649
_audit_creation_date              2018-12-19
_audit_creation_method            'Materials Studio'
_symmetry_space_group_name_H-M    'P1'
_symmetry_Int_Tables_number       1
_symmetry_cell_setting            triclinic
loop_
_symmetry_equiv_pos_as_xyz
  x,y,z
_cell_length_a                    20.5768
_cell_length_b                    20.8934
_cell_length_c                    19.9785
_cell_angle_alpha                 69.7093
_cell_angle_beta                  68.4703
_cell_angle_gamma                 69.7093
loop_
_atom_site_label
_atom_site_type_symbol
_atom_site_fract_x
_atom_site_fract_y
_atom_site_fract_z
_atom_site_U_iso_or_equiv
_atom_site_adp_type
_atom_site_occupancy
C1     C     0.06342   0.58280   0.80966   0.00000  Uiso   1.00
C2     C     0.04511   0.51724   0.86890   0.00000  Uiso   1.00
C3     C     0.98155   0.49710   0.88921   0.00000  Uiso   1.00
C4     C     0.97516   0.43536   0.94463   0.00000  Uiso   1.00
C5     C     0.93831   0.33968   0.03151   0.00000  Uiso   1.00
C6     C     0.08053   0.62389   0.84830   0.00000  Uiso   1.00
C7     C     0.04676   0.69342   0.85126   0.00000  Uiso   1.00
C8     C     0.07019   0.72145   0.88933   0.00000  Uiso   1.00
C9     C     0.08836   0.79136   0.94416   0.00000  Uiso   1.00
C10    C     0.13429   0.55667   0.75448   0.00000  Uiso   1.00
C11    C     0.14574   0.56970   0.67856   0.00000  Uiso   1.00
C12    C     0.21445   0.54116   0.63763   0.00000  Uiso   1.00
C13    C     0.31610   0.50671   0.54680   0.00000  Uiso   1.00
C14    C     0.16509   0.50896   0.87197   0.00000  Uiso   1.00
C15    C     0.10033   0.47713   0.90275   0.00000  Uiso   1.00
C16    C     0.09404   0.41540   0.95816   0.00000  Uiso   1.00
C17    C     0.03048   0.39517   0.97854   0.00000  Uiso   1.00
C18    C     0.13575   0.58378   0.88214   0.00000  Uiso   1.00
C19    C     0.15924   0.61172   0.92021   0.00000  Uiso   1.00
C20    C     0.12551   0.68127   0.92324   0.00000  Uiso   1.00
C21    C     0.18952   0.51656   0.78833   0.00000  Uiso   1.00
C22    C     0.25822   0.48800   0.74751   0.00000  Uiso   1.00
C23    C     0.26977   0.50098   0.67154   0.00000  Uiso   1.00
H24    H     0.02043   0.61403   0.78331   0.00000  Uiso   1.00
H25    H     0.93883   0.52816   0.86301   0.00000  Uiso   1.00
H26    H     0.00403   0.72444   0.82506   0.00000  Uiso   1.00
H27    H     0.10299   0.60074   0.65239   0.00000  Uiso   1.00
H28    H     0.87270   0.41528   0.96632   0.00000  Uiso   1.00
H29    H     0.01019   0.82916   0.88628   0.00000  Uiso   1.00
H30    H     0.21888   0.56833   0.52216   0.00000  Uiso   1.00
H31    H     0.20809   0.47773   0.89832   0.00000  Uiso   1.00
H32    H     0.13678   0.38438   0.98434   0.00000  Uiso   1.00
H33    H     0.20198   0.58067   0.94639   0.00000  Uiso   1.00
H34    H     0.30094   0.45697   0.77372   0.00000  Uiso   1.00
H35    H     0.03336   0.29858   0.06480   0.00000  Uiso   1.00
H36    H     0.17086   0.71247   0.98476   0.00000  Uiso   1.00
H37    H     0.37955   0.45163   0.62064   0.00000  Uiso   1.00
O38    O     0.90272   0.29799   0.07008   0.00000  Uiso   1.00
O39    O     0.08313   0.84100   0.96506   0.00000  Uiso   1.00
O40    O     0.35692   0.49878   0.48735   0.00000  Uiso   1.00
N41    N     0.92030   0.40062   0.97768   0.00000  Uiso   1.00
N42    N     0.04884   0.78758   0.90286   0.00000  Uiso   1.00
N43    N     0.24396   0.54373   0.56244   0.00000  Uiso   1.00
N44    N     0.00675   0.33782   0.03067   0.00000  Uiso   1.00
N45    N     0.13530   0.72478   0.95585   0.00000  Uiso   1.00
N46    N     0.33041   0.48094   0.61543   0.00000  Uiso   1.00
C47    C     0.74997   0.19715   0.71189   0.00000  Uiso   1.00
C48    C     0.80086   0.21529   0.63416   0.00000  Uiso   1.00
C49    C     0.87456   0.18525   0.61290   0.00000  Uiso   1.00
C50    C     0.91162   0.20902   0.53919   0.00000  Uiso   1.00
C51    C     0.99604   0.22930   0.42619   0.00000  Uiso   1.00
C52    C     0.71343   0.26639   0.73501   0.00000  Uiso   1.00
C53    C     0.71361   0.27932   0.79854   0.00000  Uiso   1.00
C54    C     0.67706   0.34610   0.80974   0.00000  Uiso   1.00
C55    C     0.62570   0.44571   0.85334   0.00000  Uiso   1.00
C56    C     0.69090   0.17532   0.70271   0.00000  Uiso   1.00
C57    C     0.67212   0.11167   0.73912   0.00000  Uiso   1.00
C58    C     0.61658   0.10178   0.72314   0.00000  Uiso   1.00
C59    C     0.53024   0.05997   0.71660   0.00000  Uiso   1.00
C60    C     0.68473   0.29277   0.61880   0.00000  Uiso   1.00
C61    C     0.76542   0.26723   0.58360   0.00000  Uiso   1.00
C62    C     0.80238   0.29104   0.50990   0.00000  Uiso   1.00
C63    C     0.87612   0.26104   0.48854   0.00000  Uiso   1.00
C64    C     0.67800   0.31833   0.68445   0.00000  Uiso   1.00
C65    C     0.64143   0.38511   0.69555   0.00000  Uiso   1.00
C66    C     0.64156   0.39813   0.75908   0.00000  Uiso   1.00
C67    C     0.65546   0.22725   0.65215   0.00000  Uiso   1.00
C68    C     0.59994   0.21746   0.63612   0.00000  Uiso   1.00
C69    C     0.58108   0.15381   0.67248   0.00000  Uiso   1.00
H70    H     0.77756   0.15672   0.75126   0.00000  Uiso   1.00
H71    H     0.90197   0.14506   0.65204   0.00000  Uiso   1.00
H72    H     0.74104   0.23911   0.83766   0.00000  Uiso   1.00
H73    H     0.69955   0.07149   0.77824   0.00000  Uiso   1.00
H74    H     0.02427   0.15506   0.51976   0.00000  Uiso   1.00
H75    H     0.68493   0.35336   0.91116   0.00000  Uiso   1.00
H76    H     0.59745   0.99989   0.78586   0.00000  Uiso   1.00
H77    H     0.65714   0.33321   0.57944   0.00000  Uiso   1.00
H78    H     0.77494   0.33123   0.47079   0.00000  Uiso   1.00
H79    H     0.61401   0.42528   0.65641   0.00000  Uiso   1.00
H80    H     0.57253   0.25766   0.59699   0.00000  Uiso   1.00
H81    H     0.92118   0.30616   0.37264   0.00000  Uiso   1.00
H82    H     0.58182   0.50446   0.76405   0.00000  Uiso   1.00
H83    H     0.49435   0.15100   0.63875   0.00000  Uiso   1.00
O84    O     0.05240   0.22614   0.37784   0.00000  Uiso   1.00
O85    O     0.60717   0.48630   0.89135   0.00000  Uiso   1.00
O86    O     0.49241   0.02256   0.72695   0.00000  Uiso   1.00
N87    N     0.98384   0.19088   0.50004   0.00000  Uiso   1.00
N88    N     0.66658   0.37629   0.86597   0.00000  Uiso   1.00
N89    N     0.58478   0.04583   0.74884   0.00000  Uiso   1.00
N90    N     0.92836   0.27219   0.42088   0.00000  Uiso   1.00
N91    N     0.61110   0.45759   0.78681   0.00000  Uiso   1.00
N92    N     0.52931   0.12714   0.66968   0.00000  Uiso   1.00
C93    C     0.58500   0.71295   0.19064   0.00000  Uiso   1.00
C94    C     0.51759   0.76792   0.21856   0.00000  Uiso   1.00
C95    C     0.46134   0.80227   0.18615   0.00000  Uiso   1.00
C96    C     0.40452   0.85078   0.22012   0.00000  Uiso   1.00
C97    C     0.29995   0.93409   0.25370   0.00000  Uiso   1.00
C98    C     0.64900   0.74060   0.17865   0.00000  Uiso   1.00
C99    C     0.70323   0.75197   0.11268   0.00000  Uiso   1.00
C100   C     0.75704   0.77748   0.11306   0.00000  Uiso   1.00
C101   C     0.85650   0.81832   0.08469   0.00000  Uiso   1.00
C102   C     0.58780   0.64751   0.25556   0.00000  Uiso   1.00
C103   C     0.59061   0.58061   0.25425   0.00000  Uiso   1.00
C104   C     0.59290   0.52773   0.31938   0.00000  Uiso   1.00
C105   C     0.59736   0.42404   0.41043   0.00000  Uiso   1.00
C106   C     0.58412   0.73800   0.30862   0.00000  Uiso   1.00
C107   C     0.51712   0.78152   0.28264   0.00000  Uiso   1.00
C108   C     0.46037   0.82999   0.31667   0.00000  Uiso   1.00
C109   C     0.40404   0.86441   0.28432   0.00000  Uiso   1.00
C110   C     0.64852   0.75420   0.24272   0.00000  Uiso   1.00
C111   C     0.70226   0.77969   0.24321   0.00000  Uiso   1.00
C112   C     0.75656   0.79111   0.17726   0.00000  Uiso   1.00
C113   C     0.58732   0.66111   0.31964   0.00000  Uiso   1.00
C114   C     0.58963   0.60832   0.38478   0.00000  Uiso   1.00
C115   C     0.59243   0.54136   0.38358   0.00000  Uiso   1.00
H116   H     0.58537   0.70236   0.14075   0.00000  Uiso   1.00
H117   H     0.46173   0.79174   0.13655   0.00000  Uiso   1.00
H118   H     0.70359   0.74143   0.06310   0.00000  Uiso   1.00
H119   H     0.59097   0.57010   0.20465   0.00000  Uiso   1.00
H120   H     0.32446   0.89685   0.16014   0.00000  Uiso   1.00
H121   H     0.83444   0.79076   0.00527   0.00000  Uiso   1.00
H122   H     0.59697   0.42946   0.30376   0.00000  Uiso   1.00
H123   H     0.58375   0.74859   0.35851   0.00000  Uiso   1.00
H124   H     0.46002   0.84051   0.36626   0.00000  Uiso   1.00
H125   H     0.70188   0.79021   0.29281   0.00000  Uiso   1.00
H126   H     0.58926   0.61887   0.43436   0.00000  Uiso   1.00
H127   H     0.32307   0.93643   0.34658   0.00000  Uiso   1.00
H128   H     0.83305   0.83034   0.19171   0.00000  Uiso   1.00
H129   H     0.59558   0.46905   0.49020   0.00000  Uiso   1.00
O130   O     0.24241   0.97629   0.25452   0.00000  Uiso   1.00
O131   O     0.91149   0.83709   0.05134   0.00000  Uiso   1.00
O132   O     0.59993   0.36308   0.44295   0.00000  Uiso   1.00
N133   N     0.34110   0.89354   0.20296   0.00000  Uiso   1.00
N134   N     0.81790   0.79437   0.05817   0.00000  Uiso   1.00
N135   N     0.59591   0.45658   0.33722   0.00000  Uiso   1.00
N136   N     0.34035   0.91484   0.30329   0.00000  Uiso   1.00
N137   N     0.81715   0.81567   0.15849   0.00000  Uiso   1.00
N138   N     0.59516   0.47788   0.43754   0.00000  Uiso   1.00
C139   C     0.55077   0.29638   0.18104   0.00000  Uiso   1.00
C140   C     0.59457   0.35150   0.14484   0.00000  Uiso   1.00
C141   C     0.57280   0.41877   0.10169   0.00000  Uiso   1.00
C142   C     0.62065   0.46126   0.07360   0.00000  Uiso   1.00
C143   C     0.67842   0.55052   0.01520   0.00000  Uiso   1.00
C144   C     0.54429   0.27604   0.26385   0.00000  Uiso   1.00
C145   C     0.48024   0.27986   0.32076   0.00000  Uiso   1.00
C146   C     0.48577   0.25882   0.39287   0.00000  Uiso   1.00
C147   C     0.46548   0.23087   0.51924   0.00000  Uiso   1.00
C148   C     0.59822   0.23132   0.15284   0.00000  Uiso   1.00
C149   C     0.57951   0.19752   0.11643   0.00000  Uiso   1.00
C150   C     0.63044   0.13881   0.09509   0.00000  Uiso   1.00
C151   C     0.69389   0.04143   0.04910   0.00000  Uiso   1.00
C152   C     0.67447   0.25220   0.20790   0.00000  Uiso   1.00
C153   C     0.66175   0.32750   0.15943   0.00000  Uiso   1.00
C154   C     0.70965   0.36990   0.13140   0.00000  Uiso   1.00
C155   C     0.68796   0.43722   0.08821   0.00000  Uiso   1.00
C156   C     0.61147   0.25205   0.27844   0.00000  Uiso   1.00
C157   C     0.61710   0.23099   0.35048   0.00000  Uiso   1.00
C158   C     0.55308   0.23478   0.40749   0.00000  Uiso   1.00
C159   C     0.66541   0.20732   0.16743   0.00000  Uiso   1.00
C160   C     0.71637   0.14865   0.14614   0.00000  Uiso   1.00
C161   C     0.69775   0.11478   0.10970   0.00000  Uiso   1.00
H162   H     0.49846   0.31506   0.16969   0.00000  Uiso   1.00
H163   H     0.52079   0.43733   0.09041   0.00000  Uiso   1.00
H164   H     0.42826   0.29843   0.30946   0.00000  Uiso   1.00
H165   H     0.52752   0.21611   0.10515   0.00000  Uiso   1.00
H166   H     0.57517   0.56231   0.00898   0.00000  Uiso   1.00
H167   H     0.38006   0.26941   0.47085   0.00000  Uiso   1.00
H168   H     0.58936   0.09582   0.04003   0.00000  Uiso   1.00
H169   H     0.72677   0.23352   0.21926   0.00000  Uiso   1.00
H170   H     0.76164   0.35132   0.14270   0.00000  Uiso   1.00
H171   H     0.66910   0.21242   0.36175   0.00000  Uiso   1.00
H172   H     0.76836   0.13010   0.15744   0.00000  Uiso   1.00
H173   H     0.77065   0.49251   0.05142   0.00000  Uiso   1.00
H174   H     0.57553   0.19960   0.51329   0.00000  Uiso   1.00
H175   H     0.78484   0.02601   0.08247   0.00000  Uiso   1.00
O176   O     0.69172   0.60638   0.97897   0.00000  Uiso   1.00
O177   O     0.43573   0.22209   0.58492   0.00000  Uiso   1.00
O178   O     0.71033   0.99435   0.01969   0.00000  Uiso   1.00
N179   N     0.61640   0.52971   0.02947   0.00000  Uiso   1.00
N180   N     0.43398   0.25588   0.46128   0.00000  Uiso   1.00
N181   N     0.62965   0.09357   0.05852   0.00000  Uiso   1.00
N182   N     0.72159   0.49215   0.05230   0.00000  Uiso   1.00
N183   N     0.53916   0.21832   0.48412   0.00000  Uiso   1.00
N184   N     0.73483   0.05601   0.08136   0.00000  Uiso   1.00
C185   C     0.15864   0.05338   0.74179   0.00000  Uiso   1.00
C186   C     0.22707   0.99363   0.74262   0.00000  Uiso   1.00
C187   C     0.25534   0.94586   0.69891   0.00000  Uiso   1.00
C188   C     0.31845   0.89510   0.70792   0.00000  Uiso   1.00
C189   C     0.41962   0.80276   0.70144   0.00000  Uiso   1.00
C190   C     0.18108   0.12080   0.72545   0.00000  Uiso   1.00
C191   C     0.17066   0.17996   0.66731   0.00000  Uiso   1.00
C192   C     0.19505   0.23625   0.66187   0.00000  Uiso   1.00
C193   C     0.22477   0.34138   0.62877   0.00000  Uiso   1.00
C194   C     0.11013   0.04216   0.82153   0.00000  Uiso   1.00
C195   C     0.04005   0.03521   0.84417   0.00000  Uiso   1.00
C196   C     0.00469   0.02531   0.91963   0.00000  Uiso   1.00
C197   C     0.92425   0.00833   0.03570   0.00000  Uiso   1.00
C198   C     0.22046   0.04817   0.83552   0.00000  Uiso   1.00
C199   C     0.26065   0.99080   0.79353   0.00000  Uiso   1.00
C200   C     0.32373   0.94009   0.80261   0.00000  Uiso   1.00
C201   C     0.35208   0.89226   0.75893   0.00000  Uiso   1.00
C202   C     0.21466   0.11797   0.77635   0.00000  Uiso   1.00
C203   C     0.23906   0.17419   0.77101   0.00000  Uiso   1.00
C204   C     0.22869   0.23342   0.71288   0.00000  Uiso   1.00
C205   C     0.14371   0.03933   0.87244   0.00000  Uiso   1.00
C206   C     0.10845   0.02944   0.94787   0.00000  Uiso   1.00
C207   C     0.03833   0.02248   0.97063   0.00000  Uiso   1.00
H208   H     0.13250   0.05559   0.70215   0.00000  Uiso   1.00
H209   H     0.22934   0.94807   0.65951   0.00000  Uiso   1.00
H210   H     0.14467   0.18214   0.62792   0.00000  Uiso   1.00
H211   H     0.01408   0.03741   0.80476   0.00000  Uiso   1.00
H212   H     0.35152   0.82763   0.63468   0.00000  Uiso   1.00
H213   H     0.17298   0.32118   0.56808   0.00000  Uiso   1.00
H214   H     0.89760   0.01600   0.94097   0.00000  Uiso   1.00
H215   H     0.24660   0.04597   0.87516   0.00000  Uiso   1.00
H216   H     0.34971   0.93791   0.84202   0.00000  Uiso   1.00
H217   H     0.26504   0.17198   0.81042   0.00000  Uiso   1.00
H218   H     0.13445   0.02725   0.98726   0.00000  Uiso   1.00
H219   H     0.44923   0.81939   0.78280   0.00000  Uiso   1.00
H220   H     0.27068   0.31294   0.71620   0.00000  Uiso   1.00
H221   H     0.99530   0.00775   0.08909   0.00000  Uiso   1.00
O222   O     0.46615   0.75262   0.68380   0.00000  Uiso   1.00
O223   O     0.23189   0.40014   0.59643   0.00000  Uiso   1.00
O224   O     0.87061   0.99974   0.08566   0.00000  Uiso   1.00
N225   N     0.36036   0.84051   0.67410   0.00000  Uiso   1.00
N226   N     0.19344   0.30195   0.61182   0.00000  Uiso   1.00
N227   N     0.93598   0.01664   0.96044   0.00000  Uiso   1.00
N228   N     0.41293   0.83608   0.75380   0.00000  Uiso   1.00
N229   N     0.24601   0.29751   0.69153   0.00000  Uiso   1.00
N230   N     0.98855   0.01221   0.04015   0.00000  Uiso   1.00
C231   C     0.05518   0.64292   0.39880   0.00000  Uiso   1.00
C232   C     0.99493   0.69216   0.44327   0.00000  Uiso   1.00
C233   C     0.94860   0.67138   0.51286   0.00000  Uiso   1.00
C234   C     0.89708   0.72448   0.54427   0.00000  Uiso   1.00
C235   C     0.80431   0.79009   0.61896   0.00000  Uiso   1.00
C236   C     0.12423   0.66433   0.38254   0.00000  Uiso   1.00
C237   C     0.18660   0.62015   0.40106   0.00000  Uiso   1.00
C238   C     0.24392   0.64983   0.38133   0.00000  Uiso   1.00
C239   C     0.35190   0.67222   0.36168   0.00000  Uiso   1.00
C240   C     0.04015   0.66223   0.32402   0.00000  Uiso   1.00
C241   C     0.03184   0.61629   0.29332   0.00000  Uiso   1.00
C242   C     0.01839   0.64420   0.22431   0.00000  Uiso   1.00
C243   C     0.99582   0.66333   0.11380   0.00000  Uiso   1.00
C244   C     0.04608   0.77418   0.33084   0.00000  Uiso   1.00
C245   C     0.98999   0.76345   0.40636   0.00000  Uiso   1.00
C246   C     0.93852   0.81660   0.43767   0.00000  Uiso   1.00
C247   C     0.89212   0.79591   0.50729   0.00000  Uiso   1.00
C248   C     0.11928   0.73562   0.34563   0.00000  Uiso   1.00
C249   C     0.17653   0.76538   0.32587   0.00000  Uiso   1.00
C250   C     0.23897   0.72126   0.34435   0.00000  Uiso   1.00
C251   C     0.03520   0.73353   0.28710   0.00000  Uiso   1.00
C252   C     0.02177   0.76151   0.21813   0.00000  Uiso   1.00
C253   C     0.01344   0.71562   0.18733   0.00000  Uiso   1.00
H254   H     0.05903   0.58742   0.42754   0.00000  Uiso   1.00
H255   H     0.95245   0.61620   0.54141   0.00000  Uiso   1.00
H256   H     0.19041   0.56498   0.42962   0.00000  Uiso   1.00
H257   H     0.03567   0.56112   0.32190   0.00000  Uiso   1.00
H258   H     0.83211   0.67955   0.65140   0.00000  Uiso   1.00
H259   H     0.33389   0.57155   0.41565   0.00000  Uiso   1.00
H260   H     0.00759   0.56340   0.18850   0.00000  Uiso   1.00
H261   H     0.04223   0.82969   0.30210   0.00000  Uiso   1.00
H262   H     0.93471   0.87177   0.40909   0.00000  Uiso   1.00
H263   H     0.17268   0.82055   0.29730   0.00000  Uiso   1.00
H264   H     0.01794   0.81669   0.18958   0.00000  Uiso   1.00
H265   H     0.81772   0.88698   0.54400   0.00000  Uiso   1.00
H266   H     0.31950   0.77898   0.30825   0.00000  Uiso   1.00
H267   H     0.99320   0.77083   0.08110   0.00000  Uiso   1.00
O268   O     0.75451   0.80658   0.67036   0.00000  Uiso   1.00
O269   O     0.41282   0.66487   0.36105   0.00000  Uiso   1.00
O270   O     0.98472   0.65419   0.06304   0.00000  Uiso   1.00
N271   N     0.84347   0.72260   0.61143   0.00000  Uiso   1.00
N272   N     0.31260   0.62162   0.39103   0.00000  Uiso   1.00
N273   N     0.00755   0.61400   0.17866   0.00000  Uiso   1.00
N274   N     0.83572   0.83421   0.55364   0.00000  Uiso   1.00
N275   N     0.30485   0.73324   0.33324   0.00000  Uiso   1.00
N276   N     0.99981   0.72562   0.12087   0.00000  Uiso   1.00
C277   C     0.93993   0.43203   0.22467   0.00000  Uiso   1.00
C278   C     0.90738   0.48626   0.16385   0.00000  Uiso   1.00
C279   C     0.94567   0.52026   0.09520   0.00000  Uiso   1.00
C280   C     0.90595   0.56808   0.04726   0.00000  Uiso   1.00
C281   C     0.86686   0.65024   0.94975   0.00000  Uiso   1.00
C282   C     0.91452   0.36621   0.24160   0.00000  Uiso   1.00
C283   C     0.95882   0.29928   0.23834   0.00000  Uiso   1.00
C284   C     0.92511   0.24604   0.25587   0.00000  Uiso   1.00
C285   C     0.89710   0.14181   0.27912   0.00000  Uiso   1.00
C286   C     0.90290   0.46037   0.29389   0.00000  Uiso   1.00
C287   C     0.93743   0.47259   0.33461   0.00000  Uiso   1.00
C288   C     0.89395   0.49861   0.39618   0.00000  Uiso   1.00
C289   C     0.84791   0.54058   0.50063   0.00000  Uiso   1.00
C290   C     0.80131   0.45648   0.26162   0.00000  Uiso   1.00
C291   C     0.83208   0.49953   0.18392   0.00000  Uiso   1.00
C292   C     0.79230   0.54731   0.13608   0.00000  Uiso   1.00
C293   C     0.83052   0.58139   0.06737   0.00000  Uiso   1.00
C294   C     0.83923   0.37949   0.26167   0.00000  Uiso   1.00
C295   C     0.80545   0.32633   0.27922   0.00000  Uiso   1.00
C296   C     0.84968   0.25934   0.27597   0.00000  Uiso   1.00
C297   C     0.82761   0.47365   0.31396   0.00000  Uiso   1.00
C298   C     0.78406   0.49965   0.37549   0.00000  Uiso   1.00
C299   C     0.81852   0.51192   0.41629   0.00000  Uiso   1.00
H300   H     0.99855   0.42169   0.20905   0.00000  Uiso   1.00
H301   H     0.00394   0.50997   0.07968   0.00000  Uiso   1.00
H302   H     0.01708   0.28902   0.22281   0.00000  Uiso   1.00
H303   H     0.99570   0.46231   0.31907   0.00000  Uiso   1.00
H304   H     0.97671   0.61368   0.94510   0.00000  Uiso   1.00
H305   H     0.00442   0.14779   0.24691   0.00000  Uiso   1.00
H306   H     0.95934   0.51321   0.44989   0.00000  Uiso   1.00
H307   H     0.74269   0.46682   0.27725   0.00000  Uiso   1.00
H308   H     0.73403   0.55758   0.15162   0.00000  Uiso   1.00
H309   H     0.74718   0.33663   0.29475   0.00000  Uiso   1.00
H310   H     0.72580   0.50992   0.39100   0.00000  Uiso   1.00
H311   H     0.75764   0.65232   0.00348   0.00000  Uiso   1.00
H312   H     0.78536   0.18643   0.30530   0.00000  Uiso   1.00
H313   H     0.74027   0.55185   0.50827   0.00000  Uiso   1.00
O314   O     0.86610   0.69187   0.89041   0.00000  Uiso   1.00
O315   O     0.90246   0.08065   0.28639   0.00000  Uiso   1.00
O316   O     0.84331   0.56007   0.55268   0.00000  Uiso   1.00
N317   N     0.92633   0.61033   0.97608   0.00000  Uiso   1.00
N318   N     0.95225   0.17475   0.25825   0.00000  Uiso   1.00
N319   N     0.91010   0.51637   0.44803   0.00000  Uiso   1.00
N320   N     0.80846   0.63112   0.00750   0.00000  Uiso   1.00
N321   N     0.83437   0.19555   0.28967   0.00000  Uiso   1.00
N322   N     0.79222   0.53717   0.47944   0.00000  Uiso   1.00
C323   C     0.08928   0.92694   0.67721   0.00000  Uiso   1.00
C324   C     0.01467   0.91812   0.69041   0.00000  Uiso   1.00
C325   C     0.95158   0.94514   0.74016   0.00000  Uiso   1.00
C326   C     0.88884   0.93126   0.74402   0.00000  Uiso   1.00
C327   C     0.77293   0.92360   0.77123   0.00000  Uiso   1.00
C328   C     0.11544   0.96030   0.59428   0.00000  Uiso   1.00
C329   C     0.13709   0.02278   0.56320   0.00000  Uiso   1.00
C330   C     0.15918   0.04441   0.48613   0.00000  Uiso   1.00
C331   C     0.19977   0.10220   0.36410   0.00000  Uiso   1.00
C332   C     0.13824   0.85260   0.69100   0.00000  Uiso   1.00
C333   C     0.17907   0.82453   0.74124   0.00000  Uiso   1.00
C334   C     0.22038   0.75548   0.74560   0.00000  Uiso   1.00
C335   C     0.29636   0.64606   0.77375   0.00000  Uiso   1.00
C336   C     0.09005   0.85425   0.59559   0.00000  Uiso   1.00
C337   C     0.01510   0.87863   0.64607   0.00000  Uiso   1.00
C338   C     0.95244   0.86471   0.64986   0.00000  Uiso   1.00
C339   C     0.88926   0.89171   0.69961   0.00000  Uiso   1.00
C340   C     0.11587   0.92082   0.54995   0.00000  Uiso   1.00
C341   C     0.13795   0.94235   0.47290   0.00000  Uiso   1.00
C342   C     0.15961   0.00485   0.44172   0.00000  Uiso   1.00
C343   C     0.13867   0.81311   0.64667   0.00000  Uiso   1.00
C344   C     0.17992   0.74410   0.65094   0.00000  Uiso   1.00
C345   C     0.22080   0.71593   0.70118   0.00000  Uiso   1.00
H346   H     0.08895   0.95768   0.71172   0.00000  Uiso   1.00
H347   H     0.95127   0.97570   0.77445   0.00000  Uiso   1.00
H348   H     0.13676   0.05332   0.59752   0.00000  Uiso   1.00
H349   H     0.17873   0.85510   0.77554   0.00000  Uiso   1.00
H350   H     0.79882   0.97828   0.82444   0.00000  Uiso   1.00
H351   H     0.18994   0.14194   0.45137   0.00000  Uiso   1.00
H352   H     0.27845   0.72395   0.82675   0.00000  Uiso   1.00
H353   H     0.09038   0.82351   0.56107   0.00000  Uiso   1.00
H354   H     0.95278   0.83415   0.61555   0.00000  Uiso   1.00
H355   H     0.13827   0.91178   0.43862   0.00000  Uiso   1.00
H356   H     0.18024   0.71356   0.61663   0.00000  Uiso   1.00
H357   H     0.80004   0.86340   0.69546   0.00000  Uiso   1.00
H358   H     0.19117   0.02706   0.32240   0.00000  Uiso   1.00
H359   H     0.27967   0.60907   0.69777   0.00000  Uiso   1.00
O360   O     0.70888   0.93029   0.79848   0.00000  Uiso   1.00
O361   O     0.22204   0.14500   0.30904   0.00000  Uiso   1.00
O362   O     0.33815   0.59661   0.80152   0.00000  Uiso   1.00
N363   N     0.81799   0.94977   0.78662   0.00000  Uiso   1.00
N364   N     0.18366   0.10279   0.43782   0.00000  Uiso   1.00
N365   N     0.26642   0.71201   0.78876   0.00000  Uiso   1.00
N366   N     0.81865   0.88795   0.71722   0.00000  Uiso   1.00
N367   N     0.18432   0.04097   0.36842   0.00000  Uiso   1.00
N368   N     0.26708   0.65020   0.71936   0.00000  Uiso   1.00
C369   C     0.44679   0.11551   0.97819   0.00000  Uiso   1.00
C370   C     0.48832   0.04351   0.96274   0.00000  Uiso   1.00
C371   C     0.55057   0.00126   0.98272   0.00000  Uiso   1.00
C372   C     0.58041   0.93721   0.96354   0.00000  Uiso   1.00
C373   C     0.64965   0.82859   0.94533   0.00000  Uiso   1.00
C374   C     0.36971   0.11001   0.02128   0.00000  Uiso   1.00
C375   C     0.33222   0.12368   0.09048   0.00000  Uiso   1.00
C376   C     0.26221   0.11563   0.12057   0.00000  Uiso   1.00
C377   C     0.14728   0.11030   0.19322   0.00000  Uiso   1.00
C378   C     0.44278   0.16654   0.90287   0.00000  Uiso   1.00
C379   C     0.46672   0.22775   0.87252   0.00000  Uiso   1.00
C380   C     0.45821   0.26730   0.80293   0.00000  Uiso   1.00
C381   C     0.45675   0.34974   0.69173   0.00000  Uiso   1.00
C382   C     0.38908   0.07689   0.90860   0.00000  Uiso   1.00
C383   C     0.45698   0.02254   0.92494   0.00000  Uiso   1.00
C384   C     0.48673   0.95854   0.90572   0.00000  Uiso   1.00
C385   C     0.54901   0.91620   0.92567   0.00000  Uiso   1.00
C386   C     0.33836   0.08904   0.98348   0.00000  Uiso   1.00
C387   C     0.26838   0.08096   0.01348   0.00000  Uiso   1.00
C388   C     0.23081   0.09462   0.08271   0.00000  Uiso   1.00
C389   C     0.41144   0.14556   0.86507   0.00000  Uiso   1.00
C390   C     0.40289   0.18503   0.79552   0.00000  Uiso   1.00
C391   C     0.42681   0.24629   0.76506   0.00000  Uiso   1.00
H392   H     0.47118   0.13184   0.00762   0.00000  Uiso   1.00
H393   H     0.57481   0.01750   0.01198   0.00000  Uiso   1.00
H394   H     0.35649   0.13992   0.11971   0.00000  Uiso   1.00
H395   H     0.49097   0.24397   0.90178   0.00000  Uiso   1.00
H396   H     0.67585   0.88149   0.00016   0.00000  Uiso   1.00
H397   H     0.21552   0.13963   0.22731   0.00000  Uiso   1.00
H398   H     0.49910   0.35903   0.76777   0.00000  Uiso   1.00
H399   H     0.36468   0.06057   0.87917   0.00000  Uiso   1.00
H400   H     0.46246   0.94232   0.87647   0.00000  Uiso   1.00
H401   H     0.24415   0.06474   0.98421   0.00000  Uiso   1.00
H402   H     0.37863   0.16878   0.76628   0.00000  Uiso   1.00
H403   H     0.58467   0.82046   0.89018   0.00000  Uiso   1.00
H404   H     0.12433   0.07861   0.11733   0.00000  Uiso   1.00
H405   H     0.40792   0.29801   0.65779   0.00000  Uiso   1.00
O406   O     0.69649   0.77446   0.94574   0.00000  Uiso   1.00
O407   O     0.09255   0.11315   0.24374   0.00000  Uiso   1.00
O408   O     0.46460   0.40100   0.64084   0.00000  Uiso   1.00
N409   N     0.64098   0.88336   0.97463   0.00000  Uiso   1.00
N410   N     0.21060   0.12469   0.18701   0.00000  Uiso   1.00
N411   N     0.47571   0.32983   0.75739   0.00000  Uiso   1.00
N412   N     0.59192   0.85052   0.91545   0.00000  Uiso   1.00
N413   N     0.16154   0.09186   0.12783   0.00000  Uiso   1.00
N414   N     0.42664   0.29700   0.69821   0.00000  Uiso   1.00
C415   C     0.36628   0.67635   0.11484   0.00000  Uiso   1.00
C416   C     0.34310   0.61124   0.17045   0.00000  Uiso   1.00
C417   C     0.36837   0.57145   0.23182   0.00000  Uiso   1.00
C418   C     0.34048   0.51382   0.27589   0.00000  Uiso   1.00
C419   C     0.31231   0.41531   0.36477   0.00000  Uiso   1.00
C420   C     0.39375   0.66082   0.03866   0.00000  Uiso   1.00
C421   C     0.46161   0.66273   0.98921   0.00000  Uiso   1.00
C422   C     0.47635   0.64685   0.92233   0.00000  Uiso   1.00
C423   C     0.52681   0.62536   0.80656   0.00000  Uiso   1.00
C424   C     0.29724   0.73535   0.11427   0.00000  Uiso   1.00
C425   C     0.28396   0.79993   0.12837   0.00000  Uiso   1.00
C426   C     0.21745   0.84680   0.12513   0.00000  Uiso   1.00
C427   C     0.11806   0.94103   0.12677   0.00000  Uiso   1.00
C428   C     0.27179   0.64477   0.08399   0.00000  Uiso   1.00
C429   C     0.29178   0.59409   0.15369   0.00000  Uiso   1.00
C430   C     0.26383   0.53651   0.19768   0.00000  Uiso   1.00
C431   C     0.28906   0.49664   0.25910   0.00000  Uiso   1.00
C432   C     0.34243   0.64367   0.02189   0.00000  Uiso   1.00
C433   C     0.35707   0.62778   0.95507   0.00000  Uiso   1.00
C434   C     0.42494   0.62966   0.90553   0.00000  Uiso   1.00
C435   C     0.24592   0.71820   0.09751   0.00000  Uiso   1.00
C436   C     0.17942   0.76498   0.09424   0.00000  Uiso   1.00
C437   C     0.16603   0.82962   0.10834   0.00000  Uiso   1.00
H438   H     0.40624   0.68971   0.12788   0.00000  Uiso   1.00
H439   H     0.40810   0.58474   0.24477   0.00000  Uiso   1.00
H440   H     0.50132   0.67601   0.00219   0.00000  Uiso   1.00
H441   H     0.32369   0.81318   0.14134   0.00000  Uiso   1.00
H442   H     0.38754   0.46078   0.36694   0.00000  Uiso   1.00
H443   H     0.58409   0.65325   0.85545   0.00000  Uiso   1.00
H444   H     0.20954   0.94252   0.14887   0.00000  Uiso   1.00
H445   H     0.23183   0.63142   0.07094   0.00000  Uiso   1.00
H446   H     0.22411   0.52325   0.18470   0.00000  Uiso   1.00
H447   H     0.31734   0.61452   0.94212   0.00000  Uiso   1.00
H448   H     0.13971   0.75169   0.08127   0.00000  Uiso   1.00
H449   H     0.23821   0.41087   0.31819   0.00000  Uiso   1.00
H450   H     0.43477   0.60334   0.80669   0.00000  Uiso   1.00
H451   H     0.06021   0.89260   0.10011   0.00000  Uiso   1.00
O452   O     0.31097   0.36571   0.41841   0.00000  Uiso   1.00
O453   O     0.56883   0.61824   0.74735   0.00000  Uiso   1.00
O454   O     0.07742   0.99774   0.13231   0.00000  Uiso   1.00
N455   N     0.35345   0.46389   0.33987   0.00000  Uiso   1.00
N456   N     0.53722   0.64383   0.86165   0.00000  Uiso   1.00
N457   N     0.18704   0.91427   0.13595   0.00000  Uiso   1.00
N458   N     0.27309   0.43703   0.31363   0.00000  Uiso   1.00
N459   N     0.45686   0.61697   0.83542   0.00000  Uiso   1.00
N460   N     0.10669   0.88741   0.10972   0.00000  Uiso   1.00
C461   C     0.58058   0.94199   0.58179   0.00000  Uiso   1.00
C462   C     0.52393   0.99352   0.54322   0.00000  Uiso   1.00
C463   C     0.45505   0.02775   0.57825   0.00000  Uiso   1.00
C464   C     0.41133   0.07282   0.53313   0.00000  Uiso   1.00
C465   C     0.31964   0.15122   0.48501   0.00000  Uiso   1.00
C466   C     0.60148   0.87406   0.55782   0.00000  Uiso   1.00
C467   C     0.59783   0.80785   0.60514   0.00000  Uiso   1.00
C468   C     0.61940   0.75236   0.57232   0.00000  Uiso   1.00
C469   C     0.64817   0.64529   0.54688   0.00000  Uiso   1.00
C470   C     0.64706   0.97154   0.54672   0.00000  Uiso   1.00
C471   C     0.68174   0.98727   0.58470   0.00000  Uiso   1.00
C472   C     0.74169   0.01384   0.54252   0.00000  Uiso   1.00
C473   C     0.84122   0.05812   0.49984   0.00000  Uiso   1.00
C474   C     0.62541   0.96118   0.43936   0.00000  Uiso   1.00
C475   C     0.54828   0.00394   0.46585   0.00000  Uiso   1.00
C476   C     0.50465   0.04898   0.42067   0.00000  Uiso   1.00
C477   C     0.43573   0.08327   0.45563   0.00000  Uiso   1.00
C478   C     0.62583   0.88448   0.48046   0.00000  Uiso   1.00
C479   C     0.64742   0.82908   0.44756   0.00000  Uiso   1.00
C480   C     0.64380   0.76280   0.49482   0.00000  Uiso   1.00
C481   C     0.67141   0.98197   0.46935   0.00000  Uiso   1.00
C482   C     0.73133   0.00851   0.42711   0.00000  Uiso   1.00
C483   C     0.76609   0.02428   0.46502   0.00000  Uiso   1.00
H484   H     0.56163   0.93388   0.64202   0.00000  Uiso   1.00
H485   H     0.43623   0.01966   0.63812   0.00000  Uiso   1.00
H486   H     0.57899   0.79980   0.66501   0.00000  Uiso   1.00
H487   H     0.66288   0.97920   0.64456   0.00000  Uiso   1.00
H488   H     0.30793   0.11935   0.59969   0.00000  Uiso   1.00
H489   H     0.60897   0.65576   0.65639   0.00000  Uiso   1.00
H490   H     0.78587   0.03405   0.61327   0.00000  Uiso   1.00
H491   H     0.64437   0.96930   0.37912   0.00000  Uiso   1.00
H492   H     0.52351   0.05703   0.36080   0.00000  Uiso   1.00
H493   H     0.66627   0.83717   0.38769   0.00000  Uiso   1.00
H494   H     0.75015   0.01657   0.36724   0.00000  Uiso   1.00
H495   H     0.37877   0.14968   0.37461   0.00000  Uiso   1.00
H496   H     0.67981   0.68608   0.43130   0.00000  Uiso   1.00
H497   H     0.85670   0.06438   0.38819   0.00000  Uiso   1.00
O498   O     0.26234   0.19157   0.47984   0.00000  Uiso   1.00
O499   O     0.65730   0.58335   0.55422   0.00000  Uiso   1.00
O500   O     0.88939   0.07967   0.49766   0.00000  Uiso   1.00
N501   N     0.34119   0.11446   0.54923   0.00000  Uiso   1.00
N502   N     0.62263   0.68103   0.60224   0.00000  Uiso   1.00
N503   N     0.78803   0.03469   0.56193   0.00000  Uiso   1.00
N504   N     0.37931   0.13078   0.42811   0.00000  Uiso   1.00
N505   N     0.66075   0.69735   0.48112   0.00000  Uiso   1.00
N506   N     0.82615   0.05101   0.44082   0.00000  Uiso   1.00
C507   C     0.01341   0.45644   0.70277   0.00000  Uiso   1.00
C508   C     0.02720   0.43780   0.63057   0.00000  Uiso   1.00
C509   C     0.07672   0.45891   0.56355   0.00000  Uiso   1.00
C510   C     0.08121   0.43633   0.50395   0.00000  Uiso   1.00
C511   C     0.10921   0.41384   0.39073   0.00000  Uiso   1.00
C512   C     0.93303   0.49188   0.72607   0.00000  Uiso   1.00
C513   C     0.90336   0.55845   0.73937   0.00000  Uiso   1.00
C514   C     0.82858   0.58140   0.76017   0.00000  Uiso   1.00
C515   C     0.71037   0.64284   0.79528   0.00000  Uiso   1.00
C516   C     0.02513   0.38644   0.76079   0.00000  Uiso   1.00
C517   C     0.07290   0.36437   0.80329   0.00000  Uiso   1.00
C518   C     0.07564   0.29855   0.85333   0.00000  Uiso   1.00
C519   C     0.10044   0.19629   0.94234   0.00000  Uiso   1.00
C520   C     0.93335   0.37881   0.71608   0.00000  Uiso   1.00
C521   C     0.98371   0.39564   0.63780   0.00000  Uiso   1.00
C522   C     0.98813   0.37303   0.57828   0.00000  Uiso   1.00
C523   C     0.03765   0.39409   0.51119   0.00000  Uiso   1.00
C524   C     0.88954   0.44972   0.73331   0.00000  Uiso   1.00
C525   C     0.81478   0.47257   0.75410   0.00000  Uiso   1.00
C526   C     0.78501   0.53916   0.76742   0.00000  Uiso   1.00
C527   C     0.98165   0.34428   0.76802   0.00000  Uiso   1.00
C528   C     0.98432   0.27849   0.81801   0.00000  Uiso   1.00
C529   C     0.03207   0.25631   0.86058   0.00000  Uiso   1.00
H530   H     0.04727   0.48926   0.69714   0.00000  Uiso   1.00
H531   H     0.11036   0.49154   0.55798   0.00000  Uiso   1.00
H532   H     0.93703   0.59106   0.73378   0.00000  Uiso   1.00
H533   H     0.10654   0.39701   0.79768   0.00000  Uiso   1.00
H534   H     0.16111   0.47549   0.40687   0.00000  Uiso   1.00
H535   H     0.79564   0.68533   0.77757   0.00000  Uiso   1.00
H536   H     0.15308   0.27613   0.91233   0.00000  Uiso   1.00
H537   H     0.89949   0.34599   0.72171   0.00000  Uiso   1.00
H538   H     0.95447   0.34040   0.58389   0.00000  Uiso   1.00
H539   H     0.78114   0.43993   0.75969   0.00000  Uiso   1.00
H540   H     0.95065   0.24587   0.82359   0.00000  Uiso   1.00
H541   H     0.03458   0.35282   0.42790   0.00000  Uiso   1.00
H542   H     0.66911   0.56266   0.79861   0.00000  Uiso   1.00
H543   H     0.02656   0.15347   0.93336   0.00000  Uiso   1.00
O544   O     0.13666   0.41309   0.32628   0.00000  Uiso   1.00
O545   O     0.65718   0.68838   0.81264   0.00000  Uiso   1.00
O546   O     0.12614   0.15153   0.98943   0.00000  Uiso   1.00
N547   N     0.12379   0.44738   0.43074   0.00000  Uiso   1.00
N548   N     0.78210   0.64357   0.77731   0.00000  Uiso   1.00
N549   N     0.11627   0.26101   0.90331   0.00000  Uiso   1.00
N550   N     0.05571   0.38137   0.44206   0.00000  Uiso   1.00
N551   N     0.71402   0.57756   0.78863   0.00000  Uiso   1.00
N552   N     0.04819   0.19501   0.91463   0.00000  Uiso   1.00
