data_job_05694
_audit_creation_date              2018-12-19
_audit_creation_method            'Materials Studio'
_symmetry_space_group_name_H-M    'P1'
_symmetry_Int_Tables_number       1
_symmetry_cell_setting            triclinic
loop_
_symmetry_equiv_pos_as_xyz
  x,y,z
_cell_length_a                    12.3780
_cell_length_b                    16.5177
_cell_length_c                    22.4496
_cell_angle_alpha                 90.0000
_cell_angle_beta                  143.1232
_cell_angle_gamma                 90.0000
loop_
_atom_site_label
_atom_site_type_symbol
_atom_site_fract_x
_atom_site_fract_y
_atom_site_fract_z
_atom_site_U_iso_or_equiv
_atom_site_adp_type
_atom_site_occupancy
C1     C     0.91428   0.31065   0.05067   0.00000  Uiso   1.00
C2     C     0.89893   0.22197   0.06209   0.00000  Uiso   1.00
C3     C     0.76212   0.18863   0.03596   0.00000  Uiso   1.00
C4     C     0.77245   0.10625   0.05229   0.00000  Uiso   1.00
C5     C     0.72706   0.97574   0.06382   0.00000  Uiso   1.00
C6     C     0.09753   0.33922   0.15377   0.00000  Uiso   1.00
C7     C     0.12768   0.40448   0.20471   0.00000  Uiso   1.00
C8     C     0.30519   0.42080   0.29821   0.00000  Uiso   1.00
C9     C     0.56812   0.47237   0.45204   0.00000  Uiso   1.00
C10    C     0.92568   0.31112   0.98789   0.00000  Uiso   1.00
C11    C     0.81138   0.35277   0.89936   0.00000  Uiso   1.00
C12    C     0.84424   0.34546   0.85321   0.00000  Uiso   1.00
C13    C     0.84036   0.35340   0.74949   0.00000  Uiso   1.00
C14    C     0.17592   0.22362   0.12613   0.00000  Uiso   1.00
C15    C     0.04105   0.17470   0.10308   0.00000  Uiso   1.00
C16    C     0.05159   0.09234   0.11944   0.00000  Uiso   1.00
C17    C     0.91481   0.05888   0.09334   0.00000  Uiso   1.00
C18    C     0.23963   0.29195   0.19476   0.00000  Uiso   1.00
C19    C     0.41714   0.30818   0.28819   0.00000  Uiso   1.00
C20    C     0.44756   0.37344   0.33927   0.00000  Uiso   1.00
C21    C     0.06779   0.26385   0.02887   0.00000  Uiso   1.00
C22    C     0.10085   0.25647   0.98285   0.00000  Uiso   1.00
C23    C     0.98661   0.29810   0.89427   0.00000  Uiso   1.00
H24    H     0.80365   0.34746   0.01877   0.00000  Uiso   1.00
H25    H     0.65217   0.22524   0.00425   0.00000  Uiso   1.00
H26    H     0.01768   0.44105   0.17297   0.00000  Uiso   1.00
H27    H     0.70143   0.38935   0.86767   0.00000  Uiso   1.00
H28    H     0.54694   0.06889   0.00626   0.00000  Uiso   1.00
H29    H     0.31763   0.52397   0.36200   0.00000  Uiso   1.00
H30    H     0.65075   0.41495   0.71822   0.00000  Uiso   1.00
H31    H     0.28656   0.18681   0.15805   0.00000  Uiso   1.00
H32    H     0.16158   0.05577   0.15116   0.00000  Uiso   1.00
H33    H     0.52708   0.27159   0.31989   0.00000  Uiso   1.00
H34    H     0.21083   0.21988   0.01459   0.00000  Uiso   1.00
H35    H     0.96040   0.93134   0.12551   0.00000  Uiso   1.00
H36    H     0.73109   0.38642   0.48124   0.00000  Uiso   1.00
H37    H     0.06421   0.27740   0.83746   0.00000  Uiso   1.00
O38    O     0.66277   0.91682   0.05888   0.00000  Uiso   1.00
O39    O     0.67388   0.51387   0.52558   0.00000  Uiso   1.00
O40    O     0.79895   0.37083   0.68095   0.00000  Uiso   1.00
N41    N     0.66138   0.05450   0.03525   0.00000  Uiso   1.00
N42    N     0.38192   0.47996   0.36785   0.00000  Uiso   1.00
N43    N     0.75848   0.37805   0.76598   0.00000  Uiso   1.00
N44    N     0.88386   0.98049   0.09942   0.00000  Uiso   1.00
N45    N     0.60440   0.40595   0.43202   0.00000  Uiso   1.00
N46    N     0.98095   0.30404   0.83015   0.00000  Uiso   1.00
C47    C     0.08572   0.31065   0.44933   0.00000  Uiso   1.00
C48    C     0.10107   0.22197   0.43791   0.00000  Uiso   1.00
C49    C     0.23788   0.18863   0.46404   0.00000  Uiso   1.00
C50    C     0.22755   0.10625   0.44771   0.00000  Uiso   1.00
C51    C     0.27294   0.97574   0.43618   0.00000  Uiso   1.00
C52    C     0.90247   0.33922   0.34623   0.00000  Uiso   1.00
C53    C     0.87232   0.40448   0.29529   0.00000  Uiso   1.00
C54    C     0.69481   0.42080   0.20179   0.00000  Uiso   1.00
C55    C     0.43188   0.47237   0.04796   0.00000  Uiso   1.00
C56    C     0.07432   0.31112   0.51211   0.00000  Uiso   1.00
C57    C     0.18862   0.35277   0.60064   0.00000  Uiso   1.00
C58    C     0.15576   0.34546   0.64679   0.00000  Uiso   1.00
C59    C     0.15964   0.35340   0.75051   0.00000  Uiso   1.00
C60    C     0.82408   0.22362   0.37387   0.00000  Uiso   1.00
C61    C     0.95895   0.17470   0.39692   0.00000  Uiso   1.00
C62    C     0.94841   0.09234   0.38056   0.00000  Uiso   1.00
C63    C     0.08519   0.05888   0.40666   0.00000  Uiso   1.00
C64    C     0.76037   0.29195   0.30524   0.00000  Uiso   1.00
C65    C     0.58286   0.30818   0.21181   0.00000  Uiso   1.00
C66    C     0.55244   0.37344   0.16073   0.00000  Uiso   1.00
C67    C     0.93221   0.26385   0.47113   0.00000  Uiso   1.00
C68    C     0.89915   0.25647   0.51715   0.00000  Uiso   1.00
C69    C     0.01339   0.29810   0.60573   0.00000  Uiso   1.00
H70    H     0.19635   0.34746   0.48123   0.00000  Uiso   1.00
H71    H     0.34783   0.22524   0.49575   0.00000  Uiso   1.00
H72    H     0.98232   0.44105   0.32703   0.00000  Uiso   1.00
H73    H     0.29857   0.38935   0.63233   0.00000  Uiso   1.00
H74    H     0.45306   0.06889   0.49374   0.00000  Uiso   1.00
H75    H     0.68237   0.52397   0.13800   0.00000  Uiso   1.00
H76    H     0.34925   0.41495   0.78178   0.00000  Uiso   1.00
H77    H     0.71344   0.18681   0.34195   0.00000  Uiso   1.00
H78    H     0.83842   0.05577   0.34884   0.00000  Uiso   1.00
H79    H     0.47292   0.27159   0.18011   0.00000  Uiso   1.00
H80    H     0.78917   0.21988   0.48541   0.00000  Uiso   1.00
H81    H     0.03960   0.93134   0.37449   0.00000  Uiso   1.00
H82    H     0.26891   0.38642   0.01876   0.00000  Uiso   1.00
H83    H     0.93579   0.27740   0.66254   0.00000  Uiso   1.00
O84    O     0.33723   0.91682   0.44112   0.00000  Uiso   1.00
O85    O     0.32612   0.51387   0.97442   0.00000  Uiso   1.00
O86    O     0.20105   0.37083   0.81905   0.00000  Uiso   1.00
N87    N     0.33862   0.05450   0.46475   0.00000  Uiso   1.00
N88    N     0.61808   0.47996   0.13215   0.00000  Uiso   1.00
N89    N     0.24152   0.37805   0.73402   0.00000  Uiso   1.00
N90    N     0.11614   0.98049   0.40058   0.00000  Uiso   1.00
N91    N     0.39560   0.40595   0.06798   0.00000  Uiso   1.00
N92    N     0.01905   0.30404   0.66985   0.00000  Uiso   1.00
C93    C     0.08572   0.68935   0.94933   0.00000  Uiso   1.00
C94    C     0.10107   0.77803   0.93791   0.00000  Uiso   1.00
C95    C     0.23788   0.81137   0.96404   0.00000  Uiso   1.00
C96    C     0.22755   0.89375   0.94771   0.00000  Uiso   1.00
C97    C     0.27294   0.02426   0.93618   0.00000  Uiso   1.00
C98    C     0.90247   0.66078   0.84623   0.00000  Uiso   1.00
C99    C     0.87232   0.59552   0.79529   0.00000  Uiso   1.00
C100   C     0.69481   0.57920   0.70179   0.00000  Uiso   1.00
C101   C     0.43188   0.52763   0.54796   0.00000  Uiso   1.00
C102   C     0.07432   0.68888   0.01211   0.00000  Uiso   1.00
C103   C     0.18862   0.64723   0.10064   0.00000  Uiso   1.00
C104   C     0.15576   0.65454   0.14679   0.00000  Uiso   1.00
C105   C     0.15964   0.64660   0.25051   0.00000  Uiso   1.00
C106   C     0.82408   0.77638   0.87387   0.00000  Uiso   1.00
C107   C     0.95895   0.82530   0.89692   0.00000  Uiso   1.00
C108   C     0.94841   0.90766   0.88056   0.00000  Uiso   1.00
C109   C     0.08519   0.94112   0.90666   0.00000  Uiso   1.00
C110   C     0.76037   0.70805   0.80524   0.00000  Uiso   1.00
C111   C     0.58286   0.69182   0.71181   0.00000  Uiso   1.00
C112   C     0.55244   0.62656   0.66073   0.00000  Uiso   1.00
C113   C     0.93221   0.73615   0.97113   0.00000  Uiso   1.00
C114   C     0.89915   0.74353   0.01715   0.00000  Uiso   1.00
C115   C     0.01339   0.70190   0.10573   0.00000  Uiso   1.00
H116   H     0.19635   0.65254   0.98123   0.00000  Uiso   1.00
H117   H     0.34783   0.77476   0.99575   0.00000  Uiso   1.00
H118   H     0.98232   0.55895   0.82703   0.00000  Uiso   1.00
H119   H     0.29857   0.61065   0.13233   0.00000  Uiso   1.00
H120   H     0.45306   0.93111   0.99374   0.00000  Uiso   1.00
H121   H     0.68237   0.47603   0.63800   0.00000  Uiso   1.00
H122   H     0.34925   0.58505   0.28178   0.00000  Uiso   1.00
H123   H     0.71344   0.81319   0.84195   0.00000  Uiso   1.00
H124   H     0.83842   0.94423   0.84884   0.00000  Uiso   1.00
H125   H     0.47292   0.72841   0.68011   0.00000  Uiso   1.00
H126   H     0.78917   0.78012   0.98541   0.00000  Uiso   1.00
H127   H     0.03960   0.06866   0.87449   0.00000  Uiso   1.00
H128   H     0.26891   0.61358   0.51876   0.00000  Uiso   1.00
H129   H     0.93579   0.72260   0.16254   0.00000  Uiso   1.00
O130   O     0.33723   0.08318   0.94112   0.00000  Uiso   1.00
O131   O     0.32612   0.48613   0.47442   0.00000  Uiso   1.00
O132   O     0.20105   0.62917   0.31905   0.00000  Uiso   1.00
N133   N     0.33862   0.94550   0.96475   0.00000  Uiso   1.00
N134   N     0.61808   0.52004   0.63215   0.00000  Uiso   1.00
N135   N     0.24152   0.62195   0.23402   0.00000  Uiso   1.00
N136   N     0.11614   0.01951   0.90058   0.00000  Uiso   1.00
N137   N     0.39560   0.59405   0.56798   0.00000  Uiso   1.00
N138   N     0.01905   0.69596   0.16985   0.00000  Uiso   1.00
C139   C     0.91428   0.68935   0.55067   0.00000  Uiso   1.00
C140   C     0.89893   0.77803   0.56209   0.00000  Uiso   1.00
C141   C     0.76212   0.81137   0.53596   0.00000  Uiso   1.00
C142   C     0.77245   0.89375   0.55229   0.00000  Uiso   1.00
C143   C     0.72706   0.02426   0.56382   0.00000  Uiso   1.00
C144   C     0.09753   0.66078   0.65377   0.00000  Uiso   1.00
C145   C     0.12768   0.59552   0.70471   0.00000  Uiso   1.00
C146   C     0.30519   0.57920   0.79821   0.00000  Uiso   1.00
C147   C     0.56812   0.52763   0.95204   0.00000  Uiso   1.00
C148   C     0.92568   0.68888   0.48789   0.00000  Uiso   1.00
C149   C     0.81138   0.64723   0.39936   0.00000  Uiso   1.00
C150   C     0.84424   0.65454   0.35321   0.00000  Uiso   1.00
C151   C     0.84036   0.64660   0.24949   0.00000  Uiso   1.00
C152   C     0.17592   0.77638   0.62613   0.00000  Uiso   1.00
C153   C     0.04105   0.82530   0.60308   0.00000  Uiso   1.00
C154   C     0.05159   0.90766   0.61944   0.00000  Uiso   1.00
C155   C     0.91481   0.94112   0.59334   0.00000  Uiso   1.00
C156   C     0.23963   0.70805   0.69476   0.00000  Uiso   1.00
C157   C     0.41714   0.69182   0.78819   0.00000  Uiso   1.00
C158   C     0.44756   0.62656   0.83927   0.00000  Uiso   1.00
C159   C     0.06779   0.73615   0.52887   0.00000  Uiso   1.00
C160   C     0.10085   0.74353   0.48285   0.00000  Uiso   1.00
C161   C     0.98661   0.70190   0.39427   0.00000  Uiso   1.00
H162   H     0.80365   0.65254   0.51877   0.00000  Uiso   1.00
H163   H     0.65217   0.77476   0.50425   0.00000  Uiso   1.00
H164   H     0.01768   0.55895   0.67297   0.00000  Uiso   1.00
H165   H     0.70143   0.61065   0.36767   0.00000  Uiso   1.00
H166   H     0.54694   0.93111   0.50626   0.00000  Uiso   1.00
H167   H     0.31763   0.47603   0.86200   0.00000  Uiso   1.00
H168   H     0.65075   0.58505   0.21822   0.00000  Uiso   1.00
H169   H     0.28656   0.81319   0.65805   0.00000  Uiso   1.00
H170   H     0.16158   0.94423   0.65116   0.00000  Uiso   1.00
H171   H     0.52708   0.72841   0.81989   0.00000  Uiso   1.00
H172   H     0.21083   0.78012   0.51459   0.00000  Uiso   1.00
H173   H     0.96040   0.06866   0.62551   0.00000  Uiso   1.00
H174   H     0.73109   0.61358   0.98124   0.00000  Uiso   1.00
H175   H     0.06421   0.72260   0.33746   0.00000  Uiso   1.00
O176   O     0.66277   0.08318   0.55888   0.00000  Uiso   1.00
O177   O     0.67388   0.48613   0.02558   0.00000  Uiso   1.00
O178   O     0.79895   0.62917   0.18095   0.00000  Uiso   1.00
N179   N     0.66138   0.94550   0.53525   0.00000  Uiso   1.00
N180   N     0.38192   0.52004   0.86785   0.00000  Uiso   1.00
N181   N     0.75848   0.62195   0.26598   0.00000  Uiso   1.00
N182   N     0.88386   0.01951   0.59942   0.00000  Uiso   1.00
N183   N     0.60440   0.59405   0.93202   0.00000  Uiso   1.00
N184   N     0.98095   0.69596   0.33015   0.00000  Uiso   1.00
