data_job_02311
_audit_creation_date              2018-12-19
_audit_creation_method            'Materials Studio'
_symmetry_space_group_name_H-M    'P1'
_symmetry_Int_Tables_number       1
_symmetry_cell_setting            triclinic
loop_
_symmetry_equiv_pos_as_xyz
  x,y,z
_cell_length_a                    12.8510
_cell_length_b                    15.0234
_cell_length_c                    12.0611
_cell_angle_alpha                 68.4949
_cell_angle_beta                  102.9470
_cell_angle_gamma                 89.0878
loop_
_atom_site_label
_atom_site_type_symbol
_atom_site_fract_x
_atom_site_fract_y
_atom_site_fract_z
_atom_site_U_iso_or_equiv
_atom_site_adp_type
_atom_site_occupancy
C1     C     0.28305   0.88620   0.64871   0.00000  Uiso   1.00
C2     C     0.39364   0.83834   0.66382   0.00000  Uiso   1.00
C3     C     0.49129   0.86746   0.70665   0.00000  Uiso   1.00
C4     C     0.58352   0.81418   0.71370   0.00000  Uiso   1.00
C5     C     0.75606   0.75199   0.74236   0.00000  Uiso   1.00
C6     C     0.22381   0.91234   0.51453   0.00000  Uiso   1.00
C7     C     0.17867   0.00368   0.43185   0.00000  Uiso   1.00
C8     C     0.12792   0.01268   0.31323   0.00000  Uiso   1.00
C9     C     0.03673   0.06537   0.11013   0.00000  Uiso   1.00
C10    C     0.22494   0.80759   0.72415   0.00000  Uiso   1.00
C11    C     0.18070   0.81085   0.81772   0.00000  Uiso   1.00
C12    C     0.13088   0.73167   0.87556   0.00000  Uiso   1.00
C13    C     0.04143   0.62171   0.99795   0.00000  Uiso   1.00
C14    C     0.27319   0.73978   0.58506   0.00000  Uiso   1.00
C15    C     0.38828   0.75881   0.62924   0.00000  Uiso   1.00
C16    C     0.48039   0.70547   0.63623   0.00000  Uiso   1.00
C17    C     0.57816   0.73450   0.67907   0.00000  Uiso   1.00
C18    C     0.21846   0.83282   0.47995   0.00000  Uiso   1.00
C19    C     0.16776   0.84169   0.36142   0.00000  Uiso   1.00
C20    C     0.12256   0.93301   0.27858   0.00000  Uiso   1.00
C21    C     0.21958   0.72806   0.68958   0.00000  Uiso   1.00
C22    C     0.16981   0.64886   0.74729   0.00000  Uiso   1.00
C23    C     0.12551   0.65200   0.84092   0.00000  Uiso   1.00
H24    H     0.28721   0.94812   0.67562   0.00000  Uiso   1.00
H25    H     0.49540   0.92902   0.73339   0.00000  Uiso   1.00
H26    H     0.18281   0.06521   0.45864   0.00000  Uiso   1.00
H27    H     0.18486   0.87241   0.84445   0.00000  Uiso   1.00
H28    H     0.72386   0.87279   0.78215   0.00000  Uiso   1.00
H29    H     0.06472   0.15995   0.20282   0.00000  Uiso   1.00
H30    H     0.06903   0.75340   0.01638   0.00000  Uiso   1.00
H31    H     0.26902   0.67787   0.55813   0.00000  Uiso   1.00
H32    H     0.47622   0.64393   0.60946   0.00000  Uiso   1.00
H33    H     0.16363   0.78013   0.33470   0.00000  Uiso   1.00
H34    H     0.16568   0.58733   0.72051   0.00000  Uiso   1.00
H35    H     0.70829   0.64140   0.68156   0.00000  Uiso   1.00
H36    H     0.04914   0.92857   0.10223   0.00000  Uiso   1.00
H37    H     0.05346   0.52201   0.91578   0.00000  Uiso   1.00
O38    O     0.85271   0.73967   0.76770   0.00000  Uiso   1.00
O39    O     0.98792   0.11641   0.00765   0.00000  Uiso   1.00
O40    O     0.99358   0.58302   0.07502   0.00000  Uiso   1.00
N41    N     0.69176   0.82298   0.75146   0.00000  Uiso   1.00
N42    N     0.07552   0.09146   0.20981   0.00000  Uiso   1.00
N43    N     0.07952   0.71138   0.97039   0.00000  Uiso   1.00
N44    N     0.68338   0.69847   0.69733   0.00000  Uiso   1.00
N45    N     0.06714   0.96695   0.15569   0.00000  Uiso   1.00
N46    N     0.07114   0.58687   0.91627   0.00000  Uiso   1.00
C47    C     0.71695   0.11380   0.35129   0.00000  Uiso   1.00
C48    C     0.60636   0.16166   0.33618   0.00000  Uiso   1.00
C49    C     0.50871   0.13254   0.29335   0.00000  Uiso   1.00
C50    C     0.41648   0.18582   0.28630   0.00000  Uiso   1.00
C51    C     0.24394   0.24801   0.25764   0.00000  Uiso   1.00
C52    C     0.77619   0.08766   0.48547   0.00000  Uiso   1.00
C53    C     0.82133   0.99632   0.56815   0.00000  Uiso   1.00
C54    C     0.87208   0.98732   0.68677   0.00000  Uiso   1.00
C55    C     0.96327   0.93463   0.88987   0.00000  Uiso   1.00
C56    C     0.77506   0.19241   0.27585   0.00000  Uiso   1.00
C57    C     0.81930   0.18915   0.18228   0.00000  Uiso   1.00
C58    C     0.86912   0.26833   0.12444   0.00000  Uiso   1.00
C59    C     0.95857   0.37829   0.00205   0.00000  Uiso   1.00
C60    C     0.72681   0.26022   0.41494   0.00000  Uiso   1.00
C61    C     0.61172   0.24119   0.37076   0.00000  Uiso   1.00
C62    C     0.51961   0.29453   0.36377   0.00000  Uiso   1.00
C63    C     0.42184   0.26550   0.32093   0.00000  Uiso   1.00
C64    C     0.78154   0.16718   0.52005   0.00000  Uiso   1.00
C65    C     0.83224   0.15831   0.63858   0.00000  Uiso   1.00
C66    C     0.87744   0.06699   0.72142   0.00000  Uiso   1.00
C67    C     0.78042   0.27194   0.31042   0.00000  Uiso   1.00
C68    C     0.83019   0.35114   0.25271   0.00000  Uiso   1.00
C69    C     0.87449   0.34800   0.15908   0.00000  Uiso   1.00
H70    H     0.71279   0.05188   0.32438   0.00000  Uiso   1.00
H71    H     0.50460   0.07098   0.26661   0.00000  Uiso   1.00
H72    H     0.81719   0.93479   0.54136   0.00000  Uiso   1.00
H73    H     0.81514   0.12759   0.15555   0.00000  Uiso   1.00
H74    H     0.27614   0.12721   0.21785   0.00000  Uiso   1.00
H75    H     0.93528   0.84005   0.79718   0.00000  Uiso   1.00
H76    H     0.93097   0.24660   0.98362   0.00000  Uiso   1.00
H77    H     0.73098   0.32213   0.44187   0.00000  Uiso   1.00
H78    H     0.52378   0.35607   0.39054   0.00000  Uiso   1.00
H79    H     0.83637   0.21987   0.66530   0.00000  Uiso   1.00
H80    H     0.83432   0.41267   0.27949   0.00000  Uiso   1.00
H81    H     0.29171   0.35860   0.31844   0.00000  Uiso   1.00
H82    H     0.95086   0.07143   0.89777   0.00000  Uiso   1.00
H83    H     0.94654   0.47799   0.08422   0.00000  Uiso   1.00
O84    O     0.14729   0.26033   0.23230   0.00000  Uiso   1.00
O85    O     0.01208   0.88359   0.99235   0.00000  Uiso   1.00
O86    O     0.00642   0.41698   0.92498   0.00000  Uiso   1.00
N87    N     0.30824   0.17702   0.24854   0.00000  Uiso   1.00
N88    N     0.92448   0.90854   0.79019   0.00000  Uiso   1.00
N89    N     0.92048   0.28862   0.02961   0.00000  Uiso   1.00
N90    N     0.31662   0.30153   0.30267   0.00000  Uiso   1.00
N91    N     0.93286   0.03305   0.84431   0.00000  Uiso   1.00
N92    N     0.92886   0.41313   0.08373   0.00000  Uiso   1.00
