data_job_06828
_audit_creation_date              2018-12-19
_audit_creation_method            'Materials Studio'
_symmetry_space_group_name_H-M    'P1'
_symmetry_Int_Tables_number       1
_symmetry_cell_setting            triclinic
loop_
_symmetry_equiv_pos_as_xyz
  x,y,z
_cell_length_a                    22.0062
_cell_length_b                    20.2945
_cell_length_c                    21.3630
_cell_angle_alpha                 102.6750
_cell_angle_beta                  102.3090
_cell_angle_gamma                 79.4606
loop_
_atom_site_label
_atom_site_type_symbol
_atom_site_fract_x
_atom_site_fract_y
_atom_site_fract_z
_atom_site_U_iso_or_equiv
_atom_site_adp_type
_atom_site_occupancy
C1     C     0.51753   0.16066   0.97793   0.00000  Uiso   1.00
C2     C     0.46810   0.11735   0.93710   0.00000  Uiso   1.00
C3     C     0.47972   0.04952   0.90707   0.00000  Uiso   1.00
C4     C     0.42813   0.01895   0.87188   0.00000  Uiso   1.00
C5     C     0.36066   0.94623   0.80921   0.00000  Uiso   1.00
C6     C     0.51002   0.22288   0.94638   0.00000  Uiso   1.00
C7     C     0.55689   0.24378   0.92416   0.00000  Uiso   1.00
C8     C     0.54059   0.30205   0.89679   0.00000  Uiso   1.00
C9     C     0.53821   0.39319   0.84858   0.00000  Uiso   1.00
C10    C     0.49754   0.18722   0.04408   0.00000  Uiso   1.00
C11    C     0.53392   0.17815   0.10400   0.00000  Uiso   1.00
C12    C     0.50712   0.20641   0.15890   0.00000  Uiso   1.00
C13    C     0.48537   0.24218   0.26237   0.00000  Uiso   1.00
C14    C     0.40526   0.22701   0.96886   0.00000  Uiso   1.00
C15    C     0.40712   0.15339   0.93218   0.00000  Uiso   1.00
C16    C     0.35550   0.12292   0.89703   0.00000  Uiso   1.00
C17    C     0.36704   0.05505   0.86695   0.00000  Uiso   1.00
C18    C     0.44904   0.25892   0.94146   0.00000  Uiso   1.00
C19    C     0.43268   0.31717   0.91413   0.00000  Uiso   1.00
C20    C     0.47950   0.33815   0.89186   0.00000  Uiso   1.00
C21    C     0.43656   0.22325   0.03916   0.00000  Uiso   1.00
C22    C     0.40971   0.25154   0.09397   0.00000  Uiso   1.00
C23    C     0.44603   0.24251   0.15396   0.00000  Uiso   1.00
H24    H     0.56501   0.13261   0.98176   0.00000  Uiso   1.00
H25    H     0.52692   0.02165   0.91088   0.00000  Uiso   1.00
H26    H     0.60407   0.21589   0.92798   0.00000  Uiso   1.00
H27    H     0.58111   0.15026   0.10780   0.00000  Uiso   1.00
H28    H     0.45779   0.91453   0.83011   0.00000  Uiso   1.00
H29    H     0.62049   0.32409   0.86618   0.00000  Uiso   1.00
H30    H     0.57206   0.18572   0.24536   0.00000  Uiso   1.00
H31    H     0.35779   0.25506   0.96503   0.00000  Uiso   1.00
H32    H     0.30832   0.15082   0.89323   0.00000  Uiso   1.00
H33    H     0.38548   0.34505   0.91033   0.00000  Uiso   1.00
H34    H     0.36251   0.27942   0.09014   0.00000  Uiso   1.00
H35    H     0.28037   0.01936   0.81578   0.00000  Uiso   1.00
H36    H     0.44308   0.42893   0.85185   0.00000  Uiso   1.00
H37    H     0.39464   0.29055   0.23103   0.00000  Uiso   1.00
O38    O     0.34029   0.89617   0.77600   0.00000  Uiso   1.00
O39    O     0.55374   0.43350   0.82333   0.00000  Uiso   1.00
O40    O     0.49021   0.25195   0.32080   0.00000  Uiso   1.00
N41    N     0.42282   0.95351   0.83660   0.00000  Uiso   1.00
N42    N     0.57494   0.33642   0.87031   0.00000  Uiso   1.00
N43    N     0.52967   0.20706   0.22481   0.00000  Uiso   1.00
N44    N     0.32736   0.00992   0.82889   0.00000  Uiso   1.00
N45    N     0.47947   0.39282   0.86260   0.00000  Uiso   1.00
N46    N     0.43420   0.26347   0.21710   0.00000  Uiso   1.00
C47    C     0.97472   0.42826   0.15884   0.00000  Uiso   1.00
C48    C     0.94245   0.36790   0.11939   0.00000  Uiso   1.00
C49    C     0.90995   0.36281   0.05565   0.00000  Uiso   1.00
C50    C     0.88378   0.30344   0.02817   0.00000  Uiso   1.00
C51    C     0.83271   0.21769   0.96159   0.00000  Uiso   1.00
C52    C     0.94638   0.45163   0.22065   0.00000  Uiso   1.00
C53    C     0.91720   0.51694   0.24206   0.00000  Uiso   1.00
C54    C     0.89434   0.52805   0.29982   0.00000  Uiso   1.00
C55    C     0.84942   0.57230   0.39048   0.00000  Uiso   1.00
C56    C     0.04307   0.39921   0.18071   0.00000  Uiso   1.00
C57    C     0.09519   0.42046   0.16855   0.00000  Uiso   1.00
C58    C     0.15375   0.38745   0.19270   0.00000  Uiso   1.00
C59    C     0.25895   0.35031   0.22134   0.00000  Uiso   1.00
C60    C     0.98603   0.33188   0.22336   0.00000  Uiso   1.00
C61    C     0.94859   0.31555   0.15444   0.00000  Uiso   1.00
C62    C     0.92246   0.25616   0.12704   0.00000  Uiso   1.00
C63    C     0.88993   0.25098   0.06328   0.00000  Uiso   1.00
C64    C     0.95252   0.39928   0.25569   0.00000  Uiso   1.00
C65    C     0.92971   0.41029   0.31345   0.00000  Uiso   1.00
C66    C     0.90049   0.47560   0.33493   0.00000  Uiso   1.00
C67    C     0.04921   0.34686   0.21575   0.00000  Uiso   1.00
C68    C     0.10770   0.31381   0.23993   0.00000  Uiso   1.00
C69    C     0.15990   0.33500   0.22781   0.00000  Uiso   1.00
H70    H     0.96994   0.46903   0.13156   0.00000  Uiso   1.00
H71    H     0.90521   0.40334   0.02855   0.00000  Uiso   1.00
H72    H     0.91246   0.55744   0.21493   0.00000  Uiso   1.00
H73    H     0.09042   0.46098   0.14143   0.00000  Uiso   1.00
H74    H     0.83613   0.30744   0.92981   0.00000  Uiso   1.00
H75    H     0.85144   0.63238   0.32281   0.00000  Uiso   1.00
H76    H     0.22671   0.42896   0.16782   0.00000  Uiso   1.00
H77    H     0.99081   0.29111   0.25065   0.00000  Uiso   1.00
H78    H     0.92722   0.21566   0.15417   0.00000  Uiso   1.00
H79    H     0.93447   0.36977   0.34055   0.00000  Uiso   1.00
H80    H     0.11243   0.27330   0.26705   0.00000  Uiso   1.00
H81    H     0.85399   0.15511   0.03177   0.00000  Uiso   1.00
H82    H     0.86930   0.48005   0.42478   0.00000  Uiso   1.00
H83    H     0.24458   0.27663   0.26978   0.00000  Uiso   1.00
O84    O     0.80284   0.18486   0.91519   0.00000  Uiso   1.00
O85    O     0.82293   0.61117   0.43079   0.00000  Uiso   1.00
O86    O     0.31528   0.34429   0.22745   0.00000  Uiso   1.00
N87    N     0.84907   0.28193   0.96704   0.00000  Uiso   1.00
N88    N     0.86337   0.58574   0.33447   0.00000  Uiso   1.00
N89    N     0.21423   0.39557   0.18958   0.00000  Uiso   1.00
N90    N     0.85868   0.19997   0.02191   0.00000  Uiso   1.00
N91    N     0.87299   0.50377   0.38934   0.00000  Uiso   1.00
N92    N     0.22384   0.31360   0.24445   0.00000  Uiso   1.00
C93    C     0.99395   0.85926   0.34526   0.00000  Uiso   1.00
C94    C     0.95365   0.82205   0.28552   0.00000  Uiso   1.00
C95    C     0.90028   0.79474   0.28560   0.00000  Uiso   1.00
C96    C     0.87001   0.76265   0.22587   0.00000  Uiso   1.00
C97    C     0.80404   0.70554   0.14189   0.00000  Uiso   1.00
C98    C     0.06055   0.82099   0.34698   0.00000  Uiso   1.00
C99    C     0.09706   0.79281   0.39875   0.00000  Uiso   1.00
C100   C     0.15678   0.75985   0.39076   0.00000  Uiso   1.00
C101   C     0.25679   0.70114   0.40221   0.00000  Uiso   1.00
C102   C     0.99586   0.92896   0.33050   0.00000  Uiso   1.00
C103   C     0.97800   0.99156   0.36841   0.00000  Uiso   1.00
C104   C     0.98327   0.04949   0.34655   0.00000  Uiso   1.00
C105   C     0.98285   0.15842   0.33241   0.00000  Uiso   1.00
C106   C     0.03510   0.85083   0.23904   0.00000  Uiso   1.00
C107   C     0.97600   0.81747   0.22782   0.00000  Uiso   1.00
C108   C     0.94580   0.78541   0.16808   0.00000  Uiso   1.00
C109   C     0.89239   0.75807   0.16807   0.00000  Uiso   1.00
C110   C     0.08290   0.81641   0.28929   0.00000  Uiso   1.00
C111   C     0.14258   0.78349   0.28122   0.00000  Uiso   1.00
C112   C     0.17917   0.75526   0.33296   0.00000  Uiso   1.00
C113   C     0.01821   0.92438   0.27280   0.00000  Uiso   1.00
C114   C     0.02352   0.98223   0.25088   0.00000  Uiso   1.00
C115   C     0.00566   0.04490   0.28875   0.00000  Uiso   1.00
H116   H     0.97656   0.86282   0.39018   0.00000  Uiso   1.00
H117   H     0.88300   0.79829   0.33026   0.00000  Uiso   1.00
H118   H     0.07975   0.79637   0.44339   0.00000  Uiso   1.00
H119   H     0.96071   0.99508   0.41305   0.00000  Uiso   1.00
H120   H     0.78914   0.72470   0.23839   0.00000  Uiso   1.00
H121   H     0.20401   0.72067   0.47693   0.00000  Uiso   1.00
H122   H     0.95299   0.13970   0.41297   0.00000  Uiso   1.00
H123   H     0.05250   0.84726   0.19412   0.00000  Uiso   1.00
H124   H     0.96310   0.78188   0.12344   0.00000  Uiso   1.00
H125   H     0.15986   0.77995   0.23657   0.00000  Uiso   1.00
H126   H     0.04081   0.97867   0.20623   0.00000  Uiso   1.00
H127   H     0.85416   0.71138   0.07052   0.00000  Uiso   1.00
H128   H     0.26903   0.70735   0.30907   0.00000  Uiso   1.00
H129   H     0.01800   0.12637   0.24510   0.00000  Uiso   1.00
O130   O     0.76149   0.67529   0.11150   0.00000  Uiso   1.00
O131   O     0.30578   0.67001   0.42447   0.00000  Uiso   1.00
O132   O     0.97644   0.21976   0.34054   0.00000  Uiso   1.00
N133   N     0.81671   0.73055   0.20858   0.00000  Uiso   1.00
N134   N     0.20458   0.72677   0.43160   0.00000  Uiso   1.00
N135   N     0.96991   0.11853   0.37181   0.00000  Uiso   1.00
N136   N     0.85169   0.72338   0.11825   0.00000  Uiso   1.00
N137   N     0.23956   0.71960   0.34127   0.00000  Uiso   1.00
N138   N     0.00489   0.11136   0.28148   0.00000  Uiso   1.00
C139   C     0.92007   0.44809   0.58653   0.00000  Uiso   1.00
C140   C     0.87998   0.40816   0.52852   0.00000  Uiso   1.00
C141   C     0.90223   0.36214   0.47720   0.00000  Uiso   1.00
C142   C     0.85799   0.33084   0.42885   0.00000  Uiso   1.00
C143   C     0.80551   0.26665   0.33834   0.00000  Uiso   1.00
C144   C     0.90543   0.43092   0.64725   0.00000  Uiso   1.00
C145   C     0.94907   0.40405   0.69576   0.00000  Uiso   1.00
C146   C     0.92626   0.39192   0.74736   0.00000  Uiso   1.00
C147   C     0.91329   0.36311   0.84121   0.00000  Uiso   1.00
C148   C     0.89385   0.52318   0.58750   0.00000  Uiso   1.00
C149   C     0.92776   0.57389   0.58581   0.00000  Uiso   1.00
C150   C     0.89519   0.63944   0.58712   0.00000  Uiso   1.00
C151   C     0.86425   0.75388   0.58821   0.00000  Uiso   1.00
C152   C     0.80195   0.47435   0.59190   0.00000  Uiso   1.00
C153   C     0.81582   0.42242   0.53144   0.00000  Uiso   1.00
C154   C     0.77154   0.39119   0.48314   0.00000  Uiso   1.00
C155   C     0.79372   0.34514   0.43177   0.00000  Uiso   1.00
C156   C     0.84127   0.44518   0.65017   0.00000  Uiso   1.00
C157   C     0.81838   0.43310   0.70171   0.00000  Uiso   1.00
C158   C     0.86198   0.40621   0.75028   0.00000  Uiso   1.00
C159   C     0.82969   0.53744   0.59042   0.00000  Uiso   1.00
C160   C     0.79707   0.60294   0.59174   0.00000  Uiso   1.00
C161   C     0.83092   0.65373   0.59004   0.00000  Uiso   1.00
H162   H     0.97002   0.43698   0.58426   0.00000  Uiso   1.00
H163   H     0.95188   0.35111   0.47497   0.00000  Uiso   1.00
H164   H     0.99872   0.39302   0.69350   0.00000  Uiso   1.00
H165   H     0.97740   0.56283   0.58355   0.00000  Uiso   1.00
H166   H     0.90348   0.26217   0.35509   0.00000  Uiso   1.00
H167   H     0.00225   0.35056   0.81588   0.00000  Uiso   1.00
H168   H     0.95730   0.70864   0.58404   0.00000  Uiso   1.00
H169   H     0.75199   0.48545   0.59417   0.00000  Uiso   1.00
H170   H     0.72189   0.40224   0.48542   0.00000  Uiso   1.00
H171   H     0.76873   0.44415   0.70395   0.00000  Uiso   1.00
H172   H     0.74742   0.61396   0.59400   0.00000  Uiso   1.00
H173   H     0.71682   0.30367   0.36357   0.00000  Uiso   1.00
H174   H     0.81558   0.39206   0.82437   0.00000  Uiso   1.00
H175   H     0.77064   0.75014   0.59252   0.00000  Uiso   1.00
O176   O     0.79429   0.22729   0.28762   0.00000  Uiso   1.00
O177   O     0.92386   0.34327   0.89217   0.00000  Uiso   1.00
O178   O     0.86490   0.81305   0.58799   0.00000  Uiso   1.00
N179   N     0.86368   0.28337   0.37200   0.00000  Uiso   1.00
N180   N     0.95602   0.36600   0.80282   0.00000  Uiso   1.00
N181   N     0.91400   0.70078   0.58608   0.00000  Uiso   1.00
N182   N     0.76324   0.30570   0.37657   0.00000  Uiso   1.00
N183   N     0.85557   0.38833   0.80738   0.00000  Uiso   1.00
N184   N     0.81356   0.72311   0.59064   0.00000  Uiso   1.00
C185   C     0.40130   0.58635   0.90684   0.00000  Uiso   1.00
C186   C     0.36888   0.53426   0.85351   0.00000  Uiso   1.00
C187   C     0.34419   0.47991   0.86337   0.00000  Uiso   1.00
C188   C     0.31641   0.43804   0.80822   0.00000  Uiso   1.00
C189   C     0.26649   0.35533   0.73496   0.00000  Uiso   1.00
C190   C     0.36523   0.65610   0.89705   0.00000  Uiso   1.00
C191   C     0.33748   0.70419   0.94352   0.00000  Uiso   1.00
C192   C     0.30662   0.76489   0.92502   0.00000  Uiso   1.00
C193   C     0.25108   0.87135   0.91936   0.00000  Uiso   1.00
C194   C     0.46605   0.58398   0.89084   0.00000  Uiso   1.00
C195   C     0.52308   0.57145   0.93208   0.00000  Uiso   1.00
C196   C     0.57711   0.57144   0.90835   0.00000  Uiso   1.00
C197   C     0.67811   0.56593   0.89305   0.00000  Uiso   1.00
C198   C     0.39585   0.60864   0.79137   0.00000  Uiso   1.00
C199   C     0.36592   0.54637   0.79080   0.00000  Uiso   1.00
C200   C     0.33817   0.50456   0.73562   0.00000  Uiso   1.00
C201   C     0.31345   0.45016   0.74539   0.00000  Uiso   1.00
C202   C     0.36227   0.66820   0.83433   0.00000  Uiso   1.00
C203   C     0.33145   0.72884   0.81576   0.00000  Uiso   1.00
C204   C     0.30366   0.77701   0.86219   0.00000  Uiso   1.00
C205   C     0.46310   0.59608   0.82812   0.00000  Uiso   1.00
C206   C     0.51705   0.59610   0.80432   0.00000  Uiso   1.00
C207   C     0.57415   0.58357   0.84552   0.00000  Uiso   1.00
H208   H     0.40360   0.57694   0.95567   0.00000  Uiso   1.00
H209   H     0.34648   0.47057   0.91192   0.00000  Uiso   1.00
H210   H     0.33978   0.69481   0.99205   0.00000  Uiso   1.00
H211   H     0.52535   0.56209   0.98061   0.00000  Uiso   1.00
H212   H     0.28184   0.35799   0.83574   0.00000  Uiso   1.00
H213   H     0.26772   0.83083   0.00472   0.00000  Uiso   1.00
H214   H     0.65903   0.55096   0.98060   0.00000  Uiso   1.00
H215   H     0.39355   0.61806   0.74254   0.00000  Uiso   1.00
H216   H     0.33589   0.51394   0.68709   0.00000  Uiso   1.00
H217   H     0.32918   0.73819   0.76722   0.00000  Uiso   1.00
H218   H     0.51475   0.60547   0.75579   0.00000  Uiso   1.00
H219   H     0.27324   0.39320   0.65326   0.00000  Uiso   1.00
H220   H     0.25911   0.86605   0.82224   0.00000  Uiso   1.00
H221   H     0.65042   0.58617   0.79812   0.00000  Uiso   1.00
O222   O     0.23977   0.30637   0.71187   0.00000  Uiso   1.00
O223   O     0.22125   0.92673   0.93357   0.00000  Uiso   1.00
O224   O     0.73464   0.55954   0.90192   0.00000  Uiso   1.00
N225   N     0.28774   0.38056   0.80041   0.00000  Uiso   1.00
N226   N     0.27453   0.82263   0.95839   0.00000  Uiso   1.00
N227   N     0.64037   0.56099   0.93585   0.00000  Uiso   1.00
N228   N     0.28311   0.39950   0.70222   0.00000  Uiso   1.00
N229   N     0.26990   0.84158   0.86020   0.00000  Uiso   1.00
N230   N     0.63574   0.57994   0.83766   0.00000  Uiso   1.00
C231   C     0.43214   0.88261   0.35032   0.00000  Uiso   1.00
C232   C     0.39987   0.82251   0.31020   0.00000  Uiso   1.00
C233   C     0.34489   0.82682   0.26430   0.00000  Uiso   1.00
C234   C     0.32295   0.76593   0.23280   0.00000  Uiso   1.00
C235   C     0.26800   0.68217   0.16836   0.00000  Uiso   1.00
C236   C     0.49906   0.86835   0.33678   0.00000  Uiso   1.00
C237   C     0.52749   0.91120   0.31323   0.00000  Uiso   1.00
C238   C     0.58905   0.88891   0.30410   0.00000  Uiso   1.00
C239   C     0.68812   0.87633   0.28097   0.00000  Uiso   1.00
C240   C     0.43778   0.87764   0.42158   0.00000  Uiso   1.00
C241   C     0.41469   0.92831   0.46934   0.00000  Uiso   1.00
C242   C     0.42467   0.91384   0.53162   0.00000  Uiso   1.00
C243   C     0.42858   0.91569   0.64015   0.00000  Uiso   1.00
C244   C     0.49093   0.76683   0.37600   0.00000  Uiso   1.00
C245   C     0.43180   0.75962   0.32415   0.00000  Uiso   1.00
C246   C     0.40994   0.69871   0.29271   0.00000  Uiso   1.00
C247   C     0.35494   0.70293   0.24677   0.00000  Uiso   1.00
C248   C     0.53099   0.80546   0.35072   0.00000  Uiso   1.00
C249   C     0.59253   0.78310   0.34164   0.00000  Uiso   1.00
C250   C     0.62104   0.82590   0.31808   0.00000  Uiso   1.00
C251   C     0.46971   0.81475   0.43553   0.00000  Uiso   1.00
C252   C     0.47973   0.80020   0.49775   0.00000  Uiso   1.00
C253   C     0.45666   0.85084   0.54559   0.00000  Uiso   1.00
H254   H     0.40728   0.93158   0.33946   0.00000  Uiso   1.00
H255   H     0.32020   0.87550   0.25351   0.00000  Uiso   1.00
H256   H     0.50277   0.95987   0.30244   0.00000  Uiso   1.00
H257   H     0.38998   0.97697   0.45852   0.00000  Uiso   1.00
H258   H     0.23775   0.78558   0.16436   0.00000  Uiso   1.00
H259   H     0.62271   0.96350   0.26755   0.00000  Uiso   1.00
H260   H     0.38488   0.99957   0.59668   0.00000  Uiso   1.00
H261   H     0.51579   0.71786   0.38686   0.00000  Uiso   1.00
H262   H     0.43466   0.65005   0.30352   0.00000  Uiso   1.00
H263   H     0.61723   0.73443   0.35244   0.00000  Uiso   1.00
H264   H     0.50444   0.75153   0.50852   0.00000  Uiso   1.00
H265   H     0.33065   0.60260   0.20494   0.00000  Uiso   1.00
H266   H     0.71561   0.78053   0.30813   0.00000  Uiso   1.00
H267   H     0.47778   0.81658   0.63726   0.00000  Uiso   1.00
O268   O     0.22888   0.65334   0.12895   0.00000  Uiso   1.00
O269   O     0.73394   0.88677   0.26434   0.00000  Uiso   1.00
O270   O     0.42191   0.93408   0.69615   0.00000  Uiso   1.00
N271   N     0.27074   0.75183   0.18536   0.00000  Uiso   1.00
N272   N     0.63065   0.91817   0.28182   0.00000  Uiso   1.00
N273   N     0.40832   0.95189   0.58954   0.00000  Uiso   1.00
N274   N     0.32073   0.65336   0.20720   0.00000  Uiso   1.00
N275   N     0.68064   0.81971   0.30366   0.00000  Uiso   1.00
N276   N     0.45831   0.85343   0.61138   0.00000  Uiso   1.00
C277   C     0.48247   0.83934   0.02207   0.00000  Uiso   1.00
C278   C     0.53190   0.88265   0.06290   0.00000  Uiso   1.00
C279   C     0.52028   0.95048   0.09293   0.00000  Uiso   1.00
C280   C     0.57187   0.98105   0.12812   0.00000  Uiso   1.00
C281   C     0.63934   0.05377   0.19079   0.00000  Uiso   1.00
C282   C     0.48998   0.77712   0.05362   0.00000  Uiso   1.00
C283   C     0.44311   0.75622   0.07584   0.00000  Uiso   1.00
C284   C     0.45941   0.69795   0.10321   0.00000  Uiso   1.00
C285   C     0.46179   0.60681   0.15142   0.00000  Uiso   1.00
C286   C     0.50246   0.81278   0.95592   0.00000  Uiso   1.00
C287   C     0.46608   0.82185   0.89600   0.00000  Uiso   1.00
C288   C     0.49288   0.79359   0.84110   0.00000  Uiso   1.00
C289   C     0.51463   0.75782   0.73763   0.00000  Uiso   1.00
C290   C     0.59474   0.77299   0.03114   0.00000  Uiso   1.00
C291   C     0.59288   0.84661   0.06782   0.00000  Uiso   1.00
C292   C     0.64450   0.87708   0.10297   0.00000  Uiso   1.00
C293   C     0.63296   0.94495   0.13305   0.00000  Uiso   1.00
C294   C     0.55096   0.74108   0.05854   0.00000  Uiso   1.00
C295   C     0.56732   0.68283   0.08587   0.00000  Uiso   1.00
C296   C     0.52050   0.66185   0.10814   0.00000  Uiso   1.00
C297   C     0.56344   0.77675   0.96084   0.00000  Uiso   1.00
C298   C     0.59029   0.74846   0.90603   0.00000  Uiso   1.00
C299   C     0.55397   0.75749   0.84604   0.00000  Uiso   1.00
H300   H     0.43499   0.86739   0.01824   0.00000  Uiso   1.00
H301   H     0.47308   0.97835   0.08912   0.00000  Uiso   1.00
H302   H     0.39593   0.78411   0.07202   0.00000  Uiso   1.00
H303   H     0.41889   0.84974   0.89220   0.00000  Uiso   1.00
H304   H     0.54221   0.08547   0.16989   0.00000  Uiso   1.00
H305   H     0.37951   0.67591   0.13382   0.00000  Uiso   1.00
H306   H     0.42794   0.81428   0.75464   0.00000  Uiso   1.00
H307   H     0.64221   0.74494   0.03497   0.00000  Uiso   1.00
H308   H     0.69168   0.84918   0.10677   0.00000  Uiso   1.00
H309   H     0.61452   0.65495   0.08967   0.00000  Uiso   1.00
H310   H     0.63749   0.72058   0.90986   0.00000  Uiso   1.00
H311   H     0.71963   0.98064   0.18422   0.00000  Uiso   1.00
H312   H     0.55692   0.57107   0.14815   0.00000  Uiso   1.00
H313   H     0.60536   0.70945   0.76897   0.00000  Uiso   1.00
O314   O     0.65971   0.10383   0.22400   0.00000  Uiso   1.00
O315   O     0.44626   0.56650   0.17667   0.00000  Uiso   1.00
O316   O     0.50979   0.74805   0.67920   0.00000  Uiso   1.00
N317   N     0.57718   0.04649   0.16340   0.00000  Uiso   1.00
N318   N     0.42506   0.66358   0.12969   0.00000  Uiso   1.00
N319   N     0.47033   0.79294   0.77519   0.00000  Uiso   1.00
N320   N     0.67264   0.99008   0.17111   0.00000  Uiso   1.00
N321   N     0.52053   0.60718   0.13740   0.00000  Uiso   1.00
N322   N     0.56580   0.73653   0.78290   0.00000  Uiso   1.00
C323   C     0.02528   0.57174   0.84116   0.00000  Uiso   1.00
C324   C     0.05755   0.63210   0.88061   0.00000  Uiso   1.00
C325   C     0.09005   0.63719   0.94435   0.00000  Uiso   1.00
C326   C     0.11622   0.69656   0.97183   0.00000  Uiso   1.00
C327   C     0.16729   0.78231   0.03841   0.00000  Uiso   1.00
C328   C     0.05362   0.54837   0.77935   0.00000  Uiso   1.00
C329   C     0.08280   0.48306   0.75794   0.00000  Uiso   1.00
C330   C     0.10566   0.47195   0.70018   0.00000  Uiso   1.00
C331   C     0.15058   0.42770   0.60952   0.00000  Uiso   1.00
C332   C     0.95693   0.60079   0.81929   0.00000  Uiso   1.00
C333   C     0.90481   0.57954   0.83145   0.00000  Uiso   1.00
C334   C     0.84625   0.61255   0.80730   0.00000  Uiso   1.00
C335   C     0.74105   0.64969   0.77866   0.00000  Uiso   1.00
C336   C     0.01397   0.66812   0.77664   0.00000  Uiso   1.00
C337   C     0.05141   0.68445   0.84556   0.00000  Uiso   1.00
C338   C     0.07754   0.74384   0.87296   0.00000  Uiso   1.00
C339   C     0.11007   0.74902   0.93672   0.00000  Uiso   1.00
C340   C     0.04748   0.60072   0.74431   0.00000  Uiso   1.00
C341   C     0.07029   0.58971   0.68655   0.00000  Uiso   1.00
C342   C     0.09951   0.52440   0.66507   0.00000  Uiso   1.00
C343   C     0.95079   0.65314   0.78425   0.00000  Uiso   1.00
C344   C     0.89230   0.68619   0.76007   0.00000  Uiso   1.00
C345   C     0.84010   0.66500   0.77219   0.00000  Uiso   1.00
H346   H     0.03006   0.53097   0.86844   0.00000  Uiso   1.00
H347   H     0.09479   0.59666   0.97145   0.00000  Uiso   1.00
H348   H     0.08754   0.44256   0.78507   0.00000  Uiso   1.00
H349   H     0.90958   0.53902   0.85857   0.00000  Uiso   1.00
H350   H     0.16387   0.69256   0.07019   0.00000  Uiso   1.00
H351   H     0.14856   0.36762   0.67719   0.00000  Uiso   1.00
H352   H     0.77329   0.57104   0.83218   0.00000  Uiso   1.00
H353   H     0.00919   0.70889   0.74935   0.00000  Uiso   1.00
H354   H     0.07278   0.78434   0.84583   0.00000  Uiso   1.00
H355   H     0.06553   0.63023   0.65945   0.00000  Uiso   1.00
H356   H     0.88757   0.72670   0.73295   0.00000  Uiso   1.00
H357   H     0.14601   0.84489   0.96823   0.00000  Uiso   1.00
H358   H     0.13070   0.51995   0.57522   0.00000  Uiso   1.00
H359   H     0.75542   0.72337   0.73022   0.00000  Uiso   1.00
O360   O     0.19716   0.81514   0.08481   0.00000  Uiso   1.00
O361   O     0.17707   0.38883   0.56921   0.00000  Uiso   1.00
O362   O     0.68472   0.65571   0.77255   0.00000  Uiso   1.00
N363   N     0.15093   0.71807   0.03296   0.00000  Uiso   1.00
N364   N     0.13663   0.41426   0.66553   0.00000  Uiso   1.00
N365   N     0.78577   0.60443   0.81042   0.00000  Uiso   1.00
N366   N     0.14132   0.80003   0.97809   0.00000  Uiso   1.00
N367   N     0.12701   0.49623   0.61066   0.00000  Uiso   1.00
N368   N     0.77616   0.68640   0.75555   0.00000  Uiso   1.00
C369   C     0.00605   0.14074   0.65474   0.00000  Uiso   1.00
C370   C     0.04635   0.17795   0.71448   0.00000  Uiso   1.00
C371   C     0.09972   0.20526   0.71440   0.00000  Uiso   1.00
C372   C     0.12999   0.23735   0.77413   0.00000  Uiso   1.00
C373   C     0.19596   0.29446   0.85811   0.00000  Uiso   1.00
C374   C     0.93945   0.17901   0.65302   0.00000  Uiso   1.00
C375   C     0.90294   0.20719   0.60125   0.00000  Uiso   1.00
C376   C     0.84322   0.24015   0.60924   0.00000  Uiso   1.00
C377   C     0.74321   0.29886   0.59779   0.00000  Uiso   1.00
C378   C     0.00414   0.07104   0.66950   0.00000  Uiso   1.00
C379   C     0.02200   0.00844   0.63159   0.00000  Uiso   1.00
C380   C     0.01673   0.95051   0.65345   0.00000  Uiso   1.00
C381   C     0.01715   0.84158   0.66759   0.00000  Uiso   1.00
C382   C     0.96490   0.14917   0.76096   0.00000  Uiso   1.00
C383   C     0.02400   0.18253   0.77218   0.00000  Uiso   1.00
C384   C     0.05420   0.21459   0.83192   0.00000  Uiso   1.00
C385   C     0.10761   0.24193   0.83193   0.00000  Uiso   1.00
C386   C     0.91710   0.18359   0.71071   0.00000  Uiso   1.00
C387   C     0.85742   0.21651   0.71878   0.00000  Uiso   1.00
C388   C     0.82083   0.24474   0.66704   0.00000  Uiso   1.00
C389   C     0.98179   0.07562   0.72720   0.00000  Uiso   1.00
C390   C     0.97648   0.01777   0.74912   0.00000  Uiso   1.00
C391   C     0.99434   0.95510   0.71125   0.00000  Uiso   1.00
H392   H     0.02344   0.13718   0.60982   0.00000  Uiso   1.00
H393   H     0.11700   0.20171   0.66974   0.00000  Uiso   1.00
H394   H     0.92025   0.20363   0.55661   0.00000  Uiso   1.00
H395   H     0.03929   0.00492   0.58695   0.00000  Uiso   1.00
H396   H     0.21086   0.27530   0.76161   0.00000  Uiso   1.00
H397   H     0.79599   0.27933   0.52307   0.00000  Uiso   1.00
H398   H     0.04701   0.86030   0.58703   0.00000  Uiso   1.00
H399   H     0.94750   0.15274   0.80588   0.00000  Uiso   1.00
H400   H     0.03690   0.21812   0.87656   0.00000  Uiso   1.00
H401   H     0.84014   0.22005   0.76343   0.00000  Uiso   1.00
H402   H     0.95919   0.02133   0.79377   0.00000  Uiso   1.00
H403   H     0.14584   0.28862   0.92948   0.00000  Uiso   1.00
H404   H     0.73097   0.29265   0.69093   0.00000  Uiso   1.00
H405   H     0.98200   0.87363   0.75490   0.00000  Uiso   1.00
O406   O     0.23851   0.32471   0.88850   0.00000  Uiso   1.00
O407   O     0.69422   0.32999   0.57553   0.00000  Uiso   1.00
O408   O     0.02356   0.78024   0.65946   0.00000  Uiso   1.00
N409   N     0.18329   0.26945   0.79142   0.00000  Uiso   1.00
N410   N     0.79542   0.27323   0.56840   0.00000  Uiso   1.00
N411   N     0.03009   0.88147   0.62819   0.00000  Uiso   1.00
N412   N     0.14831   0.27662   0.88175   0.00000  Uiso   1.00
N413   N     0.76044   0.28040   0.65873   0.00000  Uiso   1.00
N414   N     0.99511   0.88864   0.71852   0.00000  Uiso   1.00
C415   C     0.07993   0.55191   0.41347   0.00000  Uiso   1.00
C416   C     0.12002   0.59184   0.47148   0.00000  Uiso   1.00
C417   C     0.09777   0.63786   0.52280   0.00000  Uiso   1.00
C418   C     0.14201   0.66916   0.57115   0.00000  Uiso   1.00
C419   C     0.19449   0.73335   0.66166   0.00000  Uiso   1.00
C420   C     0.09457   0.56908   0.35275   0.00000  Uiso   1.00
C421   C     0.05093   0.59595   0.30424   0.00000  Uiso   1.00
C422   C     0.07374   0.60808   0.25264   0.00000  Uiso   1.00
C423   C     0.08671   0.63689   0.15879   0.00000  Uiso   1.00
C424   C     0.10615   0.47682   0.41250   0.00000  Uiso   1.00
C425   C     0.07224   0.42611   0.41419   0.00000  Uiso   1.00
C426   C     0.10481   0.36056   0.41288   0.00000  Uiso   1.00
C427   C     0.13575   0.24612   0.41179   0.00000  Uiso   1.00
C428   C     0.19805   0.52565   0.40810   0.00000  Uiso   1.00
C429   C     0.18418   0.57758   0.46856   0.00000  Uiso   1.00
C430   C     0.22846   0.60881   0.51686   0.00000  Uiso   1.00
C431   C     0.20628   0.65486   0.56823   0.00000  Uiso   1.00
C432   C     0.15873   0.55482   0.34983   0.00000  Uiso   1.00
C433   C     0.18162   0.56690   0.29829   0.00000  Uiso   1.00
C434   C     0.13802   0.59379   0.24972   0.00000  Uiso   1.00
C435   C     0.17031   0.46256   0.40958   0.00000  Uiso   1.00
C436   C     0.20293   0.39706   0.40826   0.00000  Uiso   1.00
C437   C     0.16908   0.34627   0.40996   0.00000  Uiso   1.00
H438   H     0.02998   0.56302   0.41574   0.00000  Uiso   1.00
H439   H     0.04812   0.64889   0.52503   0.00000  Uiso   1.00
H440   H     0.00128   0.60698   0.30650   0.00000  Uiso   1.00
H441   H     0.02260   0.43717   0.41645   0.00000  Uiso   1.00
H442   H     0.09652   0.73783   0.64491   0.00000  Uiso   1.00
H443   H     0.99775   0.64944   0.18412   0.00000  Uiso   1.00
H444   H     0.04270   0.29136   0.41596   0.00000  Uiso   1.00
H445   H     0.24801   0.51455   0.40583   0.00000  Uiso   1.00
H446   H     0.27811   0.59776   0.51458   0.00000  Uiso   1.00
H447   H     0.23127   0.55585   0.29605   0.00000  Uiso   1.00
H448   H     0.25258   0.38604   0.40600   0.00000  Uiso   1.00
H449   H     0.28318   0.69633   0.63643   0.00000  Uiso   1.00
H450   H     0.18442   0.60794   0.17563   0.00000  Uiso   1.00
H451   H     0.22936   0.24986   0.40748   0.00000  Uiso   1.00
O452   O     0.20571   0.77271   0.71238   0.00000  Uiso   1.00
O453   O     0.07614   0.65673   0.10783   0.00000  Uiso   1.00
O454   O     0.13510   0.18695   0.41201   0.00000  Uiso   1.00
N455   N     0.13632   0.71663   0.62800   0.00000  Uiso   1.00
N456   N     0.04398   0.63400   0.19718   0.00000  Uiso   1.00
N457   N     0.08600   0.29922   0.41392   0.00000  Uiso   1.00
N458   N     0.23676   0.69430   0.62343   0.00000  Uiso   1.00
N459   N     0.14443   0.61167   0.19262   0.00000  Uiso   1.00
N460   N     0.18644   0.27689   0.40936   0.00000  Uiso   1.00
C461   C     0.59870   0.41365   0.09316   0.00000  Uiso   1.00
C462   C     0.63112   0.46574   0.14649   0.00000  Uiso   1.00
C463   C     0.65581   0.52009   0.13663   0.00000  Uiso   1.00
C464   C     0.68359   0.56196   0.19178   0.00000  Uiso   1.00
C465   C     0.73351   0.64467   0.26504   0.00000  Uiso   1.00
C466   C     0.63477   0.34390   0.10295   0.00000  Uiso   1.00
C467   C     0.66252   0.29581   0.05648   0.00000  Uiso   1.00
C468   C     0.69338   0.23511   0.07498   0.00000  Uiso   1.00
C469   C     0.74892   0.12865   0.08064   0.00000  Uiso   1.00
C470   C     0.53395   0.41602   0.10916   0.00000  Uiso   1.00
C471   C     0.47692   0.42855   0.06792   0.00000  Uiso   1.00
C472   C     0.42289   0.42856   0.09165   0.00000  Uiso   1.00
C473   C     0.32189   0.43407   0.10695   0.00000  Uiso   1.00
C474   C     0.60415   0.39136   0.20863   0.00000  Uiso   1.00
C475   C     0.63408   0.45363   0.20920   0.00000  Uiso   1.00
C476   C     0.66183   0.49544   0.26438   0.00000  Uiso   1.00
C477   C     0.68655   0.54984   0.25461   0.00000  Uiso   1.00
C478   C     0.63773   0.33180   0.16567   0.00000  Uiso   1.00
C479   C     0.66855   0.27116   0.18424   0.00000  Uiso   1.00
C480   C     0.69634   0.22299   0.13781   0.00000  Uiso   1.00
C481   C     0.53690   0.40392   0.17188   0.00000  Uiso   1.00
C482   C     0.48295   0.40390   0.19568   0.00000  Uiso   1.00
C483   C     0.42585   0.41643   0.15448   0.00000  Uiso   1.00
H484   H     0.59640   0.42306   0.04433   0.00000  Uiso   1.00
H485   H     0.65352   0.52943   0.08808   0.00000  Uiso   1.00
H486   H     0.66022   0.30519   0.00795   0.00000  Uiso   1.00
H487   H     0.47465   0.43791   0.01939   0.00000  Uiso   1.00
H488   H     0.71816   0.64201   0.16426   0.00000  Uiso   1.00
H489   H     0.73228   0.16917   0.99528   0.00000  Uiso   1.00
H490   H     0.34097   0.44904   0.01940   0.00000  Uiso   1.00
H491   H     0.60645   0.38194   0.25746   0.00000  Uiso   1.00
H492   H     0.66411   0.48606   0.31291   0.00000  Uiso   1.00
H493   H     0.67082   0.26181   0.23278   0.00000  Uiso   1.00
H494   H     0.48525   0.39453   0.24421   0.00000  Uiso   1.00
H495   H     0.72676   0.60680   0.34674   0.00000  Uiso   1.00
H496   H     0.74089   0.13395   0.17776   0.00000  Uiso   1.00
H497   H     0.34958   0.41383   0.20188   0.00000  Uiso   1.00
O498   O     0.76023   0.69363   0.28813   0.00000  Uiso   1.00
O499   O     0.77875   0.07327   0.06643   0.00000  Uiso   1.00
O500   O     0.26536   0.44046   0.09808   0.00000  Uiso   1.00
N501   N     0.71226   0.61944   0.19959   0.00000  Uiso   1.00
N502   N     0.72547   0.17737   0.04161   0.00000  Uiso   1.00
N503   N     0.35963   0.43901   0.06415   0.00000  Uiso   1.00
N504   N     0.71689   0.60050   0.29778   0.00000  Uiso   1.00
N505   N     0.73010   0.15842   0.13980   0.00000  Uiso   1.00
N506   N     0.36426   0.42006   0.16234   0.00000  Uiso   1.00
C507   C     0.56786   0.11739   0.64968   0.00000  Uiso   1.00
C508   C     0.60013   0.17749   0.68980   0.00000  Uiso   1.00
C509   C     0.65511   0.17318   0.73570   0.00000  Uiso   1.00
C510   C     0.67705   0.23407   0.76720   0.00000  Uiso   1.00
C511   C     0.73200   0.31783   0.83164   0.00000  Uiso   1.00
C512   C     0.50094   0.13165   0.66322   0.00000  Uiso   1.00
C513   C     0.47251   0.08880   0.68677   0.00000  Uiso   1.00
C514   C     0.41095   0.11109   0.69590   0.00000  Uiso   1.00
C515   C     0.31188   0.12367   0.71903   0.00000  Uiso   1.00
C516   C     0.56222   0.12236   0.57842   0.00000  Uiso   1.00
C517   C     0.58531   0.07169   0.53066   0.00000  Uiso   1.00
C518   C     0.57533   0.08616   0.46838   0.00000  Uiso   1.00
C519   C     0.57142   0.08431   0.35985   0.00000  Uiso   1.00
C520   C     0.50907   0.23317   0.62400   0.00000  Uiso   1.00
C521   C     0.56820   0.24038   0.67585   0.00000  Uiso   1.00
C522   C     0.59006   0.30129   0.70729   0.00000  Uiso   1.00
C523   C     0.64506   0.29707   0.75323   0.00000  Uiso   1.00
C524   C     0.46901   0.19454   0.64928   0.00000  Uiso   1.00
C525   C     0.40747   0.21690   0.65836   0.00000  Uiso   1.00
C526   C     0.37896   0.17410   0.68192   0.00000  Uiso   1.00
C527   C     0.53029   0.18525   0.56447   0.00000  Uiso   1.00
C528   C     0.52027   0.19980   0.50225   0.00000  Uiso   1.00
C529   C     0.54334   0.14916   0.45441   0.00000  Uiso   1.00
H530   H     0.59272   0.06842   0.66054   0.00000  Uiso   1.00
H531   H     0.67980   0.12450   0.74649   0.00000  Uiso   1.00
H532   H     0.49723   0.04013   0.69756   0.00000  Uiso   1.00
H533   H     0.61002   0.02303   0.54148   0.00000  Uiso   1.00
H534   H     0.76225   0.21442   0.83564   0.00000  Uiso   1.00
H535   H     0.37729   0.03650   0.73245   0.00000  Uiso   1.00
H536   H     0.61512   0.00043   0.40332   0.00000  Uiso   1.00
H537   H     0.48421   0.28214   0.61314   0.00000  Uiso   1.00
H538   H     0.56534   0.34995   0.69648   0.00000  Uiso   1.00
H539   H     0.38277   0.26557   0.64756   0.00000  Uiso   1.00
H540   H     0.49556   0.24847   0.49148   0.00000  Uiso   1.00
H541   H     0.66935   0.39740   0.79506   0.00000  Uiso   1.00
H542   H     0.28439   0.21947   0.69187   0.00000  Uiso   1.00
H543   H     0.52222   0.18342   0.36274   0.00000  Uiso   1.00
O544   O     0.77112   0.34666   0.87105   0.00000  Uiso   1.00
O545   O     0.26606   0.11323   0.73566   0.00000  Uiso   1.00
O546   O     0.57809   0.06592   0.30385   0.00000  Uiso   1.00
N547   N     0.72926   0.24817   0.81464   0.00000  Uiso   1.00
N548   N     0.36935   0.08183   0.71818   0.00000  Uiso   1.00
N549   N     0.59168   0.04811   0.41046   0.00000  Uiso   1.00
N550   N     0.67927   0.34664   0.79280   0.00000  Uiso   1.00
N551   N     0.31936   0.18029   0.69634   0.00000  Uiso   1.00
N552   N     0.54169   0.14657   0.38862   0.00000  Uiso   1.00
