data_job_05641
_audit_creation_date              2018-12-19
_audit_creation_method            'Materials Studio'
_symmetry_space_group_name_H-M    'P1'
_symmetry_Int_Tables_number       1
_symmetry_cell_setting            triclinic
loop_
_symmetry_equiv_pos_as_xyz
  x,y,z
_cell_length_a                    13.7460
_cell_length_b                    12.2764
_cell_length_c                    22.7337
_cell_angle_alpha                 90.0000
_cell_angle_beta                  124.2072
_cell_angle_gamma                 90.0000
loop_
_atom_site_label
_atom_site_type_symbol
_atom_site_fract_x
_atom_site_fract_y
_atom_site_fract_z
_atom_site_U_iso_or_equiv
_atom_site_adp_type
_atom_site_occupancy
C1     C     0.13021   0.19800   0.23189   0.00000  Uiso   1.00
C2     C     0.14291   0.28287   0.18764   0.00000  Uiso   1.00
C3     C     0.08677   0.38319   0.16677   0.00000  Uiso   1.00
C4     C     0.10998   0.44920   0.12645   0.00000  Uiso   1.00
C5     C     0.11801   0.58602   0.06056   0.00000  Uiso   1.00
C6     C     0.08999   0.09358   0.18796   0.00000  Uiso   1.00
C7     C     0.98936   0.03474   0.16737   0.00000  Uiso   1.00
C8     C     0.96803   0.94140   0.12733   0.00000  Uiso   1.00
C9     C     0.89394   0.78429   0.06199   0.00000  Uiso   1.00
C10    C     0.25437   0.17562   0.29641   0.00000  Uiso   1.00
C11    C     0.29195   0.18575   0.36701   0.00000  Uiso   1.00
C12    C     0.40901   0.16145   0.41828   0.00000  Uiso   1.00
C13    C     0.59014   0.13174   0.52133   0.00000  Uiso   1.00
C14    C     0.27126   0.13682   0.19739   0.00000  Uiso   1.00
C15    C     0.21953   0.24964   0.16890   0.00000  Uiso   1.00
C16    C     0.24283   0.31551   0.12861   0.00000  Uiso   1.00
C17    C     0.18674   0.41592   0.10768   0.00000  Uiso   1.00
C18    C     0.16660   0.06035   0.16923   0.00000  Uiso   1.00
C19    C     0.14542   0.96706   0.12921   0.00000  Uiso   1.00
C20    C     0.04478   0.90811   0.10856   0.00000  Uiso   1.00
C21    C     0.33099   0.14240   0.27768   0.00000  Uiso   1.00
C22    C     0.44801   0.11807   0.32885   0.00000  Uiso   1.00
C23    C     0.48576   0.12817   0.39951   0.00000  Uiso   1.00
H24    H     0.07056   0.22386   0.24647   0.00000  Uiso   1.00
H25    H     0.02748   0.40887   0.18127   0.00000  Uiso   1.00
H26    H     0.93009   0.06047   0.18188   0.00000  Uiso   1.00
H27    H     0.23264   0.21146   0.38149   0.00000  Uiso   1.00
H28    H     0.01348   0.59932   0.10070   0.00000  Uiso   1.00
H29    H     0.80815   0.86468   0.10201   0.00000  Uiso   1.00
H30    H     0.44612   0.18306   0.52293   0.00000  Uiso   1.00
H31    H     0.33091   0.11095   0.18281   0.00000  Uiso   1.00
H32    H     0.30212   0.28978   0.11411   0.00000  Uiso   1.00
H33    H     0.20473   0.94138   0.11472   0.00000  Uiso   1.00
H34    H     0.50727   0.09236   0.31433   0.00000  Uiso   1.00
H35    H     0.23638   0.50266   0.04619   0.00000  Uiso   1.00
H36    H     0.03105   0.76801   0.04750   0.00000  Uiso   1.00
H37    H     0.66902   0.08640   0.46841   0.00000  Uiso   1.00
O38    O     0.10127   0.67065   0.02939   0.00000  Uiso   1.00
O39    O     0.83189   0.70682   0.03111   0.00000  Uiso   1.00
O40    O     0.66889   0.12454   0.58334   0.00000  Uiso   1.00
N41    N     0.06991   0.55204   0.09731   0.00000  Uiso   1.00
N42    N     0.87792   0.86520   0.09852   0.00000  Uiso   1.00
N43    N     0.47436   0.16284   0.49205   0.00000  Uiso   1.00
N44    N     0.18985   0.50003   0.06798   0.00000  Uiso   1.00
N45    N     0.99787   0.81319   0.06919   0.00000  Uiso   1.00
N46    N     0.59431   0.11083   0.46271   0.00000  Uiso   1.00
C47    C     0.86979   0.19800   0.26811   0.00000  Uiso   1.00
C48    C     0.85709   0.28287   0.31236   0.00000  Uiso   1.00
C49    C     0.91323   0.38319   0.33323   0.00000  Uiso   1.00
C50    C     0.89002   0.44920   0.37355   0.00000  Uiso   1.00
C51    C     0.88199   0.58602   0.43944   0.00000  Uiso   1.00
C52    C     0.91001   0.09358   0.31204   0.00000  Uiso   1.00
C53    C     0.01064   0.03474   0.33263   0.00000  Uiso   1.00
C54    C     0.03197   0.94140   0.37267   0.00000  Uiso   1.00
C55    C     0.10606   0.78429   0.43801   0.00000  Uiso   1.00
C56    C     0.74563   0.17562   0.20359   0.00000  Uiso   1.00
C57    C     0.70805   0.18575   0.13299   0.00000  Uiso   1.00
C58    C     0.59099   0.16145   0.08172   0.00000  Uiso   1.00
C59    C     0.40986   0.13174   0.97867   0.00000  Uiso   1.00
C60    C     0.72874   0.13682   0.30261   0.00000  Uiso   1.00
C61    C     0.78047   0.24964   0.33110   0.00000  Uiso   1.00
C62    C     0.75717   0.31551   0.37139   0.00000  Uiso   1.00
C63    C     0.81326   0.41592   0.39232   0.00000  Uiso   1.00
C64    C     0.83340   0.06035   0.33077   0.00000  Uiso   1.00
C65    C     0.85458   0.96706   0.37079   0.00000  Uiso   1.00
C66    C     0.95522   0.90811   0.39144   0.00000  Uiso   1.00
C67    C     0.66901   0.14240   0.22232   0.00000  Uiso   1.00
C68    C     0.55199   0.11807   0.17115   0.00000  Uiso   1.00
C69    C     0.51424   0.12817   0.10049   0.00000  Uiso   1.00
H70    H     0.92944   0.22386   0.25353   0.00000  Uiso   1.00
H71    H     0.97252   0.40887   0.31873   0.00000  Uiso   1.00
H72    H     0.06991   0.06047   0.31812   0.00000  Uiso   1.00
H73    H     0.76736   0.21146   0.11851   0.00000  Uiso   1.00
H74    H     0.98652   0.59932   0.39930   0.00000  Uiso   1.00
H75    H     0.19185   0.86468   0.39799   0.00000  Uiso   1.00
H76    H     0.55388   0.18306   0.97707   0.00000  Uiso   1.00
H77    H     0.66909   0.11095   0.31719   0.00000  Uiso   1.00
H78    H     0.69788   0.28978   0.38589   0.00000  Uiso   1.00
H79    H     0.79527   0.94138   0.38528   0.00000  Uiso   1.00
H80    H     0.49273   0.09236   0.18567   0.00000  Uiso   1.00
H81    H     0.76362   0.50266   0.45381   0.00000  Uiso   1.00
H82    H     0.96895   0.76801   0.45250   0.00000  Uiso   1.00
H83    H     0.33098   0.08640   0.03159   0.00000  Uiso   1.00
O84    O     0.89873   0.67065   0.47061   0.00000  Uiso   1.00
O85    O     0.16811   0.70682   0.46889   0.00000  Uiso   1.00
O86    O     0.33111   0.12454   0.91666   0.00000  Uiso   1.00
N87    N     0.93009   0.55204   0.40269   0.00000  Uiso   1.00
N88    N     0.12208   0.86520   0.40148   0.00000  Uiso   1.00
N89    N     0.52564   0.16284   0.00795   0.00000  Uiso   1.00
N90    N     0.81015   0.50003   0.43202   0.00000  Uiso   1.00
N91    N     0.00213   0.81319   0.43081   0.00000  Uiso   1.00
N92    N     0.40569   0.11083   0.03729   0.00000  Uiso   1.00
C93    C     0.86979   0.80200   0.76811   0.00000  Uiso   1.00
C94    C     0.85709   0.71713   0.81236   0.00000  Uiso   1.00
C95    C     0.91323   0.61681   0.83323   0.00000  Uiso   1.00
C96    C     0.89002   0.55080   0.87355   0.00000  Uiso   1.00
C97    C     0.88199   0.41398   0.93944   0.00000  Uiso   1.00
C98    C     0.91001   0.90642   0.81204   0.00000  Uiso   1.00
C99    C     0.01064   0.96526   0.83263   0.00000  Uiso   1.00
C100   C     0.03197   0.05860   0.87267   0.00000  Uiso   1.00
C101   C     0.10606   0.21571   0.93801   0.00000  Uiso   1.00
C102   C     0.74563   0.82438   0.70359   0.00000  Uiso   1.00
C103   C     0.70805   0.81425   0.63299   0.00000  Uiso   1.00
C104   C     0.59099   0.83855   0.58172   0.00000  Uiso   1.00
C105   C     0.40986   0.86826   0.47867   0.00000  Uiso   1.00
C106   C     0.72874   0.86318   0.80261   0.00000  Uiso   1.00
C107   C     0.78047   0.75036   0.83110   0.00000  Uiso   1.00
C108   C     0.75717   0.68449   0.87139   0.00000  Uiso   1.00
C109   C     0.81326   0.58408   0.89232   0.00000  Uiso   1.00
C110   C     0.83340   0.93965   0.83077   0.00000  Uiso   1.00
C111   C     0.85458   0.03294   0.87079   0.00000  Uiso   1.00
C112   C     0.95522   0.09189   0.89144   0.00000  Uiso   1.00
C113   C     0.66901   0.85760   0.72232   0.00000  Uiso   1.00
C114   C     0.55199   0.88193   0.67115   0.00000  Uiso   1.00
C115   C     0.51424   0.87183   0.60049   0.00000  Uiso   1.00
H116   H     0.92944   0.77614   0.75353   0.00000  Uiso   1.00
H117   H     0.97252   0.59113   0.81873   0.00000  Uiso   1.00
H118   H     0.06991   0.93953   0.81812   0.00000  Uiso   1.00
H119   H     0.76736   0.78854   0.61851   0.00000  Uiso   1.00
H120   H     0.98652   0.40068   0.89930   0.00000  Uiso   1.00
H121   H     0.19185   0.13532   0.89799   0.00000  Uiso   1.00
H122   H     0.55388   0.81694   0.47707   0.00000  Uiso   1.00
H123   H     0.66909   0.88905   0.81719   0.00000  Uiso   1.00
H124   H     0.69788   0.71022   0.88589   0.00000  Uiso   1.00
H125   H     0.79527   0.05862   0.88528   0.00000  Uiso   1.00
H126   H     0.49273   0.90764   0.68567   0.00000  Uiso   1.00
H127   H     0.76362   0.49734   0.95381   0.00000  Uiso   1.00
H128   H     0.96895   0.23199   0.95250   0.00000  Uiso   1.00
H129   H     0.33098   0.91360   0.53159   0.00000  Uiso   1.00
O130   O     0.89873   0.32935   0.97061   0.00000  Uiso   1.00
O131   O     0.16811   0.29318   0.96889   0.00000  Uiso   1.00
O132   O     0.33111   0.87546   0.41666   0.00000  Uiso   1.00
N133   N     0.93009   0.44796   0.90269   0.00000  Uiso   1.00
N134   N     0.12208   0.13480   0.90148   0.00000  Uiso   1.00
N135   N     0.52564   0.83716   0.50795   0.00000  Uiso   1.00
N136   N     0.81015   0.49997   0.93202   0.00000  Uiso   1.00
N137   N     0.00213   0.18681   0.93081   0.00000  Uiso   1.00
N138   N     0.40569   0.88917   0.53729   0.00000  Uiso   1.00
C139   C     0.13021   0.80200   0.73189   0.00000  Uiso   1.00
C140   C     0.14291   0.71713   0.68764   0.00000  Uiso   1.00
C141   C     0.08677   0.61681   0.66677   0.00000  Uiso   1.00
C142   C     0.10998   0.55080   0.62645   0.00000  Uiso   1.00
C143   C     0.11801   0.41398   0.56056   0.00000  Uiso   1.00
C144   C     0.08999   0.90642   0.68796   0.00000  Uiso   1.00
C145   C     0.98936   0.96526   0.66737   0.00000  Uiso   1.00
C146   C     0.96803   0.05860   0.62733   0.00000  Uiso   1.00
C147   C     0.89394   0.21571   0.56199   0.00000  Uiso   1.00
C148   C     0.25437   0.82438   0.79641   0.00000  Uiso   1.00
C149   C     0.29195   0.81425   0.86701   0.00000  Uiso   1.00
C150   C     0.40901   0.83855   0.91828   0.00000  Uiso   1.00
C151   C     0.59014   0.86826   0.02133   0.00000  Uiso   1.00
C152   C     0.27126   0.86318   0.69739   0.00000  Uiso   1.00
C153   C     0.21953   0.75036   0.66890   0.00000  Uiso   1.00
C154   C     0.24283   0.68449   0.62861   0.00000  Uiso   1.00
C155   C     0.18674   0.58408   0.60768   0.00000  Uiso   1.00
C156   C     0.16660   0.93965   0.66923   0.00000  Uiso   1.00
C157   C     0.14542   0.03294   0.62921   0.00000  Uiso   1.00
C158   C     0.04478   0.09189   0.60856   0.00000  Uiso   1.00
C159   C     0.33099   0.85760   0.77768   0.00000  Uiso   1.00
C160   C     0.44801   0.88193   0.82885   0.00000  Uiso   1.00
C161   C     0.48576   0.87183   0.89951   0.00000  Uiso   1.00
H162   H     0.07056   0.77614   0.74647   0.00000  Uiso   1.00
H163   H     0.02748   0.59113   0.68127   0.00000  Uiso   1.00
H164   H     0.93009   0.93953   0.68188   0.00000  Uiso   1.00
H165   H     0.23264   0.78854   0.88149   0.00000  Uiso   1.00
H166   H     0.01348   0.40068   0.60070   0.00000  Uiso   1.00
H167   H     0.80815   0.13532   0.60201   0.00000  Uiso   1.00
H168   H     0.44612   0.81694   0.02293   0.00000  Uiso   1.00
H169   H     0.33091   0.88905   0.68281   0.00000  Uiso   1.00
H170   H     0.30212   0.71022   0.61411   0.00000  Uiso   1.00
H171   H     0.20473   0.05862   0.61472   0.00000  Uiso   1.00
H172   H     0.50727   0.90764   0.81433   0.00000  Uiso   1.00
H173   H     0.23638   0.49734   0.54619   0.00000  Uiso   1.00
H174   H     0.03105   0.23199   0.54750   0.00000  Uiso   1.00
H175   H     0.66902   0.91360   0.96841   0.00000  Uiso   1.00
O176   O     0.10127   0.32935   0.52939   0.00000  Uiso   1.00
O177   O     0.83189   0.29318   0.53111   0.00000  Uiso   1.00
O178   O     0.66889   0.87546   0.08334   0.00000  Uiso   1.00
N179   N     0.06991   0.44796   0.59731   0.00000  Uiso   1.00
N180   N     0.87792   0.13480   0.59852   0.00000  Uiso   1.00
N181   N     0.47436   0.83716   0.99205   0.00000  Uiso   1.00
N182   N     0.18985   0.49997   0.56798   0.00000  Uiso   1.00
N183   N     0.99787   0.18681   0.56919   0.00000  Uiso   1.00
N184   N     0.59431   0.88917   0.96271   0.00000  Uiso   1.00
