data_job_06434
_audit_creation_date              2018-12-19
_audit_creation_method            'Materials Studio'
_symmetry_space_group_name_H-M    'P1'
_symmetry_Int_Tables_number       1
_symmetry_cell_setting            triclinic
loop_
_symmetry_equiv_pos_as_xyz
  x,y,z
_cell_length_a                    15.2868
_cell_length_b                    15.2842
_cell_length_c                    15.2817
_cell_angle_alpha                 89.0209
_cell_angle_beta                  89.0296
_cell_angle_gamma                 89.0385
loop_
_atom_site_label
_atom_site_type_symbol
_atom_site_fract_x
_atom_site_fract_y
_atom_site_fract_z
_atom_site_U_iso_or_equiv
_atom_site_adp_type
_atom_site_occupancy
C1     C     0.08134   0.75244   0.57918   0.00000  Uiso   1.00
C2     C     0.18049   0.74597   0.58779   0.00000  Uiso   1.00
C3     C     0.23195   0.80375   0.63239   0.00000  Uiso   1.00
C4     C     0.32140   0.78646   0.63262   0.00000  Uiso   1.00
C5     C     0.46979   0.78746   0.65248   0.00000  Uiso   1.00
C6     C     0.06375   0.75405   0.48123   0.00000  Uiso   1.00
C7     C     0.01706   0.81864   0.43625   0.00000  Uiso   1.00
C8     C     0.00823   0.80814   0.34678   0.00000  Uiso   1.00
C9     C     0.97533   0.82166   0.20121   0.00000  Uiso   1.00
C10    C     0.04593   0.66584   0.61443   0.00000  Uiso   1.00
C11    C     0.98423   0.65624   0.68142   0.00000  Uiso   1.00
C12    C     0.96038   0.57147   0.70408   0.00000  Uiso   1.00
C13    C     0.89981   0.44802   0.76533   0.00000  Uiso   1.00
C14    C     0.14867   0.61896   0.50027   0.00000  Uiso   1.00
C15    C     0.21705   0.67346   0.54492   0.00000  Uiso   1.00
C16    C     0.30645   0.65607   0.54509   0.00000  Uiso   1.00
C17    C     0.35804   0.71382   0.58969   0.00000  Uiso   1.00
C18    C     0.10032   0.68155   0.43837   0.00000  Uiso   1.00
C19    C     0.09155   0.67095   0.34895   0.00000  Uiso   1.00
C20    C     0.04487   0.73550   0.30384   0.00000  Uiso   1.00
C21    C     0.08250   0.59333   0.57157   0.00000  Uiso   1.00
C22    C     0.05874   0.50856   0.59412   0.00000  Uiso   1.00
C23    C     0.99702   0.49884   0.66115   0.00000  Uiso   1.00
H24    H     0.05287   0.80889   0.61254   0.00000  Uiso   1.00
H25    H     0.20363   0.85986   0.66555   0.00000  Uiso   1.00
H26    H     0.98876   0.87473   0.46944   0.00000  Uiso   1.00
H27    H     0.95595   0.71237   0.71458   0.00000  Uiso   1.00
H28    H     0.38690   0.88442   0.70539   0.00000  Uiso   1.00
H29    H     0.93382   0.91576   0.29188   0.00000  Uiso   1.00
H30    H     0.86462   0.57338   0.80881   0.00000  Uiso   1.00
H31    H     0.17715   0.56251   0.46689   0.00000  Uiso   1.00
H32    H     0.33473   0.59996   0.51191   0.00000  Uiso   1.00
H33    H     0.11986   0.61483   0.31580   0.00000  Uiso   1.00
H34    H     0.08705   0.45246   0.56094   0.00000  Uiso   1.00
H35    H     0.49331   0.67347   0.58069   0.00000  Uiso   1.00
H36    H     0.04022   0.70482   0.16719   0.00000  Uiso   1.00
H37    H     0.97103   0.36243   0.68411   0.00000  Uiso   1.00
O38    O     0.54153   0.80804   0.67526   0.00000  Uiso   1.00
O39    O     0.94709   0.84916   0.13276   0.00000  Uiso   1.00
O40    O     0.85631   0.39996   0.81095   0.00000  Uiso   1.00
N41    N     0.39032   0.82962   0.66988   0.00000  Uiso   1.00
N42    N     0.96672   0.85893   0.28327   0.00000  Uiso   1.00
N43    N     0.90201   0.53883   0.76654   0.00000  Uiso   1.00
N44    N     0.44758   0.71611   0.60278   0.00000  Uiso   1.00
N45    N     0.02398   0.74543   0.21617   0.00000  Uiso   1.00
N46    N     0.95927   0.42533   0.69944   0.00000  Uiso   1.00
C47    C     0.57918   0.08140   0.75240   0.00000  Uiso   1.00
C48    C     0.58779   0.18056   0.74590   0.00000  Uiso   1.00
C49    C     0.63239   0.23203   0.80370   0.00000  Uiso   1.00
C50    C     0.63263   0.32150   0.78639   0.00000  Uiso   1.00
C51    C     0.65248   0.46991   0.78736   0.00000  Uiso   1.00
C52    C     0.48126   0.06380   0.75400   0.00000  Uiso   1.00
C53    C     0.43630   0.01708   0.81860   0.00000  Uiso   1.00
C54    C     0.34686   0.00825   0.80810   0.00000  Uiso   1.00
C55    C     0.20134   0.97533   0.82161   0.00000  Uiso   1.00
C56    C     0.61441   0.04600   0.66578   0.00000  Uiso   1.00
C57    C     0.68138   0.98430   0.65620   0.00000  Uiso   1.00
C58    C     0.70402   0.96046   0.57142   0.00000  Uiso   1.00
C59    C     0.76523   0.89990   0.44797   0.00000  Uiso   1.00
C60    C     0.50029   0.14876   0.61887   0.00000  Uiso   1.00
C61    C     0.54494   0.21714   0.67338   0.00000  Uiso   1.00
C62    C     0.54511   0.30656   0.65597   0.00000  Uiso   1.00
C63    C     0.58970   0.35815   0.71373   0.00000  Uiso   1.00
C64    C     0.43841   0.10038   0.68148   0.00000  Uiso   1.00
C65    C     0.34902   0.09161   0.67087   0.00000  Uiso   1.00
C66    C     0.30393   0.04490   0.73544   0.00000  Uiso   1.00
C67    C     0.57156   0.08258   0.59326   0.00000  Uiso   1.00
C68    C     0.59410   0.05883   0.50848   0.00000  Uiso   1.00
C69    C     0.66109   0.99711   0.49877   0.00000  Uiso   1.00
H70    H     0.61253   0.05291   0.80886   0.00000  Uiso   1.00
H71    H     0.66554   0.20369   0.85982   0.00000  Uiso   1.00
H72    H     0.46948   0.98877   0.87471   0.00000  Uiso   1.00
H73    H     0.71452   0.95600   0.71234   0.00000  Uiso   1.00
H74    H     0.70538   0.38700   0.88436   0.00000  Uiso   1.00
H75    H     0.29198   0.93380   0.91574   0.00000  Uiso   1.00
H76    H     0.80870   0.86469   0.57335   0.00000  Uiso   1.00
H77    H     0.46693   0.17724   0.56241   0.00000  Uiso   1.00
H78    H     0.51195   0.33485   0.59984   0.00000  Uiso   1.00
H79    H     0.31588   0.11993   0.61474   0.00000  Uiso   1.00
H80    H     0.56093   0.08715   0.45237   0.00000  Uiso   1.00
H81    H     0.58071   0.49345   0.67335   0.00000  Uiso   1.00
H82    H     0.16732   0.04025   0.70474   0.00000  Uiso   1.00
H83    H     0.68404   0.97114   0.36234   0.00000  Uiso   1.00
O84    O     0.67526   0.54167   0.80794   0.00000  Uiso   1.00
O85    O     0.13291   0.94707   0.84911   0.00000  Uiso   1.00
O86    O     0.81083   0.85640   0.39991   0.00000  Uiso   1.00
N87    N     0.66988   0.39042   0.82955   0.00000  Uiso   1.00
N88    N     0.28337   0.96672   0.85890   0.00000  Uiso   1.00
N89    N     0.76644   0.90209   0.53880   0.00000  Uiso   1.00
N90    N     0.60280   0.44770   0.71601   0.00000  Uiso   1.00
N91    N     0.21629   0.02400   0.74536   0.00000  Uiso   1.00
N92    N     0.69937   0.95937   0.42525   0.00000  Uiso   1.00
C93    C     0.75249   0.57918   0.08145   0.00000  Uiso   1.00
C94    C     0.74601   0.58778   0.18063   0.00000  Uiso   1.00
C95    C     0.80379   0.63238   0.23211   0.00000  Uiso   1.00
C96    C     0.78649   0.63260   0.32159   0.00000  Uiso   1.00
C97    C     0.78748   0.65244   0.47002   0.00000  Uiso   1.00
C98    C     0.75409   0.48125   0.06386   0.00000  Uiso   1.00
C99    C     0.81866   0.43629   0.01715   0.00000  Uiso   1.00
C100   C     0.80815   0.34683   0.00833   0.00000  Uiso   1.00
C101   C     0.82165   0.20130   0.97543   0.00000  Uiso   1.00
C102   C     0.66591   0.61441   0.04603   0.00000  Uiso   1.00
C103   C     0.65633   0.68140   0.98431   0.00000  Uiso   1.00
C104   C     0.57158   0.70404   0.96046   0.00000  Uiso   1.00
C105   C     0.44817   0.76526   0.89987   0.00000  Uiso   1.00
C106   C     0.61901   0.50025   0.14882   0.00000  Uiso   1.00
C107   C     0.67351   0.54491   0.21722   0.00000  Uiso   1.00
C108   C     0.65611   0.54506   0.30664   0.00000  Uiso   1.00
C109   C     0.71386   0.58966   0.35825   0.00000  Uiso   1.00
C110   C     0.68159   0.43838   0.10045   0.00000  Uiso   1.00
C111   C     0.67098   0.34897   0.09169   0.00000  Uiso   1.00
C112   C     0.73552   0.30389   0.04499   0.00000  Uiso   1.00
C113   C     0.59341   0.57155   0.08263   0.00000  Uiso   1.00
C114   C     0.50865   0.59408   0.05886   0.00000  Uiso   1.00
C115   C     0.49895   0.66110   0.99712   0.00000  Uiso   1.00
H116   H     0.80894   0.61254   0.05296   0.00000  Uiso   1.00
H117   H     0.85990   0.66554   0.20376   0.00000  Uiso   1.00
H118   H     0.87475   0.46948   0.98884   0.00000  Uiso   1.00
H119   H     0.71245   0.71456   0.95601   0.00000  Uiso   1.00
H120   H     0.88444   0.70536   0.38710   0.00000  Uiso   1.00
H121   H     0.91575   0.29197   0.93389   0.00000  Uiso   1.00
H122   H     0.57351   0.80876   0.86466   0.00000  Uiso   1.00
H123   H     0.56256   0.46688   0.17731   0.00000  Uiso   1.00
H124   H     0.60000   0.51188   0.33494   0.00000  Uiso   1.00
H125   H     0.61486   0.31582   0.12002   0.00000  Uiso   1.00
H126   H     0.45256   0.56090   0.08719   0.00000  Uiso   1.00
H127   H     0.67350   0.58065   0.49357   0.00000  Uiso   1.00
H128   H     0.70481   0.16725   0.04035   0.00000  Uiso   1.00
H129   H     0.36257   0.68404   0.97113   0.00000  Uiso   1.00
O130   O     0.80806   0.67521   0.54179   0.00000  Uiso   1.00
O131   O     0.84913   0.13286   0.94718   0.00000  Uiso   1.00
O132   O     0.40012   0.81088   0.85635   0.00000  Uiso   1.00
N133   N     0.82965   0.66985   0.39052   0.00000  Uiso   1.00
N134   N     0.85893   0.28335   0.96681   0.00000  Uiso   1.00
N135   N     0.53896   0.76649   0.90207   0.00000  Uiso   1.00
N136   N     0.71614   0.60274   0.44781   0.00000  Uiso   1.00
N137   N     0.74543   0.21624   0.02410   0.00000  Uiso   1.00
N138   N     0.42546   0.69938   0.95936   0.00000  Uiso   1.00
C139   C     0.58134   0.07918   0.25239   0.00000  Uiso   1.00
C140   C     0.68049   0.08779   0.24591   0.00000  Uiso   1.00
C141   C     0.73195   0.13240   0.30370   0.00000  Uiso   1.00
C142   C     0.82140   0.13263   0.28640   0.00000  Uiso   1.00
C143   C     0.96979   0.15249   0.28739   0.00000  Uiso   1.00
C144   C     0.56374   0.98124   0.25401   0.00000  Uiso   1.00
C145   C     0.51704   0.93627   0.31861   0.00000  Uiso   1.00
C146   C     0.50821   0.84681   0.30811   0.00000  Uiso   1.00
C147   C     0.47530   0.70127   0.32163   0.00000  Uiso   1.00
C148   C     0.54594   0.11442   0.16578   0.00000  Uiso   1.00
C149   C     0.48425   0.18140   0.15619   0.00000  Uiso   1.00
C150   C     0.46041   0.20405   0.07140   0.00000  Uiso   1.00
C151   C     0.39985   0.26528   0.94794   0.00000  Uiso   1.00
C152   C     0.64868   0.00029   0.11888   0.00000  Uiso   1.00
C153   C     0.71706   0.04494   0.17339   0.00000  Uiso   1.00
C154   C     0.80645   0.04511   0.15599   0.00000  Uiso   1.00
C155   C     0.85804   0.08971   0.21375   0.00000  Uiso   1.00
C156   C     0.60032   0.93839   0.18149   0.00000  Uiso   1.00
C157   C     0.59154   0.84899   0.17089   0.00000  Uiso   1.00
C158   C     0.54485   0.80388   0.23546   0.00000  Uiso   1.00
C159   C     0.58251   0.07157   0.09326   0.00000  Uiso   1.00
C160   C     0.55876   0.09412   0.00847   0.00000  Uiso   1.00
C161   C     0.49705   0.16113   0.99875   0.00000  Uiso   1.00
H162   H     0.55287   0.11253   0.30885   0.00000  Uiso   1.00
H163   H     0.70363   0.16554   0.35982   0.00000  Uiso   1.00
H164   H     0.48874   0.96945   0.37471   0.00000  Uiso   1.00
H165   H     0.45596   0.21454   0.21232   0.00000  Uiso   1.00
H166   H     0.88690   0.20539   0.38437   0.00000  Uiso   1.00
H167   H     0.43378   0.79192   0.41575   0.00000  Uiso   1.00
H168   H     0.36466   0.30875   0.07332   0.00000  Uiso   1.00
H169   H     0.67715   0.96692   0.06242   0.00000  Uiso   1.00
H170   H     0.83474   0.01195   0.09986   0.00000  Uiso   1.00
H171   H     0.61985   0.81585   0.11476   0.00000  Uiso   1.00
H172   H     0.58707   0.06095   0.95237   0.00000  Uiso   1.00
H173   H     0.99332   0.08072   0.17338   0.00000  Uiso   1.00
H174   H     0.54020   0.66725   0.20476   0.00000  Uiso   1.00
H175   H     0.47107   0.18408   0.86233   0.00000  Uiso   1.00
O176   O     0.04154   0.17528   0.30797   0.00000  Uiso   1.00
O177   O     0.44705   0.63283   0.34914   0.00000  Uiso   1.00
O178   O     0.35636   0.31090   0.89987   0.00000  Uiso   1.00
N179   N     0.89032   0.16989   0.32956   0.00000  Uiso   1.00
N180   N     0.46669   0.78331   0.35891   0.00000  Uiso   1.00
N181   N     0.40204   0.26649   0.03877   0.00000  Uiso   1.00
N182   N     0.94758   0.10280   0.21603   0.00000  Uiso   1.00
N183   N     0.52395   0.71623   0.24538   0.00000  Uiso   1.00
N184   N     0.45931   0.19941   0.92523   0.00000  Uiso   1.00
C185   C     0.07918   0.25244   0.58145   0.00000  Uiso   1.00
C186   C     0.08778   0.24595   0.68063   0.00000  Uiso   1.00
C187   C     0.13238   0.30374   0.73211   0.00000  Uiso   1.00
C188   C     0.13261   0.28643   0.82159   0.00000  Uiso   1.00
C189   C     0.15246   0.28741   0.97002   0.00000  Uiso   1.00
C190   C     0.98126   0.25404   0.56386   0.00000  Uiso   1.00
C191   C     0.93631   0.31863   0.51714   0.00000  Uiso   1.00
C192   C     0.84687   0.30812   0.50831   0.00000  Uiso   1.00
C193   C     0.70135   0.32162   0.47540   0.00000  Uiso   1.00
C194   C     0.11440   0.16585   0.54604   0.00000  Uiso   1.00
C195   C     0.18138   0.15628   0.48433   0.00000  Uiso   1.00
C196   C     0.20402   0.07151   0.46048   0.00000  Uiso   1.00
C197   C     0.26522   0.94808   0.39991   0.00000  Uiso   1.00
C198   C     0.00027   0.11894   0.64883   0.00000  Uiso   1.00
C199   C     0.04492   0.17344   0.71722   0.00000  Uiso   1.00
C200   C     0.04509   0.15603   0.80665   0.00000  Uiso   1.00
C201   C     0.08968   0.21378   0.85825   0.00000  Uiso   1.00
C202   C     0.93840   0.18153   0.60045   0.00000  Uiso   1.00
C203   C     0.84901   0.17092   0.59168   0.00000  Uiso   1.00
C204   C     0.80393   0.23547   0.54497   0.00000  Uiso   1.00
C205   C     0.07155   0.09333   0.58264   0.00000  Uiso   1.00
C206   C     0.09408   0.00857   0.55888   0.00000  Uiso   1.00
C207   C     0.16108   0.99886   0.49714   0.00000  Uiso   1.00
H208   H     0.11254   0.30890   0.55296   0.00000  Uiso   1.00
H209   H     0.16553   0.35986   0.70376   0.00000  Uiso   1.00
H210   H     0.96949   0.37473   0.48882   0.00000  Uiso   1.00
H211   H     0.21452   0.21241   0.45602   0.00000  Uiso   1.00
H212   H     0.20536   0.38439   0.88710   0.00000  Uiso   1.00
H213   H     0.79201   0.41574   0.43386   0.00000  Uiso   1.00
H214   H     0.30870   0.07345   0.36469   0.00000  Uiso   1.00
H215   H     0.96690   0.06248   0.67732   0.00000  Uiso   1.00
H216   H     0.01191   0.09991   0.83495   0.00000  Uiso   1.00
H217   H     0.81587   0.11479   0.62001   0.00000  Uiso   1.00
H218   H     0.06090   0.95246   0.58721   0.00000  Uiso   1.00
H219   H     0.08068   0.17341   0.99358   0.00000  Uiso   1.00
H220   H     0.66732   0.20476   0.54033   0.00000  Uiso   1.00
H221   H     0.18401   0.86247   0.47117   0.00000  Uiso   1.00
O222   O     0.17523   0.30799   0.04179   0.00000  Uiso   1.00
O223   O     0.63293   0.34911   0.44714   0.00000  Uiso   1.00
O224   O     0.31082   0.90003   0.35640   0.00000  Uiso   1.00
N225   N     0.16986   0.32959   0.89052   0.00000  Uiso   1.00
N226   N     0.78339   0.35891   0.46678   0.00000  Uiso   1.00
N227   N     0.26644   0.03889   0.40210   0.00000  Uiso   1.00
N228   N     0.10277   0.21606   0.94782   0.00000  Uiso   1.00
N229   N     0.71630   0.24538   0.52407   0.00000  Uiso   1.00
N230   N     0.19935   0.92537   0.45939   0.00000  Uiso   1.00
C231   C     0.25249   0.58140   0.07918   0.00000  Uiso   1.00
C232   C     0.24602   0.68056   0.08778   0.00000  Uiso   1.00
C233   C     0.30380   0.73203   0.13239   0.00000  Uiso   1.00
C234   C     0.28651   0.82149   0.13261   0.00000  Uiso   1.00
C235   C     0.28750   0.96990   0.15245   0.00000  Uiso   1.00
C236   C     0.25409   0.56381   0.98123   0.00000  Uiso   1.00
C237   C     0.31866   0.51711   0.93626   0.00000  Uiso   1.00
C238   C     0.30816   0.50829   0.84679   0.00000  Uiso   1.00
C239   C     0.32167   0.47540   0.70123   0.00000  Uiso   1.00
C240   C     0.16590   0.54598   0.11442   0.00000  Uiso   1.00
C241   C     0.15632   0.48426   0.18143   0.00000  Uiso   1.00
C242   C     0.07156   0.46041   0.20408   0.00000  Uiso   1.00
C243   C     0.94814   0.39982   0.26532   0.00000  Uiso   1.00
C244   C     0.11902   0.64875   0.00025   0.00000  Uiso   1.00
C245   C     0.17352   0.71714   0.04491   0.00000  Uiso   1.00
C246   C     0.15613   0.80654   0.04506   0.00000  Uiso   1.00
C247   C     0.21388   0.85814   0.08967   0.00000  Uiso   1.00
C248   C     0.18160   0.60039   0.93836   0.00000  Uiso   1.00
C249   C     0.17100   0.59163   0.84894   0.00000  Uiso   1.00
C250   C     0.23553   0.54494   0.80384   0.00000  Uiso   1.00
C251   C     0.09340   0.58256   0.07156   0.00000  Uiso   1.00
C252   C     0.00865   0.55879   0.09411   0.00000  Uiso   1.00
C253   C     0.99894   0.49706   0.16113   0.00000  Uiso   1.00
H254   H     0.30893   0.55291   0.11255   0.00000  Uiso   1.00
H255   H     0.35990   0.70370   0.16555   0.00000  Uiso   1.00
H256   H     0.37475   0.48881   0.96945   0.00000  Uiso   1.00
H257   H     0.21243   0.45597   0.21458   0.00000  Uiso   1.00
H258   H     0.38445   0.88700   0.20537   0.00000  Uiso   1.00
H259   H     0.41576   0.43387   0.79191   0.00000  Uiso   1.00
H260   H     0.07347   0.36462   0.30881   0.00000  Uiso   1.00
H261   H     0.06258   0.67722   0.96687   0.00000  Uiso   1.00
H262   H     0.10003   0.83483   0.01188   0.00000  Uiso   1.00
H263   H     0.11488   0.61994   0.81579   0.00000  Uiso   1.00
H264   H     0.95256   0.58711   0.06092   0.00000  Uiso   1.00
H265   H     0.17353   0.99344   0.08065   0.00000  Uiso   1.00
H266   H     0.20484   0.54030   0.66718   0.00000  Uiso   1.00
H267   H     0.86255   0.47106   0.18409   0.00000  Uiso   1.00
O268   O     0.30809   0.04166   0.17522   0.00000  Uiso   1.00
O269   O     0.34915   0.44715   0.63278   0.00000  Uiso   1.00
O270   O     0.90008   0.35631   0.31095   0.00000  Uiso   1.00
N271   N     0.32966   0.89042   0.16986   0.00000  Uiso   1.00
N272   N     0.35894   0.46678   0.78329   0.00000  Uiso   1.00
N273   N     0.03893   0.40202   0.26653   0.00000  Uiso   1.00
N274   N     0.21617   0.94769   0.10275   0.00000  Uiso   1.00
N275   N     0.24545   0.52406   0.71618   0.00000  Uiso   1.00
N276   N     0.92544   0.45930   0.19942   0.00000  Uiso   1.00
