data_job_07088
_audit_creation_date              2018-12-19
_audit_creation_method            'Materials Studio'
_symmetry_space_group_name_H-M    'P1'
_symmetry_Int_Tables_number       1
_symmetry_cell_setting            triclinic
loop_
_symmetry_equiv_pos_as_xyz
  x,y,z
_cell_length_a                    21.6306
_cell_length_b                    22.1431
_cell_length_c                    22.5002
_cell_angle_alpha                 73.4932
_cell_angle_beta                  102.4200
_cell_angle_gamma                 74.5181
loop_
_atom_site_label
_atom_site_type_symbol
_atom_site_fract_x
_atom_site_fract_y
_atom_site_fract_z
_atom_site_U_iso_or_equiv
_atom_site_adp_type
_atom_site_occupancy
C1     C     0.71412   0.94043   0.96218   0.00000  Uiso   1.00
C2     C     0.67182   0.00557   0.96602   0.00000  Uiso   1.00
C3     C     0.69393   0.03747   0.00671   0.00000  Uiso   1.00
C4     C     0.64750   0.09659   0.00293   0.00000  Uiso   1.00
C5     C     0.59187   0.19373   0.01545   0.00000  Uiso   1.00
C6     C     0.67557   0.89220   0.97538   0.00000  Uiso   1.00
C7     C     0.70084   0.82879   0.02395   0.00000  Uiso   1.00
C8     C     0.65757   0.79248   0.02805   0.00000  Uiso   1.00
C9     C     0.60778   0.71360   0.05508   0.00000  Uiso   1.00
C10    C     0.71152   0.95658   0.89093   0.00000  Uiso   1.00
C11    C     0.76701   0.94728   0.86849   0.00000  Uiso   1.00
C12    C     0.75400   0.96516   0.80149   0.00000  Uiso   1.00
C13    C     0.76002   0.98623   0.69740   0.00000  Uiso   1.00
C14    C     0.59234   0.98869   0.88308   0.00000  Uiso   1.00
C15    C     0.60567   0.03178   0.92306   0.00000  Uiso   1.00
C16    C     0.55920   0.09087   0.91921   0.00000  Uiso   1.00
C17    C     0.58124   0.12286   0.95989   0.00000  Uiso   1.00
C18    C     0.60943   0.91842   0.93243   0.00000  Uiso   1.00
C19    C     0.56611   0.88219   0.93645   0.00000  Uiso   1.00
C20    C     0.59131   0.81874   0.98501   0.00000  Uiso   1.00
C21    C     0.64537   0.98280   0.84797   0.00000  Uiso   1.00
C22    C     0.63228   0.00069   0.78099   0.00000  Uiso   1.00
C23    C     0.68774   0.99142   0.75845   0.00000  Uiso   1.00
H24    H     0.76562   0.92001   0.99562   0.00000  Uiso   1.00
H25    H     0.74512   0.01716   0.03996   0.00000  Uiso   1.00
H26    H     0.75203   0.80851   0.05719   0.00000  Uiso   1.00
H27    H     0.81819   0.92699   0.90175   0.00000  Uiso   1.00
H28    H     0.69323   0.13641   0.07018   0.00000  Uiso   1.00
H29    H     0.70781   0.69646   0.10650   0.00000  Uiso   1.00
H30    H     0.84731   0.94629   0.77874   0.00000  Uiso   1.00
H31    H     0.54084   0.00911   0.84963   0.00000  Uiso   1.00
H32    H     0.50802   0.11115   0.88596   0.00000  Uiso   1.00
H33    H     0.51493   0.90250   0.90319   0.00000  Uiso   1.00
H34    H     0.58108   0.02097   0.74776   0.00000  Uiso   1.00
H35    H     0.50078   0.21270   0.94519   0.00000  Uiso   1.00
H36    H     0.51536   0.77274   0.98151   0.00000  Uiso   1.00
H37    H     0.65486   0.02257   0.65374   0.00000  Uiso   1.00
O38    O     0.57946   0.24006   0.03423   0.00000  Uiso   1.00
O39    O     0.59859   0.66285   0.08187   0.00000  Uiso   1.00
O40    O     0.78161   0.99063   0.65185   0.00000  Uiso   1.00
N41    N     0.65244   0.14037   0.03577   0.00000  Uiso   1.00
N42    N     0.66607   0.72904   0.06973   0.00000  Uiso   1.00
N43    N     0.79649   0.96260   0.76330   0.00000  Uiso   1.00
N44    N     0.54889   0.18142   0.96852   0.00000  Uiso   1.00
N45    N     0.56252   0.77009   0.00247   0.00000  Uiso   1.00
N46    N     0.69294   0.00364   0.69605   0.00000  Uiso   1.00
C47    C     0.11238   0.42394   0.43812   0.00000  Uiso   1.00
C48    C     0.07239   0.49777   0.42198   0.00000  Uiso   1.00
C49    C     0.07378   0.55197   0.37334   0.00000  Uiso   1.00
C50    C     0.03356   0.61560   0.36633   0.00000  Uiso   1.00
C51    C     0.97760   0.72887   0.33517   0.00000  Uiso   1.00
C52    C     0.15364   0.39631   0.51025   0.00000  Uiso   1.00
C53    C     0.22334   0.36519   0.53581   0.00000  Uiso   1.00
C54    C     0.25152   0.34341   0.60311   0.00000  Uiso   1.00
C55    C     0.32169   0.29912   0.70898   0.00000  Uiso   1.00
C56    C     0.06046   0.38914   0.43290   0.00000  Uiso   1.00
C57    C     0.05184   0.35197   0.39344   0.00000  Uiso   1.00
C58    C     0.00157   0.32414   0.39563   0.00000  Uiso   1.00
C59    C     0.92708   0.26872   0.38140   0.00000  Uiso   1.00
C60    C     0.03847   0.44059   0.51217   0.00000  Uiso   1.00
C61    C     0.03225   0.50681   0.46220   0.00000  Uiso   1.00
C62    C     0.99201   0.57038   0.45526   0.00000  Uiso   1.00
C63    C     0.99334   0.62466   0.40662   0.00000  Uiso   1.00
C64    C     0.11350   0.40535   0.55046   0.00000  Uiso   1.00
C65    C     0.14157   0.38361   0.61774   0.00000  Uiso   1.00
C66    C     0.21130   0.35247   0.64340   0.00000  Uiso   1.00
C67    C     0.02032   0.39818   0.47311   0.00000  Uiso   1.00
C68    C     0.97006   0.37040   0.47536   0.00000  Uiso   1.00
C69    C     0.96136   0.33320   0.43592   0.00000  Uiso   1.00
H70    H     0.14364   0.41690   0.40682   0.00000  Uiso   1.00
H71    H     0.10486   0.54495   0.34223   0.00000  Uiso   1.00
H72    H     0.25440   0.35820   0.50468   0.00000  Uiso   1.00
H73    H     0.08291   0.34499   0.36233   0.00000  Uiso   1.00
H74    H     0.04419   0.69091   0.28838   0.00000  Uiso   1.00
H75    H     0.35949   0.29711   0.63091   0.00000  Uiso   1.00
H76    H     0.99789   0.26925   0.33073   0.00000  Uiso   1.00
H77    H     0.00721   0.44762   0.54348   0.00000  Uiso   1.00
H78    H     0.96095   0.57737   0.48639   0.00000  Uiso   1.00
H79    H     0.11049   0.39061   0.64884   0.00000  Uiso   1.00
H80    H     0.93900   0.37740   0.50649   0.00000  Uiso   1.00
H81    H     0.92739   0.71722   0.40539   0.00000  Uiso   1.00
H82    H     0.24269   0.32342   0.74792   0.00000  Uiso   1.00
H83    H     0.88108   0.29556   0.44774   0.00000  Uiso   1.00
O84    O     0.95783   0.78885   0.30687   0.00000  Uiso   1.00
O85    O     0.37149   0.27220   0.75626   0.00000  Uiso   1.00
O86    O     0.89708   0.23565   0.36244   0.00000  Uiso   1.00
N87    N     0.02304   0.67929   0.32374   0.00000  Uiso   1.00
N88    N     0.31783   0.31113   0.64399   0.00000  Uiso   1.00
N89    N     0.97977   0.28507   0.36336   0.00000  Uiso   1.00
N90    N     0.96019   0.69345   0.38670   0.00000  Uiso   1.00
N91    N     0.25497   0.32528   0.70695   0.00000  Uiso   1.00
N92    N     0.91692   0.29922   0.42632   0.00000  Uiso   1.00
C93    C     0.11986   0.14227   0.87265   0.00000  Uiso   1.00
C94    C     0.08543   0.14634   0.92457   0.00000  Uiso   1.00
C95    C     0.08240   0.09207   0.97185   0.00000  Uiso   1.00
C96    C     0.04855   0.10631   0.01488   0.00000  Uiso   1.00
C97    C     0.99960   0.10256   0.09611   0.00000  Uiso   1.00
C98    C     0.06576   0.18624   0.80711   0.00000  Uiso   1.00
C99    C     0.04620   0.16551   0.75563   0.00000  Uiso   1.00
C100   C     0.99580   0.21335   0.69977   0.00000  Uiso   1.00
C101   C     0.91634   0.27156   0.59862   0.00000  Uiso   1.00
C102   C     0.17087   0.17771   0.88100   0.00000  Uiso   1.00
C103   C     0.23968   0.14981   0.89164   0.00000  Uiso   1.00
C104   C     0.27776   0.19047   0.89798   0.00000  Uiso   1.00
C105   C     0.36149   0.23543   0.91157   0.00000  Uiso   1.00
C106   C     0.06514   0.26407   0.86497   0.00000  Uiso   1.00
C107   C     0.05571   0.21250   0.92040   0.00000  Uiso   1.00
C108   C     0.02186   0.22682   0.96336   0.00000  Uiso   1.00
C109   C     0.01878   0.17258   0.01070   0.00000  Uiso   1.00
C110   C     0.03604   0.25239   0.80294   0.00000  Uiso   1.00
C111   C     0.98566   0.30027   0.74714   0.00000  Uiso   1.00
C112   C     0.96602   0.27962   0.69559   0.00000  Uiso   1.00
C113   C     0.14115   0.24386   0.87684   0.00000  Uiso   1.00
C114   C     0.17913   0.28457   0.88315   0.00000  Uiso   1.00
C115   C     0.24799   0.25674   0.89380   0.00000  Uiso   1.00
H116   H     0.14299   0.09077   0.87589   0.00000  Uiso   1.00
H117   H     0.10540   0.04088   0.97506   0.00000  Uiso   1.00
H118   H     0.06921   0.11432   0.75887   0.00000  Uiso   1.00
H119   H     0.26266   0.09862   0.89486   0.00000  Uiso   1.00
H120   H     0.05060   0.01474   0.08316   0.00000  Uiso   1.00
H121   H     0.97431   0.16960   0.62729   0.00000  Uiso   1.00
H122   H     0.38223   0.13649   0.91407   0.00000  Uiso   1.00
H123   H     0.04200   0.31558   0.86173   0.00000  Uiso   1.00
H124   H     0.99887   0.27802   0.96012   0.00000  Uiso   1.00
H125   H     0.96267   0.35146   0.74393   0.00000  Uiso   1.00
H126   H     0.15612   0.33576   0.87993   0.00000  Uiso   1.00
H127   H     0.96413   0.20722   0.07103   0.00000  Uiso   1.00
H128   H     0.88784   0.36207   0.61516   0.00000  Uiso   1.00
H129   H     0.29575   0.32897   0.90194   0.00000  Uiso   1.00
O130   O     0.98080   0.08222   0.14206   0.00000  Uiso   1.00
O131   O     0.88071   0.28539   0.54398   0.00000  Uiso   1.00
O132   O     0.41589   0.24195   0.92023   0.00000  Uiso   1.00
N133   N     0.03618   0.06519   0.06681   0.00000  Uiso   1.00
N134   N     0.96484   0.20997   0.64060   0.00000  Uiso   1.00
N135   N     0.34621   0.17903   0.90870   0.00000  Uiso   1.00
N136   N     0.98965   0.16876   0.06028   0.00000  Uiso   1.00
N137   N     0.91831   0.31354   0.63408   0.00000  Uiso   1.00
N138   N     0.29968   0.28260   0.90217   0.00000  Uiso   1.00
C139   C     0.65449   0.54543   0.88106   0.00000  Uiso   1.00
C140   C     0.67010   0.61007   0.87194   0.00000  Uiso   1.00
C141   C     0.67844   0.64897   0.81595   0.00000  Uiso   1.00
C142   C     0.69246   0.70629   0.81732   0.00000  Uiso   1.00
C143   C     0.71583   0.80398   0.79472   0.00000  Uiso   1.00
C144   C     0.58985   0.55688   0.89988   0.00000  Uiso   1.00
C145   C     0.53072   0.55107   0.86739   0.00000  Uiso   1.00
C146   C     0.47719   0.56361   0.89230   0.00000  Uiso   1.00
C147   C     0.37599   0.57868   0.91312   0.00000  Uiso   1.00
C148   C     0.71043   0.49168   0.94126   0.00000  Uiso   1.00
C149   C     0.75267   0.43103   0.94356   0.00000  Uiso   1.00
C150   C     0.80065   0.38867   0.00331   0.00000  Uiso   1.00
C151   C     0.88666   0.30251   0.08836   0.00000  Uiso   1.00
C152   C     0.66457   0.57803   0.98307   0.00000  Uiso   1.00
C153   C     0.67557   0.62777   0.92735   0.00000  Uiso   1.00
C154   C     0.68959   0.68504   0.92881   0.00000  Uiso   1.00
C155   C     0.69795   0.72403   0.87283   0.00000  Uiso   1.00
C156   C     0.59532   0.57459   0.95529   0.00000  Uiso   1.00
C157   C     0.54187   0.58713   0.98026   0.00000  Uiso   1.00
C158   C     0.48267   0.58134   0.94781   0.00000  Uiso   1.00
C159   C     0.71590   0.50939   0.99667   0.00000  Uiso   1.00
C160   C     0.76382   0.46711   0.05643   0.00000  Uiso   1.00
C161   C     0.80613   0.40641   0.05882   0.00000  Uiso   1.00
H162   H     0.65022   0.53164   0.83792   0.00000  Uiso   1.00
H163   H     0.67419   0.63526   0.77307   0.00000  Uiso   1.00
H164   H     0.52650   0.53736   0.82452   0.00000  Uiso   1.00
H165   H     0.74842   0.41735   0.90067   0.00000  Uiso   1.00
H166   H     0.70315   0.75796   0.72561   0.00000  Uiso   1.00
H167   H     0.39174   0.55151   0.83409   0.00000  Uiso   1.00
H168   H     0.85970   0.29844   0.99468   0.00000  Uiso   1.00
H169   H     0.66883   0.59181   0.02621   0.00000  Uiso   1.00
H170   H     0.69382   0.69873   0.97170   0.00000  Uiso   1.00
H171   H     0.54613   0.60083   0.02314   0.00000  Uiso   1.00
H172   H     0.76804   0.48083   0.09930   0.00000  Uiso   1.00
H173   H     0.71908   0.80948   0.88682   0.00000  Uiso   1.00
H174   H     0.40767   0.60302   0.99531   0.00000  Uiso   1.00
H175   H     0.87563   0.34996   0.15589   0.00000  Uiso   1.00
O176   O     0.72719   0.85298   0.76695   0.00000  Uiso   1.00
O177   O     0.31865   0.58211   0.90928   0.00000  Uiso   1.00
O178   O     0.93260   0.25010   0.11997   0.00000  Uiso   1.00
N179   N     0.70348   0.75540   0.77103   0.00000  Uiso   1.00
N180   N     0.41233   0.56239   0.87245   0.00000  Uiso   1.00
N181   N     0.84982   0.32579   0.02259   0.00000  Uiso   1.00
N182   N     0.71205   0.78312   0.85778   0.00000  Uiso   1.00
N183   N     0.42090   0.59012   0.95920   0.00000  Uiso   1.00
N184   N     0.85839   0.35351   0.10934   0.00000  Uiso   1.00
C185   C     0.32835   0.01428   0.19254   0.00000  Uiso   1.00
C186   C     0.34406   0.00291   0.26508   0.00000  Uiso   1.00
C187   C     0.40713   0.98878   0.30803   0.00000  Uiso   1.00
C188   C     0.41101   0.98007   0.37249   0.00000  Uiso   1.00
C189   C     0.44410   0.96164   0.48198   0.00000  Uiso   1.00
C190   C     0.27292   0.08323   0.15674   0.00000  Uiso   1.00
C191   C     0.27618   0.13663   0.10858   0.00000  Uiso   1.00
C192   C     0.22017   0.19553   0.08183   0.00000  Uiso   1.00
C193   C     0.14279   0.30178   0.02308   0.00000  Uiso   1.00
C194   C     0.29593   0.96334   0.18189   0.00000  Uiso   1.00
C195   C     0.31851   0.91595   0.15488   0.00000  Uiso   1.00
C196   C     0.28186   0.87392   0.14929   0.00000  Uiso   1.00
C197   C     0.24020   0.79403   0.12960   0.00000  Uiso   1.00
C198   C     0.22310   0.02394   0.23064   0.00000  Uiso   1.00
C199   C     0.28689   0.00815   0.28577   0.00000  Uiso   1.00
C200   C     0.29068   0.99946   0.35018   0.00000  Uiso   1.00
C201   C     0.35374   0.98532   0.39322   0.00000  Uiso   1.00
C202   C     0.21576   0.08847   0.17743   0.00000  Uiso   1.00
C203   C     0.15973   0.14731   0.15074   0.00000  Uiso   1.00
C204   C     0.16289   0.20078   0.10256   0.00000  Uiso   1.00
C205   C     0.23876   0.96858   0.20259   0.00000  Uiso   1.00
C206   C     0.20206   0.92662   0.19704   0.00000  Uiso   1.00
C207   C     0.22458   0.87917   0.17002   0.00000  Uiso   1.00
H208   H     0.37285   0.01021   0.17642   0.00000  Uiso   1.00
H209   H     0.45136   0.98473   0.29200   0.00000  Uiso   1.00
H210   H     0.32042   0.13255   0.09258   0.00000  Uiso   1.00
H211   H     0.36275   0.91190   0.13887   0.00000  Uiso   1.00
H212   H     0.51318   0.95883   0.42925   0.00000  Uiso   1.00
H213   H     0.23708   0.27050   0.00875   0.00000  Uiso   1.00
H214   H     0.32634   0.80523   0.10636   0.00000  Uiso   1.00
H215   H     0.17859   0.02802   0.24675   0.00000  Uiso   1.00
H216   H     0.24643   0.00352   0.36618   0.00000  Uiso   1.00
H217   H     0.11549   0.15134   0.16676   0.00000  Uiso   1.00
H218   H     0.15782   0.93069   0.21305   0.00000  Uiso   1.00
H219   H     0.34685   0.97408   0.48947   0.00000  Uiso   1.00
H220   H     0.07075   0.28576   0.06896   0.00000  Uiso   1.00
H221   H     0.16001   0.82048   0.16657   0.00000  Uiso   1.00
O222   O     0.47815   0.95004   0.53665   0.00000  Uiso   1.00
O223   O     0.11591   0.35894   0.98496   0.00000  Uiso   1.00
O224   O     0.23302   0.74851   0.11303   0.00000  Uiso   1.00
N225   N     0.46472   0.96576   0.42704   0.00000  Uiso   1.00
N226   N     0.20660   0.25717   0.03390   0.00000  Uiso   1.00
N227   N     0.29004   0.82218   0.12514   0.00000  Uiso   1.00
N228   N     0.37523   0.97397   0.45944   0.00000  Uiso   1.00
N229   N     0.11710   0.26538   0.06630   0.00000  Uiso   1.00
N230   N     0.20054   0.83039   0.15754   0.00000  Uiso   1.00
C231   C     0.60725   0.07797   0.36362   0.00000  Uiso   1.00
C232   C     0.56098   0.12898   0.38285   0.00000  Uiso   1.00
C233   C     0.52896   0.11394   0.42943   0.00000  Uiso   1.00
C234   C     0.48873   0.16775   0.43993   0.00000  Uiso   1.00
C235   C     0.41812   0.23685   0.47512   0.00000  Uiso   1.00
C236   C     0.67399   0.09063   0.37394   0.00000  Uiso   1.00
C237   C     0.73698   0.04334   0.41303   0.00000  Uiso   1.00
C238   C     0.79188   0.06486   0.41602   0.00000  Uiso   1.00
C239   C     0.89671   0.07442   0.43734   0.00000  Uiso   1.00
C240   C     0.57684   0.09811   0.29008   0.00000  Uiso   1.00
C241   C     0.55816   0.05710   0.25864   0.00000  Uiso   1.00
C242   C     0.53128   0.08491   0.19103   0.00000  Uiso   1.00
C243   C     0.48527   0.10607   0.08214   0.00000  Uiso   1.00
C244   C     0.59273   0.20028   0.29944   0.00000  Uiso   1.00
C245   C     0.55310   0.19542   0.34799   0.00000  Uiso   1.00
C246   C     0.51290   0.24926   0.35842   0.00000  Uiso   1.00
C247   C     0.48083   0.23430   0.40501   0.00000  Uiso   1.00
C248   C     0.66610   0.15706   0.33908   0.00000  Uiso   1.00
C249   C     0.72092   0.17866   0.34202   0.00000  Uiso   1.00
C250   C     0.78398   0.13142   0.38110   0.00000  Uiso   1.00
C251   C     0.56895   0.16454   0.25522   0.00000  Uiso   1.00
C252   C     0.54210   0.19242   0.18764   0.00000  Uiso   1.00
C253   C     0.52338   0.15147   0.15610   0.00000  Uiso   1.00
H254   H     0.61339   0.02625   0.39076   0.00000  Uiso   1.00
H255   H     0.53508   0.06252   0.45640   0.00000  Uiso   1.00
H256   H     0.74307   0.99193   0.43999   0.00000  Uiso   1.00
H257   H     0.56427   0.00569   0.28563   0.00000  Uiso   1.00
H258   H     0.44481   0.13203   0.51382   0.00000  Uiso   1.00
H259   H     0.88336   0.98319   0.47921   0.00000  Uiso   1.00
H260   H     0.50633   0.01220   0.15371   0.00000  Uiso   1.00
H261   H     0.58660   0.25200   0.27229   0.00000  Uiso   1.00
H262   H     0.50681   0.30067   0.33144   0.00000  Uiso   1.00
H263   H     0.71480   0.23008   0.31503   0.00000  Uiso   1.00
H264   H     0.53600   0.24384   0.16067   0.00000  Uiso   1.00
H265   H     0.42187   0.32532   0.41240   0.00000  Uiso   1.00
H266   H     0.86042   0.17647   0.37778   0.00000  Uiso   1.00
H267   H     0.48339   0.20549   0.05229   0.00000  Uiso   1.00
O268   O     0.38136   0.25661   0.50417   0.00000  Uiso   1.00
O269   O     0.95672   0.06133   0.45875   0.00000  Uiso   1.00
O270   O     0.46206   0.09939   0.03171   0.00000  Uiso   1.00
N271   N     0.45035   0.17084   0.48183   0.00000  Uiso   1.00
N272   N     0.86036   0.03169   0.44947   0.00000  Uiso   1.00
N273   N     0.50789   0.05880   0.14516   0.00000  Uiso   1.00
N274   N     0.43800   0.27485   0.42725   0.00000  Uiso   1.00
N275   N     0.84802   0.13569   0.39490   0.00000  Uiso   1.00
N276   N     0.49555   0.16281   0.09059   0.00000  Uiso   1.00
C277   C     0.39306   0.76611   0.36995   0.00000  Uiso   1.00
C278   C     0.34812   0.72664   0.35366   0.00000  Uiso   1.00
C279   C     0.27860   0.75327   0.32393   0.00000  Uiso   1.00
C280   C     0.24671   0.70884   0.31321   0.00000  Uiso   1.00
C281   C     0.17139   0.65800   0.28508   0.00000  Uiso   1.00
C282   C     0.44668   0.75308   0.33628   0.00000  Uiso   1.00
C283   C     0.46003   0.80194   0.29195   0.00000  Uiso   1.00
C284   C     0.51112   0.77976   0.26661   0.00000  Uiso   1.00
C285   C     0.58884   0.76997   0.21154   0.00000  Uiso   1.00
C286   C     0.43030   0.73208   0.44308   0.00000  Uiso   1.00
C287   C     0.42990   0.76327   0.48855   0.00000  Uiso   1.00
C288   C     0.46721   0.72341   0.55312   0.00000  Uiso   1.00
C289   C     0.51951   0.68100   0.66388   0.00000  Uiso   1.00
C290   C     0.46004   0.63986   0.40376   0.00000  Uiso   1.00
C291   C     0.38450   0.65807   0.37202   0.00000  Uiso   1.00
C292   C     0.35270   0.61359   0.36134   0.00000  Uiso   1.00
C293   C     0.28315   0.64014   0.33161   0.00000  Uiso   1.00
C294   C     0.48305   0.68451   0.35464   0.00000  Uiso   1.00
C295   C     0.53413   0.66226   0.32936   0.00000  Uiso   1.00
C296   C     0.54756   0.71106   0.28501   0.00000  Uiso   1.00
C297   C     0.46668   0.66350   0.46144   0.00000  Uiso   1.00
C298   C     0.50400   0.62359   0.52596   0.00000  Uiso   1.00
C299   C     0.50366   0.65471   0.57152   0.00000  Uiso   1.00
H300   H     0.36474   0.81949   0.35565   0.00000  Uiso   1.00
H301   H     0.25047   0.80634   0.30972   0.00000  Uiso   1.00
H302   H     0.43188   0.85500   0.27775   0.00000  Uiso   1.00
H303   H     0.40175   0.81633   0.47432   0.00000  Uiso   1.00
H304   H     0.13982   0.76152   0.26688   0.00000  Uiso   1.00
H305   H     0.52234   0.86412   0.19949   0.00000  Uiso   1.00
H306   H     0.45881   0.78259   0.61398   0.00000  Uiso   1.00
H307   H     0.48836   0.58647   0.41806   0.00000  Uiso   1.00
H308   H     0.38087   0.56053   0.37556   0.00000  Uiso   1.00
H309   H     0.56228   0.60919   0.34359   0.00000  Uiso   1.00
H310   H     0.53215   0.57053   0.54015   0.00000  Uiso   1.00
H311   H     0.24565   0.56201   0.32031   0.00000  Uiso   1.00
H312   H     0.62818   0.66461   0.25293   0.00000  Uiso   1.00
H313   H     0.56465   0.58308   0.66742   0.00000  Uiso   1.00
O314   O     0.11979   0.64891   0.26449   0.00000  Uiso   1.00
O315   O     0.62166   0.78352   0.17609   0.00000  Uiso   1.00
O316   O     0.53830   0.67655   0.71990   0.00000  Uiso   1.00
N317   N     0.17948   0.71812   0.28530   0.00000  Uiso   1.00
N318   N     0.53711   0.81405   0.22229   0.00000  Uiso   1.00
N319   N     0.47772   0.73783   0.60980   0.00000  Uiso   1.00
N320   N     0.23643   0.61077   0.31405   0.00000  Uiso   1.00
N321   N     0.59406   0.70670   0.25104   0.00000  Uiso   1.00
N322   N     0.53467   0.63048   0.63856   0.00000  Uiso   1.00
C323   C     0.72990   0.28458   0.89421   0.00000  Uiso   1.00
C324   C     0.76344   0.20822   0.92208   0.00000  Uiso   1.00
C325   C     0.81174   0.17046   0.98276   0.00000  Uiso   1.00
C326   C     0.83620   0.10121   0.99926   0.00000  Uiso   1.00
C327   C     0.89177   0.98726   0.04905   0.00000  Uiso   1.00
C328   C     0.65401   0.29886   0.87752   0.00000  Uiso   1.00
C329   C     0.61031   0.33732   0.90071   0.00000  Uiso   1.00
C330   C     0.54266   0.34438   0.87968   0.00000  Uiso   1.00
C331   C     0.42833   0.37119   0.86025   0.00000  Uiso   1.00
C332   C     0.74315   0.30841   0.82915   0.00000  Uiso   1.00
C333   C     0.77437   0.35491   0.81168   0.00000  Uiso   1.00
C334   C     0.78174   0.37002   0.74992   0.00000  Uiso   1.00
C335   C     0.80580   0.41165   0.65540   0.00000  Uiso   1.00
C336   C     0.68746   0.22877   0.81560   0.00000  Uiso   1.00
C337   C     0.74038   0.17791   0.87939   0.00000  Uiso   1.00
C338   C     0.76478   0.10870   0.89579   0.00000  Uiso   1.00
C339   C     0.81311   0.07084   0.95648   0.00000  Uiso   1.00
C340   C     0.63096   0.26855   0.83482   0.00000  Uiso   1.00
C341   C     0.56336   0.27556   0.81375   0.00000  Uiso   1.00
C342   C     0.51956   0.31401   0.83691   0.00000  Uiso   1.00
C343   C     0.72009   0.27810   0.78646   0.00000  Uiso   1.00
C344   C     0.72741   0.29315   0.72471   0.00000  Uiso   1.00
C345   C     0.75865   0.33965   0.70715   0.00000  Uiso   1.00
H346   H     0.74784   0.30819   0.92745   0.00000  Uiso   1.00
H347   H     0.82956   0.19394   0.01579   0.00000  Uiso   1.00
H348   H     0.62816   0.36077   0.93375   0.00000  Uiso   1.00
H349   H     0.79220   0.37836   0.84473   0.00000  Uiso   1.00
H350   H     0.90998   0.05390   0.09492   0.00000  Uiso   1.00
H351   H     0.48532   0.40570   0.92191   0.00000  Uiso   1.00
H352   H     0.83122   0.44278   0.73420   0.00000  Uiso   1.00
H353   H     0.66951   0.20517   0.78236   0.00000  Uiso   1.00
H354   H     0.74693   0.08526   0.86274   0.00000  Uiso   1.00
H355   H     0.54553   0.25210   0.78070   0.00000  Uiso   1.00
H356   H     0.70957   0.26968   0.69169   0.00000  Uiso   1.00
H357   H     0.84291   0.96569   0.97070   0.00000  Uiso   1.00
H358   H     0.41825   0.31750   0.79769   0.00000  Uiso   1.00
H359   H     0.76415   0.35458   0.60998   0.00000  Uiso   1.00
O360   O     0.92878   0.93277   0.08832   0.00000  Uiso   1.00
O361   O     0.37164   0.39434   0.86133   0.00000  Uiso   1.00
O362   O     0.82545   0.44298   0.61505   0.00000  Uiso   1.00
N363   N     0.88358   0.04959   0.05465   0.00000  Uiso   1.00
N364   N     0.48655   0.37850   0.89290   0.00000  Uiso   1.00
N365   N     0.80992   0.41318   0.71740   0.00000  Uiso   1.00
N366   N     0.84749   0.00213   0.98781   0.00000  Uiso   1.00
N367   N     0.45046   0.33104   0.82606   0.00000  Uiso   1.00
N368   N     0.77383   0.36572   0.65056   0.00000  Uiso   1.00
C369   C     0.83564   0.79915   0.48202   0.00000  Uiso   1.00
C370   C     0.80718   0.81033   0.41004   0.00000  Uiso   1.00
C371   C     0.83006   0.84021   0.36033   0.00000  Uiso   1.00
C372   C     0.79734   0.84577   0.29770   0.00000  Uiso   1.00
C373   C     0.76134   0.86668   0.18781   0.00000  Uiso   1.00
C374   C     0.85584   0.72394   0.51910   0.00000  Uiso   1.00
C375   C     0.91962   0.68119   0.56109   0.00000  Uiso   1.00
C376   C     0.92785   0.61403   0.59028   0.00000  Uiso   1.00
C377   C     0.96738   0.50083   0.64975   0.00000  Uiso   1.00
C378   C     0.77620   0.83352   0.50129   0.00000  Uiso   1.00
C379   C     0.77302   0.88290   0.52832   0.00000  Uiso   1.00
C380   C     0.71421   0.90799   0.54253   0.00000  Uiso   1.00
C381   C     0.63008   0.96494   0.57435   0.00000  Uiso   1.00
C382   C     0.73684   0.75590   0.45919   0.00000  Uiso   1.00
C383   C     0.75352   0.78683   0.39764   0.00000  Uiso   1.00
C384   C     0.72075   0.79236   0.33507   0.00000  Uiso   1.00
C385   C     0.74358   0.82224   0.28527   0.00000  Uiso   1.00
C386   C     0.80218   0.70045   0.50670   0.00000  Uiso   1.00
C387   C     0.81032   0.63334   0.53583   0.00000  Uiso   1.00
C388   C     0.87410   0.59049   0.57786   0.00000  Uiso   1.00
C389   C     0.72253   0.81003   0.48889   0.00000  Uiso   1.00
C390   C     0.66372   0.83505   0.50306   0.00000  Uiso   1.00
C391   C     0.66045   0.88446   0.53011   0.00000  Uiso   1.00
H392   H     0.87742   0.81743   0.49168   0.00000  Uiso   1.00
H393   H     0.87159   0.85838   0.36994   0.00000  Uiso   1.00
H394   H     0.96114   0.69938   0.57068   0.00000  Uiso   1.00
H395   H     0.81456   0.90107   0.53791   0.00000  Uiso   1.00
H396   H     0.84148   0.89339   0.22951   0.00000  Uiso   1.00
H397   H     0.03029   0.55815   0.65280   0.00000  Uiso   1.00
H398   H     0.72120   0.98344   0.58370   0.00000  Uiso   1.00
H399   H     0.69507   0.73760   0.44954   0.00000  Uiso   1.00
H400   H     0.67923   0.77417   0.32549   0.00000  Uiso   1.00
H401   H     0.76878   0.61518   0.52623   0.00000  Uiso   1.00
H402   H     0.62220   0.81686   0.49346   0.00000  Uiso   1.00
H403   H     0.68536   0.82505   0.19343   0.00000  Uiso   1.00
H404   H     0.87416   0.48980   0.61672   0.00000  Uiso   1.00
H405   H     0.56508   0.91509   0.54762   0.00000  Uiso   1.00
O406   O     0.75631   0.88469   0.13063   0.00000  Uiso   1.00
O407   O     0.00401   0.44487   0.68598   0.00000  Uiso   1.00
O408   O     0.59850   0.00284   0.59532   0.00000  Uiso   1.00
N409   N     0.80690   0.87230   0.23804   0.00000  Uiso   1.00
N410   N     0.98343   0.55886   0.63378   0.00000  Uiso   1.00
N411   N     0.69447   0.95646   0.56920   0.00000  Uiso   1.00
N412   N     0.72289   0.83552   0.21863   0.00000  Uiso   1.00
N413   N     0.89942   0.52209   0.61437   0.00000  Uiso   1.00
N414   N     0.61046   0.91969   0.54978   0.00000  Uiso   1.00
C415   C     0.16074   0.49584   0.22274   0.00000  Uiso   1.00
C416   C     0.18861   0.41917   0.24877   0.00000  Uiso   1.00
C417   C     0.22062   0.37772   0.31383   0.00000  Uiso   1.00
C418   C     0.24250   0.30886   0.32765   0.00000  Uiso   1.00
C419   C     0.28731   0.19382   0.37560   0.00000  Uiso   1.00
C420   C     0.19492   0.51858   0.17225   0.00000  Uiso   1.00
C421   C     0.23222   0.56071   0.17297   0.00000  Uiso   1.00
C422   C     0.25939   0.57553   0.12238   0.00000  Uiso   1.00
C423   C     0.31395   0.61486   0.05151   0.00000  Uiso   1.00
C424   C     0.08630   0.51650   0.18473   0.00000  Uiso   1.00
C425   C     0.03227   0.55689   0.19592   0.00000  Uiso   1.00
C426   C     0.96799   0.56998   0.15581   0.00000  Uiso   1.00
C427   C     0.85391   0.60607   0.10431   0.00000  Uiso   1.00
C428   C     0.14267   0.44727   0.13160   0.00000  Uiso   1.00
C429   C     0.17880   0.39279   0.19927   0.00000  Uiso   1.00
C430   C     0.20064   0.32398   0.21299   0.00000  Uiso   1.00
C431   C     0.23267   0.28243   0.27806   0.00000  Uiso   1.00
C432   C     0.18511   0.49220   0.12275   0.00000  Uiso   1.00
C433   C     0.21223   0.50697   0.07214   0.00000  Uiso   1.00
C434   C     0.24957   0.54910   0.07279   0.00000  Uiso   1.00
C435   C     0.07649   0.49011   0.13522   0.00000  Uiso   1.00
C436   C     0.01229   0.50314   0.09509   0.00000  Uiso   1.00
C437   C     0.95817   0.54355   0.10622   0.00000  Uiso   1.00
H438   H     0.16838   0.51639   0.26127   0.00000  Uiso   1.00
H439   H     0.22821   0.39816   0.35212   0.00000  Uiso   1.00
H440   H     0.23980   0.58112   0.21129   0.00000  Uiso   1.00
H441   H     0.03988   0.57730   0.23423   0.00000  Uiso   1.00
H442   H     0.29024   0.25544   0.43101   0.00000  Uiso   1.00
H443   H     0.31465   0.64125   0.13404   0.00000  Uiso   1.00
H444   H     0.89309   0.63319   0.18242   0.00000  Uiso   1.00
H445   H     0.13504   0.42673   0.09305   0.00000  Uiso   1.00
H446   H     0.19304   0.30357   0.17468   0.00000  Uiso   1.00
H447   H     0.20463   0.48654   0.03384   0.00000  Uiso   1.00
H448   H     0.00471   0.48272   0.05679   0.00000  Uiso   1.00
H449   H     0.26170   0.17867   0.28699   0.00000  Uiso   1.00
H450   H     0.28611   0.56449   0.99001   0.00000  Uiso   1.00
H451   H     0.86455   0.55643   0.03840   0.00000  Uiso   1.00
O452   O     0.31474   0.13766   0.41573   0.00000  Uiso   1.00
O453   O     0.34677   0.64384   0.02610   0.00000  Uiso   1.00
O454   O     0.79369   0.63326   0.08959   0.00000  Uiso   1.00
N455   N     0.27555   0.25427   0.38592   0.00000  Uiso   1.00
N456   N     0.29839   0.61497   0.10827   0.00000  Uiso   1.00
N457   N     0.90426   0.60746   0.15349   0.00000  Uiso   1.00
N458   N     0.26019   0.21297   0.30842   0.00000  Uiso   1.00
N459   N     0.28303   0.57367   0.03077   0.00000  Uiso   1.00
N460   N     0.88890   0.56615   0.07600   0.00000  Uiso   1.00
C461   C     0.91781   0.73425   0.88649   0.00000  Uiso   1.00
C462   C     0.93724   0.76167   0.82575   0.00000  Uiso   1.00
C463   C     0.89440   0.81324   0.76797   0.00000  Uiso   1.00
C464   C     0.92185   0.83098   0.71808   0.00000  Uiso   1.00
C465   C     0.94170   0.87851   0.62258   0.00000  Uiso   1.00
C466   C     0.93528   0.65902   0.90109   0.00000  Uiso   1.00
C467   C     0.89078   0.62428   0.90667   0.00000  Uiso   1.00
C468   C     0.91659   0.55559   0.92021   0.00000  Uiso   1.00
C469   C     0.93339   0.44374   0.94172   0.00000  Uiso   1.00
C470   C     0.96652   0.74079   0.94233   0.00000  Uiso   1.00
C471   C     0.94830   0.77479   0.98260   0.00000  Uiso   1.00
C472   C     0.00041   0.77494   0.03088   0.00000  Uiso   1.00
C473   C     0.06573   0.79006   0.11643   0.00000  Uiso   1.00
C474   C     0.04274   0.67404   0.90063   0.00000  Uiso   1.00
C475   C     0.00510   0.72897   0.83343   0.00000  Uiso   1.00
C476   C     0.03263   0.74663   0.78361   0.00000  Uiso   1.00
C477   C     0.98984   0.79822   0.72577   0.00000  Uiso   1.00
C478   C     0.00313   0.62632   0.90877   0.00000  Uiso   1.00
C479   C     0.02901   0.55767   0.92231   0.00000  Uiso   1.00
C480   C     0.98457   0.52283   0.92790   0.00000  Uiso   1.00
C481   C     0.03438   0.70809   0.95001   0.00000  Uiso   1.00
C482   C     0.08653   0.70818   0.99824   0.00000  Uiso   1.00
C483   C     0.06839   0.74218   0.03857   0.00000  Uiso   1.00
H484   H     0.86497   0.75970   0.88052   0.00000  Uiso   1.00
H485   H     0.84188   0.83853   0.76204   0.00000  Uiso   1.00
H486   H     0.83827   0.64960   0.90073   0.00000  Uiso   1.00
H487   H     0.89578   0.80009   0.97665   0.00000  Uiso   1.00
H488   H     0.84621   0.91149   0.63408   0.00000  Uiso   1.00
H489   H     0.83859   0.51310   0.92652   0.00000  Uiso   1.00
H490   H     0.95986   0.83045   0.08661   0.00000  Uiso   1.00
H491   H     0.09558   0.64858   0.90661   0.00000  Uiso   1.00
H492   H     0.08515   0.72131   0.78957   0.00000  Uiso   1.00
H493   H     0.08153   0.53238   0.92825   0.00000  Uiso   1.00
H494   H     0.13904   0.68287   0.00417   0.00000  Uiso   1.00
H495   H     0.04364   0.81635   0.65642   0.00000  Uiso   1.00
H496   H     0.03603   0.41796   0.94886   0.00000  Uiso   1.00
H497   H     0.15730   0.73531   0.10895   0.00000  Uiso   1.00
O498   O     0.93389   0.91376   0.56777   0.00000  Uiso   1.00
O499   O     0.92391   0.39109   0.95146   0.00000  Uiso   1.00
O500   O     0.08301   0.80745   0.16149   0.00000  Uiso   1.00
N501   N     0.89411   0.87913   0.65540   0.00000  Uiso   1.00
N502   N     0.88699   0.50666   0.92881   0.00000  Uiso   1.00
N503   N     0.00036   0.80334   0.07849   0.00000  Uiso   1.00
N504   N     0.00035   0.82793   0.66742   0.00000  Uiso   1.00
N505   N     0.99323   0.45547   0.94083   0.00000  Uiso   1.00
N506   N     0.10660   0.75215   0.09051   0.00000  Uiso   1.00
C507   C     0.36711   0.00416   0.78372   0.00000  Uiso   1.00
C508   C     0.41091   0.95103   0.76481   0.00000  Uiso   1.00
C509   C     0.45280   0.96137   0.72706   0.00000  Uiso   1.00
C510   C     0.48871   0.90633   0.71523   0.00000  Uiso   1.00
C511   C     0.55758   0.83343   0.68203   0.00000  Uiso   1.00
C512   C     0.29506   0.00547   0.75983   0.00000  Uiso   1.00
C513   C     0.23954   0.06159   0.71791   0.00000  Uiso   1.00
C514   C     0.17793   0.05238   0.70189   0.00000  Uiso   1.00
C515   C     0.06692   0.06402   0.66100   0.00000  Uiso   1.00
C516   C     0.38803   0.97639   0.85811   0.00000  Uiso   1.00
C517   C     0.41066   0.00807   0.89882   0.00000  Uiso   1.00
C518   C     0.42731   0.97438   0.96555   0.00000  Uiso   1.00
C519   C     0.46065   0.94088   0.07725   0.00000  Uiso   1.00
C520   C     0.35641   0.88802   0.82983   0.00000  Uiso   1.00
C521   C     0.40510   0.88795   0.78986   0.00000  Uiso   1.00
C522   C     0.44096   0.83288   0.77808   0.00000  Uiso   1.00
C523   C     0.48290   0.84313   0.74032   0.00000  Uiso   1.00
C524   C     0.28925   0.94239   0.78488   0.00000  Uiso   1.00
C525   C     0.22770   0.93310   0.76892   0.00000  Uiso   1.00
C526   C     0.17210   0.98919   0.72698   0.00000  Uiso   1.00
C527   C     0.38222   0.91331   0.88316   0.00000  Uiso   1.00
C528   C     0.39883   0.87958   0.94983   0.00000  Uiso   1.00
C529   C     0.42148   0.91119   0.99064   0.00000  Uiso   1.00
H530   H     0.37163   0.05327   0.76422   0.00000  Uiso   1.00
H531   H     0.45728   0.01019   0.70768   0.00000  Uiso   1.00
H532   H     0.24405   0.11039   0.69854   0.00000  Uiso   1.00
H533   H     0.41515   0.05688   0.87942   0.00000  Uiso   1.00
H534   H     0.54965   0.93462   0.65603   0.00000  Uiso   1.00
H535   H     0.10004   0.14591   0.63676   0.00000  Uiso   1.00
H536   H     0.46084   0.03307   0.01818   0.00000  Uiso   1.00
H537   H     0.35189   0.83891   0.84933   0.00000  Uiso   1.00
H538   H     0.43646   0.78407   0.79747   0.00000  Uiso   1.00
H539   H     0.22323   0.88428   0.78832   0.00000  Uiso   1.00
H540   H     0.39432   0.83077   0.96920   0.00000  Uiso   1.00
H541   H     0.53275   0.75109   0.72890   0.00000  Uiso   1.00
H542   H     0.08314   0.96239   0.70963   0.00000  Uiso   1.00
H543   H     0.44393   0.84955   0.09106   0.00000  Uiso   1.00
O544   O     0.59717   0.81065   0.65680   0.00000  Uiso   1.00
O545   O     0.00730   0.08786   0.63152   0.00000  Uiso   1.00
O546   O     0.48066   0.93982   0.13194   0.00000  Uiso   1.00
N547   N     0.53408   0.89895   0.68031   0.00000  Uiso   1.00
N548   N     0.11372   0.09649   0.66228   0.00000  Uiso   1.00
N549   N     0.45102   0.99101   0.01888   0.00000  Uiso   1.00
N550   N     0.52498   0.80020   0.71952   0.00000  Uiso   1.00
N551   N     0.10463   0.99774   0.70149   0.00000  Uiso   1.00
N552   N     0.44192   0.89225   0.05809   0.00000  Uiso   1.00
