data_job_02892
_audit_creation_date              2018-12-19
_audit_creation_method            'Materials Studio'
_symmetry_space_group_name_H-M    'P1'
_symmetry_Int_Tables_number       1
_symmetry_cell_setting            triclinic
loop_
_symmetry_equiv_pos_as_xyz
  x,y,z
_cell_length_a                    7.1837
_cell_length_b                    19.6192
_cell_length_c                    21.1420
_cell_angle_alpha                 90.0000
_cell_angle_beta                  118.7367
_cell_angle_gamma                 90.0000
loop_
_atom_site_label
_atom_site_type_symbol
_atom_site_fract_x
_atom_site_fract_y
_atom_site_fract_z
_atom_site_U_iso_or_equiv
_atom_site_adp_type
_atom_site_occupancy
C1     C     0.70046   0.27230   0.42571   0.00000  Uiso   1.00
C2     C     0.85529   0.21576   0.43309   0.00000  Uiso   1.00
C3     C     0.81258   0.14638   0.42757   0.00000  Uiso   1.00
C4     C     0.97536   0.10287   0.43599   0.00000  Uiso   1.00
C5     C     0.18565   0.01126   0.44543   0.00000  Uiso   1.00
C6     C     0.80999   0.31376   0.49516   0.00000  Uiso   1.00
C7     C     0.72917   0.32679   0.54182   0.00000  Uiso   1.00
C8     C     0.85380   0.36578   0.60248   0.00000  Uiso   1.00
C9     C     0.99368   0.42636   0.70826   0.00000  Uiso   1.00
C10    C     0.68626   0.31898   0.36588   0.00000  Uiso   1.00
C11    C     0.50139   0.33642   0.30384   0.00000  Uiso   1.00
C12    C     0.52185   0.37982   0.25567   0.00000  Uiso   1.00
C13    C     0.46962   0.44851   0.16072   0.00000  Uiso   1.00
C14    C     0.06549   0.31840   0.45049   0.00000  Uiso   1.00
C15    C     0.05357   0.24080   0.44655   0.00000  Uiso   1.00
C16    C     0.21645   0.19738   0.45498   0.00000  Uiso   1.00
C17    C     0.17399   0.12795   0.44947   0.00000  Uiso   1.00
C18    C     0.00826   0.33880   0.50862   0.00000  Uiso   1.00
C19    C     0.13303   0.37778   0.56923   0.00000  Uiso   1.00
C20    C     0.05243   0.39086   0.61597   0.00000  Uiso   1.00
C21    C     0.88453   0.34402   0.37933   0.00000  Uiso   1.00
C22    C     0.90527   0.38741   0.33125   0.00000  Uiso   1.00
C23    C     0.72047   0.40491   0.26915   0.00000  Uiso   1.00
H24    H     0.54610   0.25282   0.41524   0.00000  Uiso   1.00
H25    H     0.65913   0.12703   0.41716   0.00000  Uiso   1.00
H26    H     0.57572   0.30741   0.53138   0.00000  Uiso   1.00
H27    H     0.34799   0.31704   0.29345   0.00000  Uiso   1.00
H28    H     0.87191   0.99861   0.42525   0.00000  Uiso   1.00
H29    H     0.69600   0.37898   0.66608   0.00000  Uiso   1.00
H30    H     0.21578   0.39927   0.16435   0.00000  Uiso   1.00
H31    H     0.21986   0.33789   0.46097   0.00000  Uiso   1.00
H32    H     0.36987   0.21677   0.46539   0.00000  Uiso   1.00
H33    H     0.28645   0.39715   0.57962   0.00000  Uiso   1.00
H34    H     0.05872   0.40677   0.34168   0.00000  Uiso   1.00
H35    H     0.44877   0.07144   0.46440   0.00000  Uiso   1.00
H36    H     0.27285   0.45182   0.70524   0.00000  Uiso   1.00
H37    H     0.79264   0.47211   0.20350   0.00000  Uiso   1.00
O38    O     0.24688   0.95381   0.44693   0.00000  Uiso   1.00
O39    O     0.01607   0.45285   0.76289   0.00000  Uiso   1.00
O40    O     0.38604   0.47947   0.10463   0.00000  Uiso   1.00
N41    N     0.98707   0.03237   0.43384   0.00000  Uiso   1.00
N42    N     0.82262   0.38799   0.65902   0.00000  Uiso   1.00
N43    N     0.37365   0.40698   0.18994   0.00000  Uiso   1.00
N44    N     0.29748   0.07156   0.45490   0.00000  Uiso   1.00
N45    N     0.13303   0.42718   0.68008   0.00000  Uiso   1.00
N46    N     0.68405   0.44617   0.21101   0.00000  Uiso   1.00
C47    C     0.29954   0.77230   0.07429   0.00000  Uiso   1.00
C48    C     0.14471   0.71576   0.06691   0.00000  Uiso   1.00
C49    C     0.18742   0.64638   0.07243   0.00000  Uiso   1.00
C50    C     0.02464   0.60287   0.06401   0.00000  Uiso   1.00
C51    C     0.81435   0.51126   0.05457   0.00000  Uiso   1.00
C52    C     0.19001   0.81376   0.00484   0.00000  Uiso   1.00
C53    C     0.27083   0.82679   0.95818   0.00000  Uiso   1.00
C54    C     0.14620   0.86578   0.89752   0.00000  Uiso   1.00
C55    C     0.00632   0.92636   0.79174   0.00000  Uiso   1.00
C56    C     0.31374   0.81898   0.13412   0.00000  Uiso   1.00
C57    C     0.49861   0.83642   0.19616   0.00000  Uiso   1.00
C58    C     0.47815   0.87982   0.24433   0.00000  Uiso   1.00
C59    C     0.53038   0.94851   0.33928   0.00000  Uiso   1.00
C60    C     0.93451   0.81840   0.04951   0.00000  Uiso   1.00
C61    C     0.94643   0.74080   0.05345   0.00000  Uiso   1.00
C62    C     0.78355   0.69738   0.04502   0.00000  Uiso   1.00
C63    C     0.82601   0.62795   0.05053   0.00000  Uiso   1.00
C64    C     0.99174   0.83880   0.99138   0.00000  Uiso   1.00
C65    C     0.86697   0.87778   0.93077   0.00000  Uiso   1.00
C66    C     0.94757   0.89086   0.88403   0.00000  Uiso   1.00
C67    C     0.11547   0.84402   0.12067   0.00000  Uiso   1.00
C68    C     0.09473   0.88741   0.16875   0.00000  Uiso   1.00
C69    C     0.27953   0.90491   0.23085   0.00000  Uiso   1.00
H70    H     0.45390   0.75282   0.08476   0.00000  Uiso   1.00
H71    H     0.34087   0.62703   0.08284   0.00000  Uiso   1.00
H72    H     0.42428   0.80741   0.96862   0.00000  Uiso   1.00
H73    H     0.65201   0.81704   0.20655   0.00000  Uiso   1.00
H74    H     0.12809   0.49861   0.07475   0.00000  Uiso   1.00
H75    H     0.30400   0.87898   0.83392   0.00000  Uiso   1.00
H76    H     0.78422   0.89927   0.33565   0.00000  Uiso   1.00
H77    H     0.78014   0.83789   0.03903   0.00000  Uiso   1.00
H78    H     0.63013   0.71677   0.03461   0.00000  Uiso   1.00
H79    H     0.71355   0.89715   0.92038   0.00000  Uiso   1.00
H80    H     0.94128   0.90677   0.15832   0.00000  Uiso   1.00
H81    H     0.55123   0.57144   0.03560   0.00000  Uiso   1.00
H82    H     0.72715   0.95182   0.79476   0.00000  Uiso   1.00
H83    H     0.20736   0.97211   0.29650   0.00000  Uiso   1.00
O84    O     0.75312   0.45381   0.05307   0.00000  Uiso   1.00
O85    O     0.98393   0.95285   0.73711   0.00000  Uiso   1.00
O86    O     0.61396   0.97947   0.39537   0.00000  Uiso   1.00
N87    N     0.01293   0.53237   0.06616   0.00000  Uiso   1.00
N88    N     0.17738   0.88799   0.84098   0.00000  Uiso   1.00
N89    N     0.62635   0.90698   0.31006   0.00000  Uiso   1.00
N90    N     0.70252   0.57156   0.04510   0.00000  Uiso   1.00
N91    N     0.86697   0.92718   0.81992   0.00000  Uiso   1.00
N92    N     0.31595   0.94617   0.28899   0.00000  Uiso   1.00
C93    C     0.29954   0.72770   0.57429   0.00000  Uiso   1.00
C94    C     0.14471   0.78424   0.56691   0.00000  Uiso   1.00
C95    C     0.18742   0.85362   0.57243   0.00000  Uiso   1.00
C96    C     0.02464   0.89713   0.56401   0.00000  Uiso   1.00
C97    C     0.81435   0.98874   0.55457   0.00000  Uiso   1.00
C98    C     0.19001   0.68624   0.50484   0.00000  Uiso   1.00
C99    C     0.27083   0.67321   0.45818   0.00000  Uiso   1.00
C100   C     0.14620   0.63422   0.39752   0.00000  Uiso   1.00
C101   C     0.00632   0.57364   0.29174   0.00000  Uiso   1.00
C102   C     0.31374   0.68102   0.63412   0.00000  Uiso   1.00
C103   C     0.49861   0.66358   0.69616   0.00000  Uiso   1.00
C104   C     0.47815   0.62018   0.74433   0.00000  Uiso   1.00
C105   C     0.53038   0.55149   0.83928   0.00000  Uiso   1.00
C106   C     0.93451   0.68160   0.54951   0.00000  Uiso   1.00
C107   C     0.94643   0.75920   0.55345   0.00000  Uiso   1.00
C108   C     0.78355   0.80262   0.54502   0.00000  Uiso   1.00
C109   C     0.82601   0.87205   0.55053   0.00000  Uiso   1.00
C110   C     0.99174   0.66120   0.49138   0.00000  Uiso   1.00
C111   C     0.86697   0.62222   0.43077   0.00000  Uiso   1.00
C112   C     0.94757   0.60914   0.38403   0.00000  Uiso   1.00
C113   C     0.11547   0.65598   0.62067   0.00000  Uiso   1.00
C114   C     0.09473   0.61259   0.66875   0.00000  Uiso   1.00
C115   C     0.27953   0.59509   0.73085   0.00000  Uiso   1.00
H116   H     0.45390   0.74718   0.58476   0.00000  Uiso   1.00
H117   H     0.34087   0.87297   0.58284   0.00000  Uiso   1.00
H118   H     0.42428   0.69259   0.46862   0.00000  Uiso   1.00
H119   H     0.65201   0.68296   0.70655   0.00000  Uiso   1.00
H120   H     0.12809   0.00139   0.57475   0.00000  Uiso   1.00
H121   H     0.30400   0.62102   0.33392   0.00000  Uiso   1.00
H122   H     0.78422   0.60073   0.83565   0.00000  Uiso   1.00
H123   H     0.78014   0.66211   0.53903   0.00000  Uiso   1.00
H124   H     0.63013   0.78323   0.53461   0.00000  Uiso   1.00
H125   H     0.71355   0.60285   0.42038   0.00000  Uiso   1.00
H126   H     0.94128   0.59323   0.65832   0.00000  Uiso   1.00
H127   H     0.55123   0.92856   0.53560   0.00000  Uiso   1.00
H128   H     0.72715   0.54818   0.29476   0.00000  Uiso   1.00
H129   H     0.20736   0.52789   0.79650   0.00000  Uiso   1.00
O130   O     0.75312   0.04619   0.55307   0.00000  Uiso   1.00
O131   O     0.98393   0.54715   0.23711   0.00000  Uiso   1.00
O132   O     0.61396   0.52053   0.89537   0.00000  Uiso   1.00
N133   N     0.01293   0.96763   0.56616   0.00000  Uiso   1.00
N134   N     0.17738   0.61201   0.34098   0.00000  Uiso   1.00
N135   N     0.62635   0.59302   0.81006   0.00000  Uiso   1.00
N136   N     0.70252   0.92844   0.54510   0.00000  Uiso   1.00
N137   N     0.86697   0.57282   0.31992   0.00000  Uiso   1.00
N138   N     0.31595   0.55383   0.78899   0.00000  Uiso   1.00
C139   C     0.70046   0.22770   0.92571   0.00000  Uiso   1.00
C140   C     0.85529   0.28424   0.93309   0.00000  Uiso   1.00
C141   C     0.81258   0.35362   0.92757   0.00000  Uiso   1.00
C142   C     0.97536   0.39713   0.93599   0.00000  Uiso   1.00
C143   C     0.18565   0.48874   0.94543   0.00000  Uiso   1.00
C144   C     0.80999   0.18624   0.99516   0.00000  Uiso   1.00
C145   C     0.72917   0.17321   0.04182   0.00000  Uiso   1.00
C146   C     0.85380   0.13422   0.10248   0.00000  Uiso   1.00
C147   C     0.99368   0.07364   0.20826   0.00000  Uiso   1.00
C148   C     0.68626   0.18102   0.86588   0.00000  Uiso   1.00
C149   C     0.50139   0.16358   0.80384   0.00000  Uiso   1.00
C150   C     0.52185   0.12018   0.75567   0.00000  Uiso   1.00
C151   C     0.46962   0.05149   0.66072   0.00000  Uiso   1.00
C152   C     0.06549   0.18160   0.95049   0.00000  Uiso   1.00
C153   C     0.05357   0.25920   0.94655   0.00000  Uiso   1.00
C154   C     0.21645   0.30262   0.95498   0.00000  Uiso   1.00
C155   C     0.17399   0.37205   0.94947   0.00000  Uiso   1.00
C156   C     0.00826   0.16120   0.00862   0.00000  Uiso   1.00
C157   C     0.13303   0.12222   0.06923   0.00000  Uiso   1.00
C158   C     0.05243   0.10914   0.11597   0.00000  Uiso   1.00
C159   C     0.88453   0.15598   0.87933   0.00000  Uiso   1.00
C160   C     0.90527   0.11259   0.83125   0.00000  Uiso   1.00
C161   C     0.72047   0.09509   0.76915   0.00000  Uiso   1.00
H162   H     0.54610   0.24718   0.91524   0.00000  Uiso   1.00
H163   H     0.65913   0.37297   0.91716   0.00000  Uiso   1.00
H164   H     0.57572   0.19259   0.03138   0.00000  Uiso   1.00
H165   H     0.34799   0.18296   0.79345   0.00000  Uiso   1.00
H166   H     0.87191   0.50139   0.92525   0.00000  Uiso   1.00
H167   H     0.69600   0.12102   0.16608   0.00000  Uiso   1.00
H168   H     0.21578   0.10073   0.66435   0.00000  Uiso   1.00
H169   H     0.21986   0.16211   0.96097   0.00000  Uiso   1.00
H170   H     0.36987   0.28323   0.96539   0.00000  Uiso   1.00
H171   H     0.28645   0.10285   0.07962   0.00000  Uiso   1.00
H172   H     0.05872   0.09323   0.84168   0.00000  Uiso   1.00
H173   H     0.44877   0.42856   0.96440   0.00000  Uiso   1.00
H174   H     0.27285   0.04818   0.20524   0.00000  Uiso   1.00
H175   H     0.79264   0.02789   0.70350   0.00000  Uiso   1.00
O176   O     0.24688   0.54619   0.94693   0.00000  Uiso   1.00
O177   O     0.01607   0.04715   0.26289   0.00000  Uiso   1.00
O178   O     0.38604   0.02053   0.60463   0.00000  Uiso   1.00
N179   N     0.98707   0.46763   0.93384   0.00000  Uiso   1.00
N180   N     0.82262   0.11201   0.15902   0.00000  Uiso   1.00
N181   N     0.37365   0.09302   0.68994   0.00000  Uiso   1.00
N182   N     0.29748   0.42844   0.95490   0.00000  Uiso   1.00
N183   N     0.13303   0.07282   0.18008   0.00000  Uiso   1.00
N184   N     0.68405   0.05383   0.71101   0.00000  Uiso   1.00
