data_job_01332
_audit_creation_date              2018-12-19
_audit_creation_method            'Materials Studio'
_symmetry_space_group_name_H-M    'P1'
_symmetry_Int_Tables_number       1
_symmetry_cell_setting            triclinic
loop_
_symmetry_equiv_pos_as_xyz
  x,y,z
_cell_length_a                    19.3197
_cell_length_b                    19.3197
_cell_length_c                    12.5886
_cell_angle_alpha                 90.0000
_cell_angle_beta                  90.0000
_cell_angle_gamma                 90.0000
loop_
_atom_site_label
_atom_site_type_symbol
_atom_site_fract_x
_atom_site_fract_y
_atom_site_fract_z
_atom_site_U_iso_or_equiv
_atom_site_adp_type
_atom_site_occupancy
C1     C     0.74523   0.04577   0.04608   0.00000  Uiso   1.00
C2     C     0.67719   0.07542   0.08732   0.00000  Uiso   1.00
C3     C     0.64070   0.12991   0.04236   0.00000  Uiso   1.00
C4     C     0.57955   0.14934   0.09202   0.00000  Uiso   1.00
C5     C     0.47753   0.20056   0.14220   0.00000  Uiso   1.00
C6     C     0.79623   0.05033   0.13827   0.00000  Uiso   1.00
C7     C     0.85983   0.08371   0.13612   0.00000  Uiso   1.00
C8     C     0.89888   0.08200   0.22867   0.00000  Uiso   1.00
C9     C     0.98170   0.09421   0.35791   0.00000  Uiso   1.00
C10    C     0.73232   0.96882   0.02790   0.00000  Uiso   1.00
C11    C     0.74219   0.93365   0.93297   0.00000  Uiso   1.00
C12    C     0.72744   0.86331   0.93260   0.00000  Uiso   1.00
C13    C     0.71102   0.74897   0.89048   0.00000  Uiso   1.00
C14    C     0.70152   0.98338   0.21424   0.00000  Uiso   1.00
C15    C     0.65346   0.04153   0.17867   0.00000  Uiso   1.00
C16    C     0.59234   0.06088   0.22841   0.00000  Uiso   1.00
C17    C     0.55576   0.11539   0.18352   0.00000  Uiso   1.00
C18    C     0.77250   0.01644   0.22961   0.00000  Uiso   1.00
C19    C     0.81147   0.01467   0.32217   0.00000  Uiso   1.00
C20    C     0.87510   0.04805   0.32018   0.00000  Uiso   1.00
C21    C     0.70858   0.93492   0.11924   0.00000  Uiso   1.00
C22    C     0.69382   0.86462   0.11902   0.00000  Uiso   1.00
C23    C     0.70366   0.82936   0.02410   0.00000  Uiso   1.00
H24    H     0.76372   0.07216   0.97498   0.00000  Uiso   1.00
H25    H     0.65909   0.15613   0.97168   0.00000  Uiso   1.00
H26    H     0.87819   0.10993   0.06543   0.00000  Uiso   1.00
H27    H     0.76056   0.95990   0.86230   0.00000  Uiso   1.00
H28    H     0.53264   0.23431   0.00832   0.00000  Uiso   1.00
H29    H     0.99462   0.13685   0.20599   0.00000  Uiso   1.00
H30    H     0.74658   0.82049   0.77766   0.00000  Uiso   1.00
H31    H     0.68304   0.95699   0.28536   0.00000  Uiso   1.00
H32    H     0.57398   0.03464   0.29909   0.00000  Uiso   1.00
H33    H     0.79308   0.98844   0.39284   0.00000  Uiso   1.00
H34    H     0.67545   0.83841   0.18972   0.00000  Uiso   1.00
H35    H     0.46356   0.13570   0.27407   0.00000  Uiso   1.00
H36    H     0.92555   0.03825   0.47173   0.00000  Uiso   1.00
H37    H     0.67751   0.72189   0.04340   0.00000  Uiso   1.00
O38    O     0.42783   0.23818   0.14465   0.00000  Uiso   1.00
O39    O     0.03394   0.11032   0.40396   0.00000  Uiso   1.00
O40    O     0.70851   0.69526   0.84201   0.00000  Uiso   1.00
N41    N     0.53134   0.20043   0.06897   0.00000  Uiso   1.00
N42    N     0.96327   0.10933   0.25378   0.00000  Uiso   1.00
N43    N     0.73139   0.81355   0.85333   0.00000  Uiso   1.00
N44    N     0.49417   0.14737   0.21196   0.00000  Uiso   1.00
N45    N     0.92610   0.05627   0.39677   0.00000  Uiso   1.00
N46    N     0.69422   0.76050   0.99633   0.00000  Uiso   1.00
C47    C     0.25477   0.95423   0.04608   0.00000  Uiso   1.00
C48    C     0.32281   0.92458   0.08732   0.00000  Uiso   1.00
C49    C     0.35930   0.87009   0.04236   0.00000  Uiso   1.00
C50    C     0.42045   0.85066   0.09202   0.00000  Uiso   1.00
C51    C     0.52247   0.79944   0.14220   0.00000  Uiso   1.00
C52    C     0.20377   0.94967   0.13827   0.00000  Uiso   1.00
C53    C     0.14017   0.91629   0.13612   0.00000  Uiso   1.00
C54    C     0.10112   0.91800   0.22867   0.00000  Uiso   1.00
C55    C     0.01830   0.90579   0.35791   0.00000  Uiso   1.00
C56    C     0.26768   0.03118   0.02790   0.00000  Uiso   1.00
C57    C     0.25781   0.06635   0.93297   0.00000  Uiso   1.00
C58    C     0.27256   0.13669   0.93260   0.00000  Uiso   1.00
C59    C     0.28898   0.25103   0.89048   0.00000  Uiso   1.00
C60    C     0.29848   0.01662   0.21424   0.00000  Uiso   1.00
C61    C     0.34654   0.95847   0.17867   0.00000  Uiso   1.00
C62    C     0.40766   0.93912   0.22841   0.00000  Uiso   1.00
C63    C     0.44424   0.88461   0.18352   0.00000  Uiso   1.00
C64    C     0.22750   0.98356   0.22961   0.00000  Uiso   1.00
C65    C     0.18853   0.98533   0.32217   0.00000  Uiso   1.00
C66    C     0.12490   0.95195   0.32018   0.00000  Uiso   1.00
C67    C     0.29142   0.06508   0.11924   0.00000  Uiso   1.00
C68    C     0.30618   0.13538   0.11902   0.00000  Uiso   1.00
C69    C     0.29634   0.17064   0.02410   0.00000  Uiso   1.00
H70    H     0.23628   0.92784   0.97498   0.00000  Uiso   1.00
H71    H     0.34091   0.84387   0.97168   0.00000  Uiso   1.00
H72    H     0.12181   0.89007   0.06543   0.00000  Uiso   1.00
H73    H     0.23944   0.04010   0.86230   0.00000  Uiso   1.00
H74    H     0.46736   0.76569   0.00832   0.00000  Uiso   1.00
H75    H     0.00538   0.86315   0.20599   0.00000  Uiso   1.00
H76    H     0.25342   0.17951   0.77766   0.00000  Uiso   1.00
H77    H     0.31696   0.04301   0.28536   0.00000  Uiso   1.00
H78    H     0.42602   0.96536   0.29909   0.00000  Uiso   1.00
H79    H     0.20692   0.01156   0.39284   0.00000  Uiso   1.00
H80    H     0.32455   0.16159   0.18972   0.00000  Uiso   1.00
H81    H     0.53644   0.86430   0.27407   0.00000  Uiso   1.00
H82    H     0.07445   0.96175   0.47173   0.00000  Uiso   1.00
H83    H     0.32249   0.27811   0.04340   0.00000  Uiso   1.00
O84    O     0.57217   0.76182   0.14465   0.00000  Uiso   1.00
O85    O     0.96606   0.88968   0.40396   0.00000  Uiso   1.00
O86    O     0.29149   0.30474   0.84201   0.00000  Uiso   1.00
N87    N     0.46866   0.79957   0.06897   0.00000  Uiso   1.00
N88    N     0.03673   0.89067   0.25378   0.00000  Uiso   1.00
N89    N     0.26861   0.18645   0.85333   0.00000  Uiso   1.00
N90    N     0.50583   0.85263   0.21196   0.00000  Uiso   1.00
N91    N     0.07390   0.94373   0.39677   0.00000  Uiso   1.00
N92    N     0.30578   0.23950   0.99633   0.00000  Uiso   1.00
C93    C     0.45423   0.24523   0.54608   0.00000  Uiso   1.00
C94    C     0.42458   0.17719   0.58732   0.00000  Uiso   1.00
C95    C     0.37009   0.14070   0.54236   0.00000  Uiso   1.00
C96    C     0.35066   0.07955   0.59202   0.00000  Uiso   1.00
C97    C     0.29944   0.97753   0.64220   0.00000  Uiso   1.00
C98    C     0.44967   0.29623   0.63827   0.00000  Uiso   1.00
C99    C     0.41629   0.35983   0.63612   0.00000  Uiso   1.00
C100   C     0.41800   0.39888   0.72867   0.00000  Uiso   1.00
C101   C     0.40579   0.48170   0.85791   0.00000  Uiso   1.00
C102   C     0.53118   0.23232   0.52790   0.00000  Uiso   1.00
C103   C     0.56635   0.24219   0.43297   0.00000  Uiso   1.00
C104   C     0.63669   0.22744   0.43260   0.00000  Uiso   1.00
C105   C     0.75103   0.21102   0.39048   0.00000  Uiso   1.00
C106   C     0.51662   0.20152   0.71424   0.00000  Uiso   1.00
C107   C     0.45847   0.15346   0.67867   0.00000  Uiso   1.00
C108   C     0.43912   0.09234   0.72841   0.00000  Uiso   1.00
C109   C     0.38461   0.05576   0.68352   0.00000  Uiso   1.00
C110   C     0.48356   0.27250   0.72961   0.00000  Uiso   1.00
C111   C     0.48533   0.31147   0.82217   0.00000  Uiso   1.00
C112   C     0.45195   0.37510   0.82018   0.00000  Uiso   1.00
C113   C     0.56508   0.20858   0.61924   0.00000  Uiso   1.00
C114   C     0.63538   0.19382   0.61902   0.00000  Uiso   1.00
C115   C     0.67064   0.20366   0.52410   0.00000  Uiso   1.00
H116   H     0.42784   0.26372   0.47498   0.00000  Uiso   1.00
H117   H     0.34387   0.15909   0.47168   0.00000  Uiso   1.00
H118   H     0.39007   0.37819   0.56543   0.00000  Uiso   1.00
H119   H     0.54010   0.26056   0.36230   0.00000  Uiso   1.00
H120   H     0.26569   0.03264   0.50832   0.00000  Uiso   1.00
H121   H     0.36315   0.49462   0.70599   0.00000  Uiso   1.00
H122   H     0.67951   0.24658   0.27766   0.00000  Uiso   1.00
H123   H     0.54301   0.18304   0.78536   0.00000  Uiso   1.00
H124   H     0.46536   0.07398   0.79909   0.00000  Uiso   1.00
H125   H     0.51156   0.29308   0.89284   0.00000  Uiso   1.00
H126   H     0.66159   0.17545   0.68972   0.00000  Uiso   1.00
H127   H     0.36430   0.96356   0.77407   0.00000  Uiso   1.00
H128   H     0.46175   0.42555   0.97173   0.00000  Uiso   1.00
H129   H     0.77811   0.17751   0.54340   0.00000  Uiso   1.00
O130   O     0.26182   0.92783   0.64465   0.00000  Uiso   1.00
O131   O     0.38968   0.53394   0.90396   0.00000  Uiso   1.00
O132   O     0.80474   0.20851   0.34201   0.00000  Uiso   1.00
N133   N     0.29957   0.03134   0.56897   0.00000  Uiso   1.00
N134   N     0.39067   0.46327   0.75378   0.00000  Uiso   1.00
N135   N     0.68645   0.23139   0.35333   0.00000  Uiso   1.00
N136   N     0.35263   0.99417   0.71196   0.00000  Uiso   1.00
N137   N     0.44373   0.42610   0.89677   0.00000  Uiso   1.00
N138   N     0.73950   0.19422   0.49633   0.00000  Uiso   1.00
C139   C     0.54577   0.75477   0.54608   0.00000  Uiso   1.00
C140   C     0.57542   0.82281   0.58732   0.00000  Uiso   1.00
C141   C     0.62991   0.85930   0.54236   0.00000  Uiso   1.00
C142   C     0.64934   0.92045   0.59202   0.00000  Uiso   1.00
C143   C     0.70056   0.02247   0.64220   0.00000  Uiso   1.00
C144   C     0.55033   0.70377   0.63827   0.00000  Uiso   1.00
C145   C     0.58371   0.64017   0.63612   0.00000  Uiso   1.00
C146   C     0.58200   0.60112   0.72867   0.00000  Uiso   1.00
C147   C     0.59421   0.51830   0.85791   0.00000  Uiso   1.00
C148   C     0.46882   0.76768   0.52790   0.00000  Uiso   1.00
C149   C     0.43365   0.75781   0.43297   0.00000  Uiso   1.00
C150   C     0.36331   0.77256   0.43260   0.00000  Uiso   1.00
C151   C     0.24897   0.78898   0.39048   0.00000  Uiso   1.00
C152   C     0.48338   0.79848   0.71424   0.00000  Uiso   1.00
C153   C     0.54153   0.84654   0.67867   0.00000  Uiso   1.00
C154   C     0.56088   0.90766   0.72841   0.00000  Uiso   1.00
C155   C     0.61539   0.94424   0.68352   0.00000  Uiso   1.00
C156   C     0.51644   0.72750   0.72961   0.00000  Uiso   1.00
C157   C     0.51467   0.68853   0.82217   0.00000  Uiso   1.00
C158   C     0.54805   0.62490   0.82018   0.00000  Uiso   1.00
C159   C     0.43492   0.79142   0.61924   0.00000  Uiso   1.00
C160   C     0.36462   0.80618   0.61902   0.00000  Uiso   1.00
C161   C     0.32936   0.79634   0.52410   0.00000  Uiso   1.00
H162   H     0.57216   0.73628   0.47498   0.00000  Uiso   1.00
H163   H     0.65613   0.84091   0.47168   0.00000  Uiso   1.00
H164   H     0.60993   0.62181   0.56543   0.00000  Uiso   1.00
H165   H     0.45990   0.73944   0.36230   0.00000  Uiso   1.00
H166   H     0.73431   0.96736   0.50832   0.00000  Uiso   1.00
H167   H     0.63685   0.50538   0.70599   0.00000  Uiso   1.00
H168   H     0.32049   0.75342   0.27766   0.00000  Uiso   1.00
H169   H     0.45699   0.81696   0.78536   0.00000  Uiso   1.00
H170   H     0.53464   0.92602   0.79909   0.00000  Uiso   1.00
H171   H     0.48844   0.70692   0.89284   0.00000  Uiso   1.00
H172   H     0.33841   0.82455   0.68972   0.00000  Uiso   1.00
H173   H     0.63570   0.03644   0.77407   0.00000  Uiso   1.00
H174   H     0.53825   0.57445   0.97173   0.00000  Uiso   1.00
H175   H     0.22189   0.82249   0.54340   0.00000  Uiso   1.00
O176   O     0.73818   0.07217   0.64465   0.00000  Uiso   1.00
O177   O     0.61032   0.46606   0.90396   0.00000  Uiso   1.00
O178   O     0.19526   0.79149   0.34201   0.00000  Uiso   1.00
N179   N     0.70043   0.96866   0.56897   0.00000  Uiso   1.00
N180   N     0.60933   0.53673   0.75378   0.00000  Uiso   1.00
N181   N     0.31355   0.76861   0.35333   0.00000  Uiso   1.00
N182   N     0.64737   0.00583   0.71196   0.00000  Uiso   1.00
N183   N     0.55627   0.57390   0.89677   0.00000  Uiso   1.00
N184   N     0.26050   0.80578   0.49633   0.00000  Uiso   1.00
C185   C     0.75477   0.45423   0.45392   0.00000  Uiso   1.00
C186   C     0.82281   0.42458   0.41268   0.00000  Uiso   1.00
C187   C     0.85930   0.37009   0.45764   0.00000  Uiso   1.00
C188   C     0.92045   0.35066   0.40798   0.00000  Uiso   1.00
C189   C     0.02247   0.29944   0.35780   0.00000  Uiso   1.00
C190   C     0.70377   0.44967   0.36173   0.00000  Uiso   1.00
C191   C     0.64017   0.41629   0.36388   0.00000  Uiso   1.00
C192   C     0.60112   0.41800   0.27133   0.00000  Uiso   1.00
C193   C     0.51830   0.40579   0.14209   0.00000  Uiso   1.00
C194   C     0.76768   0.53118   0.47210   0.00000  Uiso   1.00
C195   C     0.75781   0.56635   0.56703   0.00000  Uiso   1.00
C196   C     0.77256   0.63669   0.56740   0.00000  Uiso   1.00
C197   C     0.78898   0.75103   0.60952   0.00000  Uiso   1.00
C198   C     0.79848   0.51662   0.28576   0.00000  Uiso   1.00
C199   C     0.84654   0.45847   0.32133   0.00000  Uiso   1.00
C200   C     0.90766   0.43912   0.27159   0.00000  Uiso   1.00
C201   C     0.94424   0.38461   0.31648   0.00000  Uiso   1.00
C202   C     0.72750   0.48356   0.27039   0.00000  Uiso   1.00
C203   C     0.68853   0.48533   0.17783   0.00000  Uiso   1.00
C204   C     0.62490   0.45195   0.17982   0.00000  Uiso   1.00
C205   C     0.79142   0.56508   0.38076   0.00000  Uiso   1.00
C206   C     0.80618   0.63538   0.38098   0.00000  Uiso   1.00
C207   C     0.79634   0.67064   0.47590   0.00000  Uiso   1.00
H208   H     0.73628   0.42784   0.52502   0.00000  Uiso   1.00
H209   H     0.84091   0.34387   0.52832   0.00000  Uiso   1.00
H210   H     0.62181   0.39007   0.43457   0.00000  Uiso   1.00
H211   H     0.73944   0.54010   0.63770   0.00000  Uiso   1.00
H212   H     0.96736   0.26569   0.49168   0.00000  Uiso   1.00
H213   H     0.50538   0.36315   0.29401   0.00000  Uiso   1.00
H214   H     0.75342   0.67951   0.72234   0.00000  Uiso   1.00
H215   H     0.81696   0.54301   0.21464   0.00000  Uiso   1.00
H216   H     0.92602   0.46536   0.20091   0.00000  Uiso   1.00
H217   H     0.70692   0.51156   0.10716   0.00000  Uiso   1.00
H218   H     0.82455   0.66159   0.31028   0.00000  Uiso   1.00
H219   H     0.03644   0.36430   0.22593   0.00000  Uiso   1.00
H220   H     0.57445   0.46175   0.02827   0.00000  Uiso   1.00
H221   H     0.82249   0.77811   0.45660   0.00000  Uiso   1.00
O222   O     0.07217   0.26182   0.35535   0.00000  Uiso   1.00
O223   O     0.46606   0.38968   0.09604   0.00000  Uiso   1.00
O224   O     0.79149   0.80474   0.65799   0.00000  Uiso   1.00
N225   N     0.96866   0.29957   0.43103   0.00000  Uiso   1.00
N226   N     0.53673   0.39067   0.24622   0.00000  Uiso   1.00
N227   N     0.76861   0.68645   0.64667   0.00000  Uiso   1.00
N228   N     0.00583   0.35263   0.28804   0.00000  Uiso   1.00
N229   N     0.57390   0.44373   0.10323   0.00000  Uiso   1.00
N230   N     0.80578   0.73950   0.50367   0.00000  Uiso   1.00
C231   C     0.24523   0.54577   0.45392   0.00000  Uiso   1.00
C232   C     0.17719   0.57542   0.41268   0.00000  Uiso   1.00
C233   C     0.14070   0.62991   0.45764   0.00000  Uiso   1.00
C234   C     0.07955   0.64934   0.40798   0.00000  Uiso   1.00
C235   C     0.97753   0.70056   0.35780   0.00000  Uiso   1.00
C236   C     0.29623   0.55033   0.36173   0.00000  Uiso   1.00
C237   C     0.35983   0.58371   0.36388   0.00000  Uiso   1.00
C238   C     0.39888   0.58200   0.27133   0.00000  Uiso   1.00
C239   C     0.48170   0.59421   0.14209   0.00000  Uiso   1.00
C240   C     0.23232   0.46882   0.47210   0.00000  Uiso   1.00
C241   C     0.24219   0.43365   0.56703   0.00000  Uiso   1.00
C242   C     0.22744   0.36331   0.56740   0.00000  Uiso   1.00
C243   C     0.21102   0.24897   0.60952   0.00000  Uiso   1.00
C244   C     0.20152   0.48338   0.28576   0.00000  Uiso   1.00
C245   C     0.15346   0.54153   0.32133   0.00000  Uiso   1.00
C246   C     0.09234   0.56088   0.27159   0.00000  Uiso   1.00
C247   C     0.05576   0.61539   0.31648   0.00000  Uiso   1.00
C248   C     0.27250   0.51644   0.27039   0.00000  Uiso   1.00
C249   C     0.31147   0.51467   0.17783   0.00000  Uiso   1.00
C250   C     0.37510   0.54805   0.17982   0.00000  Uiso   1.00
C251   C     0.20858   0.43492   0.38076   0.00000  Uiso   1.00
C252   C     0.19382   0.36462   0.38098   0.00000  Uiso   1.00
C253   C     0.20366   0.32936   0.47590   0.00000  Uiso   1.00
H254   H     0.26372   0.57216   0.52502   0.00000  Uiso   1.00
H255   H     0.15909   0.65613   0.52832   0.00000  Uiso   1.00
H256   H     0.37819   0.60993   0.43457   0.00000  Uiso   1.00
H257   H     0.26056   0.45990   0.63770   0.00000  Uiso   1.00
H258   H     0.03264   0.73431   0.49168   0.00000  Uiso   1.00
H259   H     0.49462   0.63685   0.29401   0.00000  Uiso   1.00
H260   H     0.24658   0.32049   0.72234   0.00000  Uiso   1.00
H261   H     0.18304   0.45699   0.21464   0.00000  Uiso   1.00
H262   H     0.07398   0.53464   0.20091   0.00000  Uiso   1.00
H263   H     0.29308   0.48844   0.10716   0.00000  Uiso   1.00
H264   H     0.17545   0.33841   0.31028   0.00000  Uiso   1.00
H265   H     0.96356   0.63570   0.22593   0.00000  Uiso   1.00
H266   H     0.42555   0.53825   0.02827   0.00000  Uiso   1.00
H267   H     0.17751   0.22189   0.45660   0.00000  Uiso   1.00
O268   O     0.92783   0.73818   0.35535   0.00000  Uiso   1.00
O269   O     0.53394   0.61032   0.09604   0.00000  Uiso   1.00
O270   O     0.20851   0.19526   0.65799   0.00000  Uiso   1.00
N271   N     0.03134   0.70043   0.43103   0.00000  Uiso   1.00
N272   N     0.46327   0.60933   0.24622   0.00000  Uiso   1.00
N273   N     0.23139   0.31355   0.64667   0.00000  Uiso   1.00
N274   N     0.99417   0.64737   0.28804   0.00000  Uiso   1.00
N275   N     0.42610   0.55627   0.10323   0.00000  Uiso   1.00
N276   N     0.19422   0.26050   0.50367   0.00000  Uiso   1.00
C277   C     0.04577   0.25477   0.95392   0.00000  Uiso   1.00
C278   C     0.07542   0.32281   0.91268   0.00000  Uiso   1.00
C279   C     0.12991   0.35930   0.95764   0.00000  Uiso   1.00
C280   C     0.14934   0.42045   0.90798   0.00000  Uiso   1.00
C281   C     0.20056   0.52247   0.85780   0.00000  Uiso   1.00
C282   C     0.05033   0.20377   0.86173   0.00000  Uiso   1.00
C283   C     0.08371   0.14017   0.86388   0.00000  Uiso   1.00
C284   C     0.08200   0.10112   0.77133   0.00000  Uiso   1.00
C285   C     0.09421   0.01830   0.64209   0.00000  Uiso   1.00
C286   C     0.96882   0.26768   0.97210   0.00000  Uiso   1.00
C287   C     0.93365   0.25781   0.06703   0.00000  Uiso   1.00
C288   C     0.86331   0.27256   0.06740   0.00000  Uiso   1.00
C289   C     0.74897   0.28898   0.10952   0.00000  Uiso   1.00
C290   C     0.98338   0.29848   0.78576   0.00000  Uiso   1.00
C291   C     0.04153   0.34654   0.82133   0.00000  Uiso   1.00
C292   C     0.06088   0.40766   0.77159   0.00000  Uiso   1.00
C293   C     0.11539   0.44424   0.81648   0.00000  Uiso   1.00
C294   C     0.01644   0.22750   0.77039   0.00000  Uiso   1.00
C295   C     0.01467   0.18853   0.67783   0.00000  Uiso   1.00
C296   C     0.04805   0.12490   0.67982   0.00000  Uiso   1.00
C297   C     0.93492   0.29142   0.88076   0.00000  Uiso   1.00
C298   C     0.86462   0.30618   0.88098   0.00000  Uiso   1.00
C299   C     0.82936   0.29634   0.97590   0.00000  Uiso   1.00
H300   H     0.07216   0.23628   0.02502   0.00000  Uiso   1.00
H301   H     0.15613   0.34091   0.02832   0.00000  Uiso   1.00
H302   H     0.10993   0.12181   0.93457   0.00000  Uiso   1.00
H303   H     0.95990   0.23944   0.13770   0.00000  Uiso   1.00
H304   H     0.23431   0.46736   0.99168   0.00000  Uiso   1.00
H305   H     0.13685   0.00538   0.79401   0.00000  Uiso   1.00
H306   H     0.82049   0.25342   0.22234   0.00000  Uiso   1.00
H307   H     0.95699   0.31696   0.71464   0.00000  Uiso   1.00
H308   H     0.03464   0.42602   0.70091   0.00000  Uiso   1.00
H309   H     0.98844   0.20692   0.60716   0.00000  Uiso   1.00
H310   H     0.83841   0.32455   0.81028   0.00000  Uiso   1.00
H311   H     0.13570   0.53644   0.72593   0.00000  Uiso   1.00
H312   H     0.03825   0.07445   0.52827   0.00000  Uiso   1.00
H313   H     0.72189   0.32249   0.95660   0.00000  Uiso   1.00
O314   O     0.23818   0.57217   0.85535   0.00000  Uiso   1.00
O315   O     0.11032   0.96606   0.59604   0.00000  Uiso   1.00
O316   O     0.69526   0.29149   0.15799   0.00000  Uiso   1.00
N317   N     0.20043   0.46866   0.93103   0.00000  Uiso   1.00
N318   N     0.10933   0.03673   0.74622   0.00000  Uiso   1.00
N319   N     0.81355   0.26861   0.14667   0.00000  Uiso   1.00
N320   N     0.14737   0.50583   0.78804   0.00000  Uiso   1.00
N321   N     0.05627   0.07390   0.60323   0.00000  Uiso   1.00
N322   N     0.76050   0.30578   0.00367   0.00000  Uiso   1.00
C323   C     0.95423   0.74523   0.95392   0.00000  Uiso   1.00
C324   C     0.92458   0.67719   0.91268   0.00000  Uiso   1.00
C325   C     0.87009   0.64070   0.95764   0.00000  Uiso   1.00
C326   C     0.85066   0.57955   0.90798   0.00000  Uiso   1.00
C327   C     0.79944   0.47753   0.85780   0.00000  Uiso   1.00
C328   C     0.94967   0.79623   0.86173   0.00000  Uiso   1.00
C329   C     0.91629   0.85983   0.86388   0.00000  Uiso   1.00
C330   C     0.91800   0.89888   0.77133   0.00000  Uiso   1.00
C331   C     0.90579   0.98170   0.64209   0.00000  Uiso   1.00
C332   C     0.03118   0.73232   0.97210   0.00000  Uiso   1.00
C333   C     0.06635   0.74219   0.06703   0.00000  Uiso   1.00
C334   C     0.13669   0.72744   0.06740   0.00000  Uiso   1.00
C335   C     0.25103   0.71102   0.10952   0.00000  Uiso   1.00
C336   C     0.01662   0.70152   0.78576   0.00000  Uiso   1.00
C337   C     0.95847   0.65346   0.82133   0.00000  Uiso   1.00
C338   C     0.93912   0.59234   0.77159   0.00000  Uiso   1.00
C339   C     0.88461   0.55576   0.81648   0.00000  Uiso   1.00
C340   C     0.98356   0.77250   0.77039   0.00000  Uiso   1.00
C341   C     0.98533   0.81147   0.67783   0.00000  Uiso   1.00
C342   C     0.95195   0.87510   0.67982   0.00000  Uiso   1.00
C343   C     0.06508   0.70858   0.88076   0.00000  Uiso   1.00
C344   C     0.13538   0.69382   0.88098   0.00000  Uiso   1.00
C345   C     0.17064   0.70366   0.97590   0.00000  Uiso   1.00
H346   H     0.92784   0.76372   0.02502   0.00000  Uiso   1.00
H347   H     0.84387   0.65909   0.02832   0.00000  Uiso   1.00
H348   H     0.89007   0.87819   0.93457   0.00000  Uiso   1.00
H349   H     0.04010   0.76056   0.13770   0.00000  Uiso   1.00
H350   H     0.76569   0.53264   0.99168   0.00000  Uiso   1.00
H351   H     0.86315   0.99462   0.79401   0.00000  Uiso   1.00
H352   H     0.17951   0.74658   0.22234   0.00000  Uiso   1.00
H353   H     0.04301   0.68304   0.71464   0.00000  Uiso   1.00
H354   H     0.96536   0.57398   0.70091   0.00000  Uiso   1.00
H355   H     0.01156   0.79308   0.60716   0.00000  Uiso   1.00
H356   H     0.16159   0.67545   0.81028   0.00000  Uiso   1.00
H357   H     0.86430   0.46356   0.72593   0.00000  Uiso   1.00
H358   H     0.96175   0.92555   0.52827   0.00000  Uiso   1.00
H359   H     0.27811   0.67751   0.95660   0.00000  Uiso   1.00
O360   O     0.76182   0.42783   0.85535   0.00000  Uiso   1.00
O361   O     0.88968   0.03394   0.59604   0.00000  Uiso   1.00
O362   O     0.30474   0.70851   0.15799   0.00000  Uiso   1.00
N363   N     0.79957   0.53134   0.93103   0.00000  Uiso   1.00
N364   N     0.89067   0.96327   0.74622   0.00000  Uiso   1.00
N365   N     0.18645   0.73139   0.14667   0.00000  Uiso   1.00
N366   N     0.85263   0.49417   0.78804   0.00000  Uiso   1.00
N367   N     0.94373   0.92610   0.60323   0.00000  Uiso   1.00
N368   N     0.23950   0.69422   0.00367   0.00000  Uiso   1.00
