data_job_05638
_audit_creation_date              2018-12-19
_audit_creation_method            'Materials Studio'
_symmetry_space_group_name_H-M    'P1'
_symmetry_Int_Tables_number       1
_symmetry_cell_setting            triclinic
loop_
_symmetry_equiv_pos_as_xyz
  x,y,z
_cell_length_a                    11.9746
_cell_length_b                    20.7571
_cell_length_c                    12.5187
_cell_angle_alpha                 90.0000
_cell_angle_beta                  90.0000
_cell_angle_gamma                 90.0000
loop_
_atom_site_label
_atom_site_type_symbol
_atom_site_fract_x
_atom_site_fract_y
_atom_site_fract_z
_atom_site_U_iso_or_equiv
_atom_site_adp_type
_atom_site_occupancy
C1     C     0.78399   0.14341   0.88150   0.00000  Uiso   1.00
C2     C     0.88475   0.14341   0.80701   0.00000  Uiso   1.00
C3     C     0.99334   0.15922   0.83553   0.00000  Uiso   1.00
C4     C     0.07369   0.15626   0.75572   0.00000  Uiso   1.00
C5     C     0.23430   0.15904   0.65595   0.00000  Uiso   1.00
C6     C     0.69824   0.18813   0.83037   0.00000  Uiso   1.00
C7     C     0.65000   0.24153   0.87854   0.00000  Uiso   1.00
C8     C     0.57333   0.27621   0.81841   0.00000  Uiso   1.00
C9     C     0.44431   0.34839   0.75494   0.00000  Uiso   1.00
C10    C     0.73444   0.07585   0.87523   0.00000  Uiso   1.00
C11    C     0.71661   0.03485   0.96113   0.00000  Uiso   1.00
C12    C     0.67040   0.97500   0.93877   0.00000  Uiso   1.00
C13    C     0.59759   0.87284   0.94495   0.00000  Uiso   1.00
C14    C     0.73359   0.11004   0.68906   0.00000  Uiso   1.00
C15    C     0.85737   0.12528   0.70248   0.00000  Uiso   1.00
C16    C     0.93758   0.12229   0.62262   0.00000  Uiso   1.00
C17    C     0.04627   0.13810   0.65101   0.00000  Uiso   1.00
C18    C     0.67086   0.17000   0.72585   0.00000  Uiso   1.00
C19    C     0.59424   0.20461   0.66563   0.00000  Uiso   1.00
C20    C     0.54590   0.25805   0.71370   0.00000  Uiso   1.00
C21    C     0.70707   0.05772   0.77071   0.00000  Uiso   1.00
C22    C     0.66086   0.99792   0.74821   0.00000  Uiso   1.00
C23    C     0.64297   0.95684   0.83405   0.00000  Uiso   1.00
H24    H     0.80529   0.15753   0.96287   0.00000  Uiso   1.00
H25    H     0.01449   0.17325   0.91642   0.00000  Uiso   1.00
H26    H     0.67119   0.25554   0.95944   0.00000  Uiso   1.00
H27    H     0.73780   0.04889   0.04200   0.00000  Uiso   1.00
H28    H     0.23433   0.18271   0.81882   0.00000  Uiso   1.00
H29    H     0.51045   0.35621   0.90953   0.00000  Uiso   1.00
H30    H     0.65091   0.92045   0.08364   0.00000  Uiso   1.00
H31    H     0.71228   0.09593   0.60768   0.00000  Uiso   1.00
H32    H     0.91638   0.10827   0.54174   0.00000  Uiso   1.00
H33    H     0.57308   0.19056   0.58475   0.00000  Uiso   1.00
H34    H     0.63969   0.98391   0.66732   0.00000  Uiso   1.00
H35    H     0.15470   0.12997   0.51471   0.00000  Uiso   1.00
H36    H     0.43081   0.30348   0.60542   0.00000  Uiso   1.00
H37    H     0.57128   0.86771   0.77953   0.00000  Uiso   1.00
O38    O     0.33045   0.16558   0.62979   0.00000  Uiso   1.00
O39    O     0.38072   0.39321   0.74880   0.00000  Uiso   1.00
O40    O     0.56501   0.82150   0.97723   0.00000  Uiso   1.00
N41    N     0.18759   0.16859   0.75630   0.00000  Uiso   1.00
N42    N     0.51081   0.33082   0.84110   0.00000  Uiso   1.00
N43    N     0.64210   0.92342   0.00389   0.00000  Uiso   1.00
N44    N     0.14474   0.14021   0.59266   0.00000  Uiso   1.00
N45    N     0.46796   0.30244   0.67746   0.00000  Uiso   1.00
N46    N     0.59925   0.89504   0.84025   0.00000  Uiso   1.00
C47    C     0.21601   0.85659   0.88150   0.00000  Uiso   1.00
C48    C     0.11525   0.85659   0.80701   0.00000  Uiso   1.00
C49    C     0.00666   0.84078   0.83553   0.00000  Uiso   1.00
C50    C     0.92631   0.84374   0.75572   0.00000  Uiso   1.00
C51    C     0.76570   0.84096   0.65595   0.00000  Uiso   1.00
C52    C     0.30176   0.81187   0.83037   0.00000  Uiso   1.00
C53    C     0.35000   0.75847   0.87854   0.00000  Uiso   1.00
C54    C     0.42667   0.72379   0.81841   0.00000  Uiso   1.00
C55    C     0.55569   0.65161   0.75494   0.00000  Uiso   1.00
C56    C     0.26556   0.92415   0.87523   0.00000  Uiso   1.00
C57    C     0.28339   0.96515   0.96113   0.00000  Uiso   1.00
C58    C     0.32960   0.02500   0.93877   0.00000  Uiso   1.00
C59    C     0.40241   0.12716   0.94495   0.00000  Uiso   1.00
C60    C     0.26641   0.88996   0.68906   0.00000  Uiso   1.00
C61    C     0.14263   0.87472   0.70248   0.00000  Uiso   1.00
C62    C     0.06242   0.87771   0.62262   0.00000  Uiso   1.00
C63    C     0.95373   0.86190   0.65101   0.00000  Uiso   1.00
C64    C     0.32914   0.83000   0.72585   0.00000  Uiso   1.00
C65    C     0.40576   0.79539   0.66563   0.00000  Uiso   1.00
C66    C     0.45410   0.74195   0.71370   0.00000  Uiso   1.00
C67    C     0.29293   0.94228   0.77071   0.00000  Uiso   1.00
C68    C     0.33914   0.00208   0.74821   0.00000  Uiso   1.00
C69    C     0.35703   0.04316   0.83405   0.00000  Uiso   1.00
H70    H     0.19471   0.84247   0.96287   0.00000  Uiso   1.00
H71    H     0.98551   0.82675   0.91642   0.00000  Uiso   1.00
H72    H     0.32881   0.74446   0.95944   0.00000  Uiso   1.00
H73    H     0.26220   0.95111   0.04200   0.00000  Uiso   1.00
H74    H     0.76567   0.81729   0.81882   0.00000  Uiso   1.00
H75    H     0.48955   0.64379   0.90953   0.00000  Uiso   1.00
H76    H     0.34909   0.07955   0.08364   0.00000  Uiso   1.00
H77    H     0.28772   0.90407   0.60768   0.00000  Uiso   1.00
H78    H     0.08362   0.89173   0.54174   0.00000  Uiso   1.00
H79    H     0.42692   0.80944   0.58475   0.00000  Uiso   1.00
H80    H     0.36031   0.01609   0.66732   0.00000  Uiso   1.00
H81    H     0.84530   0.87003   0.51471   0.00000  Uiso   1.00
H82    H     0.56919   0.69652   0.60542   0.00000  Uiso   1.00
H83    H     0.42872   0.13229   0.77953   0.00000  Uiso   1.00
O84    O     0.66955   0.83442   0.62979   0.00000  Uiso   1.00
O85    O     0.61928   0.60679   0.74880   0.00000  Uiso   1.00
O86    O     0.43499   0.17850   0.97723   0.00000  Uiso   1.00
N87    N     0.81241   0.83141   0.75630   0.00000  Uiso   1.00
N88    N     0.48919   0.66918   0.84110   0.00000  Uiso   1.00
N89    N     0.35790   0.07658   0.00389   0.00000  Uiso   1.00
N90    N     0.85526   0.85979   0.59266   0.00000  Uiso   1.00
N91    N     0.53204   0.69756   0.67746   0.00000  Uiso   1.00
N92    N     0.40075   0.10496   0.84025   0.00000  Uiso   1.00
C93    C     0.78399   0.35659   0.38150   0.00000  Uiso   1.00
C94    C     0.88475   0.35659   0.30701   0.00000  Uiso   1.00
C95    C     0.99334   0.34078   0.33553   0.00000  Uiso   1.00
C96    C     0.07369   0.34374   0.25572   0.00000  Uiso   1.00
C97    C     0.23430   0.34096   0.15595   0.00000  Uiso   1.00
C98    C     0.69824   0.31187   0.33037   0.00000  Uiso   1.00
C99    C     0.65000   0.25847   0.37854   0.00000  Uiso   1.00
C100   C     0.57333   0.22379   0.31841   0.00000  Uiso   1.00
C101   C     0.44431   0.15161   0.25494   0.00000  Uiso   1.00
C102   C     0.73444   0.42415   0.37523   0.00000  Uiso   1.00
C103   C     0.71661   0.46515   0.46113   0.00000  Uiso   1.00
C104   C     0.67040   0.52500   0.43877   0.00000  Uiso   1.00
C105   C     0.59759   0.62716   0.44495   0.00000  Uiso   1.00
C106   C     0.73359   0.38996   0.18906   0.00000  Uiso   1.00
C107   C     0.85737   0.37472   0.20248   0.00000  Uiso   1.00
C108   C     0.93758   0.37771   0.12262   0.00000  Uiso   1.00
C109   C     0.04627   0.36190   0.15101   0.00000  Uiso   1.00
C110   C     0.67086   0.33000   0.22585   0.00000  Uiso   1.00
C111   C     0.59424   0.29539   0.16563   0.00000  Uiso   1.00
C112   C     0.54590   0.24195   0.21370   0.00000  Uiso   1.00
C113   C     0.70707   0.44228   0.27071   0.00000  Uiso   1.00
C114   C     0.66086   0.50208   0.24821   0.00000  Uiso   1.00
C115   C     0.64297   0.54316   0.33405   0.00000  Uiso   1.00
H116   H     0.80529   0.34247   0.46287   0.00000  Uiso   1.00
H117   H     0.01449   0.32675   0.41642   0.00000  Uiso   1.00
H118   H     0.67119   0.24446   0.45944   0.00000  Uiso   1.00
H119   H     0.73780   0.45111   0.54200   0.00000  Uiso   1.00
H120   H     0.23433   0.31729   0.31882   0.00000  Uiso   1.00
H121   H     0.51045   0.14379   0.40953   0.00000  Uiso   1.00
H122   H     0.65091   0.57955   0.58364   0.00000  Uiso   1.00
H123   H     0.71228   0.40407   0.10768   0.00000  Uiso   1.00
H124   H     0.91638   0.39173   0.04174   0.00000  Uiso   1.00
H125   H     0.57308   0.30944   0.08475   0.00000  Uiso   1.00
H126   H     0.63969   0.51609   0.16732   0.00000  Uiso   1.00
H127   H     0.15470   0.37003   0.01471   0.00000  Uiso   1.00
H128   H     0.43081   0.19652   0.10542   0.00000  Uiso   1.00
H129   H     0.57128   0.63229   0.27953   0.00000  Uiso   1.00
O130   O     0.33045   0.33442   0.12979   0.00000  Uiso   1.00
O131   O     0.38072   0.10679   0.24880   0.00000  Uiso   1.00
O132   O     0.56501   0.67850   0.47723   0.00000  Uiso   1.00
N133   N     0.18759   0.33141   0.25630   0.00000  Uiso   1.00
N134   N     0.51081   0.16918   0.34110   0.00000  Uiso   1.00
N135   N     0.64210   0.57658   0.50389   0.00000  Uiso   1.00
N136   N     0.14474   0.35979   0.09266   0.00000  Uiso   1.00
N137   N     0.46796   0.19756   0.17746   0.00000  Uiso   1.00
N138   N     0.59925   0.60496   0.34025   0.00000  Uiso   1.00
C139   C     0.21601   0.64341   0.38150   0.00000  Uiso   1.00
C140   C     0.11525   0.64341   0.30701   0.00000  Uiso   1.00
C141   C     0.00666   0.65922   0.33553   0.00000  Uiso   1.00
C142   C     0.92631   0.65626   0.25572   0.00000  Uiso   1.00
C143   C     0.76570   0.65904   0.15595   0.00000  Uiso   1.00
C144   C     0.30176   0.68813   0.33037   0.00000  Uiso   1.00
C145   C     0.35000   0.74153   0.37854   0.00000  Uiso   1.00
C146   C     0.42667   0.77621   0.31841   0.00000  Uiso   1.00
C147   C     0.55569   0.84839   0.25494   0.00000  Uiso   1.00
C148   C     0.26556   0.57585   0.37523   0.00000  Uiso   1.00
C149   C     0.28339   0.53485   0.46113   0.00000  Uiso   1.00
C150   C     0.32960   0.47500   0.43877   0.00000  Uiso   1.00
C151   C     0.40241   0.37284   0.44495   0.00000  Uiso   1.00
C152   C     0.26641   0.61004   0.18906   0.00000  Uiso   1.00
C153   C     0.14263   0.62528   0.20248   0.00000  Uiso   1.00
C154   C     0.06242   0.62229   0.12262   0.00000  Uiso   1.00
C155   C     0.95373   0.63810   0.15101   0.00000  Uiso   1.00
C156   C     0.32914   0.67000   0.22585   0.00000  Uiso   1.00
C157   C     0.40576   0.70461   0.16563   0.00000  Uiso   1.00
C158   C     0.45410   0.75805   0.21370   0.00000  Uiso   1.00
C159   C     0.29293   0.55772   0.27071   0.00000  Uiso   1.00
C160   C     0.33914   0.49792   0.24821   0.00000  Uiso   1.00
C161   C     0.35703   0.45684   0.33405   0.00000  Uiso   1.00
H162   H     0.19471   0.65753   0.46287   0.00000  Uiso   1.00
H163   H     0.98551   0.67325   0.41642   0.00000  Uiso   1.00
H164   H     0.32881   0.75554   0.45944   0.00000  Uiso   1.00
H165   H     0.26220   0.54889   0.54200   0.00000  Uiso   1.00
H166   H     0.76567   0.68271   0.31882   0.00000  Uiso   1.00
H167   H     0.48955   0.85621   0.40953   0.00000  Uiso   1.00
H168   H     0.34909   0.42045   0.58364   0.00000  Uiso   1.00
H169   H     0.28772   0.59593   0.10768   0.00000  Uiso   1.00
H170   H     0.08362   0.60827   0.04174   0.00000  Uiso   1.00
H171   H     0.42692   0.69056   0.08475   0.00000  Uiso   1.00
H172   H     0.36031   0.48391   0.16732   0.00000  Uiso   1.00
H173   H     0.84530   0.62997   0.01471   0.00000  Uiso   1.00
H174   H     0.56919   0.80348   0.10542   0.00000  Uiso   1.00
H175   H     0.42872   0.36771   0.27953   0.00000  Uiso   1.00
O176   O     0.66955   0.66558   0.12979   0.00000  Uiso   1.00
O177   O     0.61928   0.89321   0.24880   0.00000  Uiso   1.00
O178   O     0.43499   0.32150   0.47723   0.00000  Uiso   1.00
N179   N     0.81241   0.66859   0.25630   0.00000  Uiso   1.00
N180   N     0.48919   0.83082   0.34110   0.00000  Uiso   1.00
N181   N     0.35790   0.42342   0.50389   0.00000  Uiso   1.00
N182   N     0.85526   0.64021   0.09266   0.00000  Uiso   1.00
N183   N     0.53204   0.80244   0.17746   0.00000  Uiso   1.00
N184   N     0.40075   0.39504   0.34025   0.00000  Uiso   1.00
