data_job_06632
_audit_creation_date              2018-12-19
_audit_creation_method            'Materials Studio'
_symmetry_space_group_name_H-M    'P1'
_symmetry_Int_Tables_number       1
_symmetry_cell_setting            triclinic
loop_
_symmetry_equiv_pos_as_xyz
  x,y,z
_cell_length_a                    20.4131
_cell_length_b                    22.5905
_cell_length_c                    22.8776
_cell_angle_alpha                 96.5417
_cell_angle_beta                  65.2221
_cell_angle_gamma                 63.3053
loop_
_atom_site_label
_atom_site_type_symbol
_atom_site_fract_x
_atom_site_fract_y
_atom_site_fract_z
_atom_site_U_iso_or_equiv
_atom_site_adp_type
_atom_site_occupancy
C1     C     0.27099   0.70221   0.76728   0.00000  Uiso   1.00
C2     C     0.23564   0.65711   0.79183   0.00000  Uiso   1.00
C3     C     0.28396   0.58335   0.77117   0.00000  Uiso   1.00
C4     C     0.23957   0.55210   0.79957   0.00000  Uiso   1.00
C5     C     0.19828   0.47581   0.83046   0.00000  Uiso   1.00
C6     C     0.22045   0.74491   0.73711   0.00000  Uiso   1.00
C7     C     0.25601   0.74497   0.67046   0.00000  Uiso   1.00
C8     C     0.19883   0.78764   0.65280   0.00000  Uiso   1.00
C9     C     0.13397   0.84770   0.59876   0.00000  Uiso   1.00
C10    C     0.24396   0.75646   0.83263   0.00000  Uiso   1.00
C11    C     0.29928   0.76626   0.84628   0.00000  Uiso   1.00
C12    C     0.26189   0.81866   0.90904   0.00000  Uiso   1.00
C13    C     0.23354   0.89667   0.00330   0.00000  Uiso   1.00
C14    C     0.10622   0.77787   0.85445   0.00000  Uiso   1.00
C15    C     0.14614   0.69821   0.83918   0.00000  Uiso   1.00
C16    C     0.10166   0.66706   0.86762   0.00000  Uiso   1.00
C17    C     0.14991   0.59327   0.84701   0.00000  Uiso   1.00
C18    C     0.13095   0.78600   0.78446   0.00000  Uiso   1.00
C19    C     0.07370   0.82868   0.76690   0.00000  Uiso   1.00
C20    C     0.10916   0.82881   0.70023   0.00000  Uiso   1.00
C21    C     0.15446   0.79756   0.87998   0.00000  Uiso   1.00
C22    C     0.11698   0.84997   0.94273   0.00000  Uiso   1.00
C23    C     0.17223   0.85984   0.95647   0.00000  Uiso   1.00
H24    H     0.34067   0.67021   0.73041   0.00000  Uiso   1.00
H25    H     0.35322   0.55156   0.73452   0.00000  Uiso   1.00
H26    H     0.32527   0.71317   0.63383   0.00000  Uiso   1.00
H27    H     0.36854   0.73444   0.80962   0.00000  Uiso   1.00
H28    H     0.32767   0.43813   0.75994   0.00000  Uiso   1.00
H29    H     0.26873   0.77891   0.54762   0.00000  Uiso   1.00
H30    H     0.35997   0.82378   0.91832   0.00000  Uiso   1.00
H31    H     0.03653   0.80987   0.89132   0.00000  Uiso   1.00
H32    H     0.03240   0.69888   0.90426   0.00000  Uiso   1.00
H33    H     0.00445   0.86048   0.80356   0.00000  Uiso   1.00
H34    H     0.04772   0.88176   0.97936   0.00000  Uiso   1.00
H35    H     0.06727   0.55770   0.89770   0.00000  Uiso   1.00
H36    H     0.00834   0.89848   0.68538   0.00000  Uiso   1.00
H37    H     0.09958   0.94335   0.05609   0.00000  Uiso   1.00
O38    O     0.20023   0.42238   0.83441   0.00000  Uiso   1.00
O39    O     0.12292   0.86947   0.55587   0.00000  Uiso   1.00
O40    O     0.24262   0.92834   0.04222   0.00000  Uiso   1.00
N41    N     0.26695   0.48151   0.79060   0.00000  Uiso   1.00
N42    N     0.21185   0.80010   0.59209   0.00000  Uiso   1.00
N43    N     0.29715   0.84206   0.93866   0.00000  Uiso   1.00
N44    N     0.12684   0.54585   0.86472   0.00000  Uiso   1.00
N45    N     0.07174   0.86444   0.66622   0.00000  Uiso   1.00
N46    N     0.15704   0.90640   0.01278   0.00000  Uiso   1.00
C47    C     0.97555   0.32488   0.06472   0.00000  Uiso   1.00
C48    C     0.02362   0.30677   0.98662   0.00000  Uiso   1.00
C49    C     0.05412   0.34471   0.95359   0.00000  Uiso   1.00
C50    C     0.09644   0.31950   0.88173   0.00000  Uiso   1.00
C51    C     0.16931   0.30067   0.76617   0.00000  Uiso   1.00
C52    C     0.89013   0.33256   0.08439   0.00000  Uiso   1.00
C53    C     0.80840   0.39219   0.13358   0.00000  Uiso   1.00
C54    C     0.73834   0.38869   0.14402   0.00000  Uiso   1.00
C55    C     0.60398   0.40989   0.18029   0.00000  Uiso   1.00
C56    C     0.02723   0.25840   0.07593   0.00000  Uiso   1.00
C57    C     0.06074   0.25567   0.11800   0.00000  Uiso   1.00
C58    C     0.10609   0.18972   0.12133   0.00000  Uiso   1.00
C59    C     0.18458   0.09577   0.14445   0.00000  Uiso   1.00
C60    C     0.99647   0.21264   0.99583   0.00000  Uiso   1.00
C61    C     0.03499   0.24580   0.94921   0.00000  Uiso   1.00
C62    C     0.07727   0.22052   0.87738   0.00000  Uiso   1.00
C63    C     0.10783   0.25842   0.84425   0.00000  Uiso   1.00
C64    C     0.90150   0.27160   0.04698   0.00000  Uiso   1.00
C65    C     0.83155   0.26801   0.05736   0.00000  Uiso   1.00
C66    C     0.74973   0.32762   0.10654   0.00000  Uiso   1.00
C67    C     0.03859   0.19743   0.03851   0.00000  Uiso   1.00
C68    C     0.08389   0.13148   0.04178   0.00000  Uiso   1.00
C69    C     0.11747   0.12865   0.08385   0.00000  Uiso   1.00
H70    H     0.96670   0.37235   0.09385   0.00000  Uiso   1.00
H71    H     0.04531   0.39189   0.98257   0.00000  Uiso   1.00
H72    H     0.79962   0.43936   0.16253   0.00000  Uiso   1.00
H73    H     0.05193   0.30285   0.14695   0.00000  Uiso   1.00
H74    H     0.13744   0.38669   0.84269   0.00000  Uiso   1.00
H75    H     0.61941   0.48677   0.22216   0.00000  Uiso   1.00
H76    H     0.15145   0.19893   0.18932   0.00000  Uiso   1.00
H77    H     0.00532   0.16517   0.96670   0.00000  Uiso   1.00
H78    H     0.08605   0.17334   0.84844   0.00000  Uiso   1.00
H79    H     0.84037   0.22082   0.02840   0.00000  Uiso   1.00
H80    H     0.09268   0.08431   0.01282   0.00000  Uiso   1.00
H81    H     0.17051   0.20931   0.73383   0.00000  Uiso   1.00
H82    H     0.65247   0.30940   0.11330   0.00000  Uiso   1.00
H83    H     0.18451   0.02155   0.08046   0.00000  Uiso   1.00
O84    O     0.20636   0.30713   0.71276   0.00000  Uiso   1.00
O85    O     0.52672   0.43843   0.21062   0.00000  Uiso   1.00
O86    O     0.22475   0.06078   0.16753   0.00000  Uiso   1.00
N87    N     0.13416   0.34381   0.83330   0.00000  Uiso   1.00
N88    N     0.64983   0.43739   0.18808   0.00000  Uiso   1.00
N89    N     0.14722   0.16828   0.15738   0.00000  Uiso   1.00
N90    N     0.15196   0.24836   0.77472   0.00000  Uiso   1.00
N91    N     0.66762   0.34195   0.12950   0.00000  Uiso   1.00
N92    N     0.16502   0.07284   0.09881   0.00000  Uiso   1.00
C93    C     0.55056   0.13267   0.45308   0.00000  Uiso   1.00
C94    C     0.48434   0.21292   0.49140   0.00000  Uiso   1.00
C95    C     0.41335   0.24615   0.55877   0.00000  Uiso   1.00
C96    C     0.36046   0.32014   0.58444   0.00000  Uiso   1.00
C97    C     0.25494   0.43877   0.65006   0.00000  Uiso   1.00
C98    C     0.55107   0.11332   0.38675   0.00000  Uiso   1.00
C99    C     0.53620   0.06280   0.36613   0.00000  Uiso   1.00
C100   C     0.53949   0.05294   0.30369   0.00000  Uiso   1.00
C101   C     0.53764   0.01691   0.20682   0.00000  Uiso   1.00
C102   C     0.63841   0.12131   0.43022   0.00000  Uiso   1.00
C103   C     0.69699   0.07748   0.44614   0.00000  Uiso   1.00
C104   C     0.77383   0.07433   0.42029   0.00000  Uiso   1.00
C105   C     0.90759   0.05070   0.39092   0.00000  Uiso   1.00
C106   C     0.58288   0.20498   0.37886   0.00000  Uiso   1.00
C107   C     0.50189   0.25220   0.45109   0.00000  Uiso   1.00
C108   C     0.44910   0.32615   0.47666   0.00000  Uiso   1.00
C109   C     0.37805   0.35948   0.54406   0.00000  Uiso   1.00
C110   C     0.56862   0.15260   0.34644   0.00000  Uiso   1.00
C111   C     0.57195   0.14280   0.28402   0.00000  Uiso   1.00
C112   C     0.55708   0.09228   0.26331   0.00000  Uiso   1.00
C113   C     0.65596   0.16059   0.38991   0.00000  Uiso   1.00
C114   C     0.73274   0.15749   0.36403   0.00000  Uiso   1.00
C115   C     0.79142   0.11368   0.37991   0.00000  Uiso   1.00
H116   H     0.53690   0.10209   0.48446   0.00000  Uiso   1.00
H117   H     0.39978   0.21573   0.58995   0.00000  Uiso   1.00
H118   H     0.52262   0.03241   0.39733   0.00000  Uiso   1.00
H119   H     0.68339   0.04710   0.47733   0.00000  Uiso   1.00
H120   H     0.25549   0.35905   0.68912   0.00000  Uiso   1.00
H121   H     0.51453   0.97249   0.28296   0.00000  Uiso   1.00
H122   H     0.85354   0.00345   0.45166   0.00000  Uiso   1.00
H123   H     0.59654   0.23556   0.34748   0.00000  Uiso   1.00
H124   H     0.46270   0.35653   0.44545   0.00000  Uiso   1.00
H125   H     0.58554   0.17321   0.25283   0.00000  Uiso   1.00
H126   H     0.74630   0.18789   0.33284   0.00000  Uiso   1.00
H127   H     0.30655   0.47333   0.57184   0.00000  Uiso   1.00
H128   H     0.56560   0.08676   0.16568   0.00000  Uiso   1.00
H129   H     0.90460   0.11773   0.33439   0.00000  Uiso   1.00
O130   O     0.19189   0.49336   0.69739   0.00000  Uiso   1.00
O131   O     0.53175   0.98619   0.16452   0.00000  Uiso   1.00
O132   O     0.97651   0.02683   0.38587   0.00000  Uiso   1.00
N133   N     0.28589   0.36935   0.64807   0.00000  Uiso   1.00
N134   N     0.52806   0.00794   0.26835   0.00000  Uiso   1.00
N135   N     0.84501   0.03688   0.42606   0.00000  Uiso   1.00
N136   N     0.31337   0.43084   0.58497   0.00000  Uiso   1.00
N137   N     0.55554   0.06943   0.20524   0.00000  Uiso   1.00
N138   N     0.87249   0.09837   0.36295   0.00000  Uiso   1.00
C139   C     0.51606   0.85399   0.07679   0.00000  Uiso   1.00
C140   C     0.45239   0.83374   0.11442   0.00000  Uiso   1.00
C141   C     0.38339   0.87073   0.18277   0.00000  Uiso   1.00
C142   C     0.33268   0.84356   0.20756   0.00000  Uiso   1.00
C143   C     0.23110   0.82156   0.27238   0.00000  Uiso   1.00
C144   C     0.51249   0.86115   0.01254   0.00000  Uiso   1.00
C145   C     0.49402   0.92118   0.99522   0.00000  Uiso   1.00
C146   C     0.49391   0.91708   0.93425   0.00000  Uiso   1.00
C147   C     0.48569   0.93761   0.84087   0.00000  Uiso   1.00
C148   C     0.60567   0.78896   0.05029   0.00000  Uiso   1.00
C149   C     0.66557   0.78828   0.06471   0.00000  Uiso   1.00
C150   C     0.74392   0.72340   0.03550   0.00000  Uiso   1.00
C151   C     0.88039   0.63184   0.00075   0.00000  Uiso   1.00
C152   C     0.54872   0.73998   0.99929   0.00000  Uiso   1.00
C153   C     0.47014   0.77182   0.07232   0.00000  Uiso   1.00
C154   C     0.41953   0.74458   0.09702   0.00000  Uiso   1.00
C155   C     0.35046   0.78152   0.16539   0.00000  Uiso   1.00
C156   C     0.53023   0.79923   0.97044   0.00000  Uiso   1.00
C157   C     0.53016   0.79504   0.90948   0.00000  Uiso   1.00
C158   C     0.51168   0.85504   0.89208   0.00000  Uiso   1.00
C159   C     0.62341   0.72703   0.00820   0.00000  Uiso   1.00
C160   C     0.70170   0.66214   0.97896   0.00000  Uiso   1.00
C161   C     0.76170   0.66137   0.99333   0.00000  Uiso   1.00
H162   H     0.50224   0.90221   0.10956   0.00000  Uiso   1.00
H163   H     0.36967   0.91865   0.21532   0.00000  Uiso   1.00
H164   H     0.48030   0.96909   0.02781   0.00000  Uiso   1.00
H165   H     0.65181   0.83622   0.09728   0.00000  Uiso   1.00
H166   H     0.23050   0.90959   0.31401   0.00000  Uiso   1.00
H167   H     0.46378   0.01594   0.91861   0.00000  Uiso   1.00
H168   H     0.82546   0.73574   0.06511   0.00000  Uiso   1.00
H169   H     0.56254   0.69177   0.96651   0.00000  Uiso   1.00
H170   H     0.43327   0.69666   0.06443   0.00000  Uiso   1.00
H171   H     0.54389   0.74710   0.87691   0.00000  Uiso   1.00
H172   H     0.71541   0.61423   0.94639   0.00000  Uiso   1.00
H173   H     0.28211   0.72942   0.19154   0.00000  Uiso   1.00
H174   H     0.51540   0.83576   0.79614   0.00000  Uiso   1.00
H175   H     0.87708   0.55557   0.94264   0.00000  Uiso   1.00
O176   O     0.17017   0.82653   0.31977   0.00000  Uiso   1.00
O177   O     0.47624   0.96605   0.80101   0.00000  Uiso   1.00
O178   O     0.95075   0.59845   0.99322   0.00000  Uiso   1.00
N179   N     0.26040   0.86651   0.27176   0.00000  Uiso   1.00
N180   N     0.47849   0.96594   0.90208   0.00000  Uiso   1.00
N181   N     0.81664   0.70399   0.03904   0.00000  Uiso   1.00
N182   N     0.28817   0.76955   0.20586   0.00000  Uiso   1.00
N183   N     0.50626   0.86899   0.83618   0.00000  Uiso   1.00
N184   N     0.84441   0.60703   0.97314   0.00000  Uiso   1.00
C185   C     0.08793   0.66133   0.41959   0.00000  Uiso   1.00
C186   C     0.03678   0.74243   0.45322   0.00000  Uiso   1.00
C187   C     0.07179   0.78337   0.44750   0.00000  Uiso   1.00
C188   C     0.01411   0.85675   0.48217   0.00000  Uiso   1.00
C189   C     0.94830   0.97793   0.52843   0.00000  Uiso   1.00
C190   C     0.05364   0.64575   0.37617   0.00000  Uiso   1.00
C191   C     0.10281   0.60539   0.30566   0.00000  Uiso   1.00
C192   C     0.05932   0.59738   0.27547   0.00000  Uiso   1.00
C193   C     0.01969   0.56841   0.20212   0.00000  Uiso   1.00
C194   C     0.06051   0.63524   0.47856   0.00000  Uiso   1.00
C195   C     0.11546   0.58602   0.49413   0.00000  Uiso   1.00
C196   C     0.07775   0.56915   0.55014   0.00000  Uiso   1.00
C197   C     0.04878   0.52386   0.63576   0.00000  Uiso   1.00
C198   C     0.92325   0.71886   0.49135   0.00000  Uiso   1.00
C199   C     0.94734   0.77367   0.49219   0.00000  Uiso   1.00
C200   C     0.88959   0.84702   0.52689   0.00000  Uiso   1.00
C201   C     0.92450   0.88806   0.52122   0.00000  Uiso   1.00
C202   C     0.96419   0.67699   0.41514   0.00000  Uiso   1.00
C203   C     0.92061   0.66904   0.38505   0.00000  Uiso   1.00
C204   C     0.96971   0.62868   0.31452   0.00000  Uiso   1.00
C205   C     0.97106   0.66648   0.51753   0.00000  Uiso   1.00
C206   C     0.93326   0.64968   0.57353   0.00000  Uiso   1.00
C207   C     0.98814   0.60045   0.58919   0.00000  Uiso   1.00
H208   H     0.15757   0.63700   0.38924   0.00000  Uiso   1.00
H209   H     0.14102   0.75917   0.41732   0.00000  Uiso   1.00
H210   H     0.17203   0.58121   0.27551   0.00000  Uiso   1.00
H211   H     0.18467   0.56185   0.46396   0.00000  Uiso   1.00
H212   H     0.08322   0.90839   0.46562   0.00000  Uiso   1.00
H213   H     0.14863   0.53314   0.16661   0.00000  Uiso   1.00
H214   H     0.17529   0.49232   0.56398   0.00000  Uiso   1.00
H215   H     0.85360   0.74318   0.52169   0.00000  Uiso   1.00
H216   H     0.82037   0.87118   0.55705   0.00000  Uiso   1.00
H217   H     0.85139   0.69322   0.41523   0.00000  Uiso   1.00
H218   H     0.86403   0.67387   0.60368   0.00000  Uiso   1.00
H219   H     0.82297   0.99931   0.57903   0.00000  Uiso   1.00
H220   H     0.88838   0.62405   0.28001   0.00000  Uiso   1.00
H221   H     0.91504   0.58324   0.67738   0.00000  Uiso   1.00
O222   O     0.93671   0.03613   0.54317   0.00000  Uiso   1.00
O223   O     0.02254   0.54381   0.15088   0.00000  Uiso   1.00
O224   O     0.05751   0.49026   0.67222   0.00000  Uiso   1.00
N225   N     0.02653   0.91222   0.48747   0.00000  Uiso   1.00
N226   N     0.08768   0.56139   0.20791   0.00000  Uiso   1.00
N227   N     0.11261   0.52322   0.57941   0.00000  Uiso   1.00
N228   N     0.88649   0.96114   0.54849   0.00000  Uiso   1.00
N229   N     0.94765   0.61031   0.26893   0.00000  Uiso   1.00
N230   N     0.97257   0.57214   0.64043   0.00000  Uiso   1.00
C231   C     0.82855   0.33306   0.66648   0.00000  Uiso   1.00
C232   C     0.90561   0.27152   0.59828   0.00000  Uiso   1.00
C233   C     0.92850   0.20132   0.58085   0.00000  Uiso   1.00
C234   C     0.00122   0.15297   0.51594   0.00000  Uiso   1.00
C235   C     0.11354   0.05419   0.41699   0.00000  Uiso   1.00
C236   C     0.77524   0.39020   0.64698   0.00000  Uiso   1.00
C237   C     0.68852   0.41981   0.67052   0.00000  Uiso   1.00
C238   C     0.65150   0.47137   0.64662   0.00000  Uiso   1.00
C239   C     0.56141   0.55690   0.62333   0.00000  Uiso   1.00
C240   C     0.86540   0.36416   0.69641   0.00000  Uiso   1.00
C241   C     0.85446   0.37188   0.76152   0.00000  Uiso   1.00
C242   C     0.89333   0.40154   0.77925   0.00000  Uiso   1.00
C243   C     0.94321   0.44663   0.83270   0.00000  Uiso   1.00
C244   C     0.91698   0.37202   0.58219   0.00000  Uiso   1.00
C245   C     0.95364   0.29268   0.55250   0.00000  Uiso   1.00
C246   C     0.02634   0.24442   0.48760   0.00000  Uiso   1.00
C247   C     0.04934   0.17416   0.47008   0.00000  Uiso   1.00
C248   C     0.82327   0.41136   0.60120   0.00000  Uiso   1.00
C249   C     0.78636   0.46290   0.57727   0.00000  Uiso   1.00
C250   C     0.69962   0.49257   0.60076   0.00000  Uiso   1.00
C251   C     0.91343   0.38532   0.65063   0.00000  Uiso   1.00
C252   C     0.95231   0.41497   0.66826   0.00000  Uiso   1.00
C253   C     0.94145   0.42274   0.73338   0.00000  Uiso   1.00
H254   H     0.79115   0.31659   0.70212   0.00000  Uiso   1.00
H255   H     0.89131   0.18497   0.61629   0.00000  Uiso   1.00
H256   H     0.65137   0.40343   0.70595   0.00000  Uiso   1.00
H257   H     0.81729   0.35550   0.79693   0.00000  Uiso   1.00
H258   H     0.02352   0.04838   0.50094   0.00000  Uiso   1.00
H259   H     0.51758   0.50902   0.69001   0.00000  Uiso   1.00
H260   H     0.86745   0.40797   0.88187   0.00000  Uiso   1.00
H261   H     0.95438   0.38849   0.54655   0.00000  Uiso   1.00
H262   H     0.06350   0.26081   0.45218   0.00000  Uiso   1.00
H263   H     0.82356   0.47927   0.54184   0.00000  Uiso   1.00
H264   H     0.98948   0.43134   0.63282   0.00000  Uiso   1.00
H265   H     0.16327   0.10993   0.36774   0.00000  Uiso   1.00
H266   H     0.65733   0.57058   0.55681   0.00000  Uiso   1.00
H267   H     0.00721   0.46952   0.74867   0.00000  Uiso   1.00
O268   O     0.16221   0.99387   0.37506   0.00000  Uiso   1.00
O269   O     0.49844   0.59823   0.62312   0.00000  Uiso   1.00
O270   O     0.95747   0.46564   0.87483   0.00000  Uiso   1.00
N271   N     0.04144   0.08038   0.48254   0.00000  Uiso   1.00
N272   N     0.56843   0.51105   0.65931   0.00000  Uiso   1.00
N273   N     0.89551   0.41659   0.83868   0.00000  Uiso   1.00
N274   N     0.11664   0.11350   0.41087   0.00000  Uiso   1.00
N275   N     0.64363   0.54417   0.58763   0.00000  Uiso   1.00
N276   N     0.97071   0.44971   0.76701   0.00000  Uiso   1.00
C277   C     0.69129   0.36621   0.35462   0.00000  Uiso   1.00
C278   C     0.73469   0.40674   0.33376   0.00000  Uiso   1.00
C279   C     0.69293   0.47843   0.34291   0.00000  Uiso   1.00
C280   C     0.74414   0.50551   0.32037   0.00000  Uiso   1.00
C281   C     0.79788   0.57502   0.29267   0.00000  Uiso   1.00
C282   C     0.71695   0.33429   0.40265   0.00000  Uiso   1.00
C283   C     0.66027   0.34506   0.46971   0.00000  Uiso   1.00
C284   C     0.69655   0.31114   0.50515   0.00000  Uiso   1.00
C285   C     0.72275   0.26812   0.58438   0.00000  Uiso   1.00
C286   C     0.73544   0.30319   0.28886   0.00000  Uiso   1.00
C287   C     0.69429   0.28778   0.26025   0.00000  Uiso   1.00
C288   C     0.74614   0.22766   0.19988   0.00000  Uiso   1.00
C289   C     0.80103   0.13636   0.10243   0.00000  Uiso   1.00
C290   C     0.85650   0.28682   0.29830   0.00000  Uiso   1.00
C291   C     0.82443   0.36362   0.30317   0.00000  Uiso   1.00
C292   C     0.87572   0.39060   0.28060   0.00000  Uiso   1.00
C293   C     0.83404   0.46231   0.28972   0.00000  Uiso   1.00
C294   C     0.80669   0.29117   0.37206   0.00000  Uiso   1.00
C295   C     0.84306   0.25723   0.40740   0.00000  Uiso   1.00
C296   C     0.78645   0.26794   0.47451   0.00000  Uiso   1.00
C297   C     0.82518   0.26007   0.25826   0.00000  Uiso   1.00
C298   C     0.87709   0.19996   0.19794   0.00000  Uiso   1.00
C299   C     0.83604   0.18447   0.16924   0.00000  Uiso   1.00
H300   H     0.62142   0.39978   0.37844   0.00000  Uiso   1.00
H301   H     0.62348   0.51178   0.36660   0.00000  Uiso   1.00
H302   H     0.59083   0.37842   0.49337   0.00000  Uiso   1.00
H303   H     0.62485   0.32116   0.28394   0.00000  Uiso   1.00
H304   H     0.66533   0.61695   0.34000   0.00000  Uiso   1.00
H305   H     0.59648   0.33574   0.60730   0.00000  Uiso   1.00
H306   H     0.66822   0.21499   0.16567   0.00000  Uiso   1.00
H307   H     0.92637   0.25325   0.27448   0.00000  Uiso   1.00
H308   H     0.94516   0.35722   0.25693   0.00000  Uiso   1.00
H309   H     0.91251   0.22386   0.38371   0.00000  Uiso   1.00
H310   H     0.94653   0.16660   0.17428   0.00000  Uiso   1.00
H311   H     0.92642   0.49150   0.25100   0.00000  Uiso   1.00
H312   H     0.85757   0.21029   0.51830   0.00000  Uiso   1.00
H313   H     0.92932   0.08954   0.07667   0.00000  Uiso   1.00
O314   O     0.80273   0.62527   0.28585   0.00000  Uiso   1.00
O315   O     0.71241   0.25632   0.63654   0.00000  Uiso   1.00
O316   O     0.80653   0.09791   0.05712   0.00000  Uiso   1.00
N317   N     0.72420   0.57316   0.32145   0.00000  Uiso   1.00
N318   N     0.65983   0.31025   0.57137   0.00000  Uiso   1.00
N319   N     0.72690   0.19735   0.15849   0.00000  Uiso   1.00
N320   N     0.86469   0.50565   0.27355   0.00000  Uiso   1.00
N321   N     0.80032   0.24274   0.52347   0.00000  Uiso   1.00
N322   N     0.86739   0.12985   0.11059   0.00000  Uiso   1.00
C323   C     0.90218   0.75867   0.12563   0.00000  Uiso   1.00
C324   C     0.81776   0.78819   0.19384   0.00000  Uiso   1.00
C325   C     0.77370   0.75474   0.21268   0.00000  Uiso   1.00
C326   C     0.69760   0.79052   0.27732   0.00000  Uiso   1.00
C327   C     0.57124   0.82618   0.37653   0.00000  Uiso   1.00
C328   C     0.96560   0.75691   0.14528   0.00000  Uiso   1.00
C329   C     0.04584   0.69715   0.12328   0.00000  Uiso   1.00
C330   C     0.09419   0.70659   0.14705   0.00000  Uiso   1.00
C331   C     0.19738   0.69370   0.17082   0.00000  Uiso   1.00
C332   C     0.88425   0.81521   0.09350   0.00000  Uiso   1.00
C333   C     0.89611   0.80447   0.02795   0.00000  Uiso   1.00
C334   C     0.87599   0.86299   0.00811   0.00000  Uiso   1.00
C335   C     0.85287   0.94061   0.95149   0.00000  Uiso   1.00
C336   C     0.84538   0.88169   0.20694   0.00000  Uiso   1.00
C337   C     0.78691   0.85502   0.23800   0.00000  Uiso   1.00
C338   C     0.71086   0.89086   0.30263   0.00000  Uiso   1.00
C339   C     0.66669   0.85746   0.32157   0.00000  Uiso   1.00
C340   C     0.93475   0.82373   0.18944   0.00000  Uiso   1.00
C341   C     0.98300   0.83326   0.21324   0.00000  Uiso   1.00
C342   C     0.06328   0.77354   0.19129   0.00000  Uiso   1.00
C343   C     0.85339   0.88203   0.13766   0.00000  Uiso   1.00
C344   C     0.83326   0.94058   0.11791   0.00000  Uiso   1.00
C345   C     0.84508   0.92994   0.05235   0.00000  Uiso   1.00
H346   H     0.92620   0.70664   0.09125   0.00000  Uiso   1.00
H347   H     0.79760   0.70302   0.17849   0.00000  Uiso   1.00
H348   H     0.06970   0.64545   0.08910   0.00000  Uiso   1.00
H349   H     0.91999   0.75275   0.99379   0.00000  Uiso   1.00
H350   H     0.64144   0.72847   0.29470   0.00000  Uiso   1.00
H351   H     0.21518   0.60707   0.10620   0.00000  Uiso   1.00
H352   H     0.89949   0.83333   0.90522   0.00000  Uiso   1.00
H353   H     0.82136   0.93372   0.24132   0.00000  Uiso   1.00
H354   H     0.68700   0.94257   0.33680   0.00000  Uiso   1.00
H355   H     0.95910   0.88499   0.24741   0.00000  Uiso   1.00
H356   H     0.80939   0.99229   0.15210   0.00000  Uiso   1.00
H357   H     0.55167   0.92289   0.42319   0.00000  Uiso   1.00
H358   H     0.12542   0.80149   0.23469   0.00000  Uiso   1.00
H359   H     0.80972   0.02775   0.03371   0.00000  Uiso   1.00
O360   O     0.51008   0.82739   0.41905   0.00000  Uiso   1.00
O361   O     0.26281   0.66812   0.17174   0.00000  Uiso   1.00
O362   O     0.84862   0.96497   0.90806   0.00000  Uiso   1.00
N363   N     0.63874   0.77302   0.31183   0.00000  Uiso   1.00
N364   N     0.17515   0.65951   0.13561   0.00000  Uiso   1.00
N365   N     0.88002   0.87105   0.94769   0.00000  Uiso   1.00
N366   N     0.59044   0.87764   0.38097   0.00000  Uiso   1.00
N367   N     0.12685   0.76413   0.20475   0.00000  Uiso   1.00
N368   N     0.83172   0.97566   0.01683   0.00000  Uiso   1.00
C369   C     0.23838   0.01151   0.71922   0.00000  Uiso   1.00
C370   C     0.30245   0.93117   0.67953   0.00000  Uiso   1.00
C371   C     0.36362   0.89775   0.60886   0.00000  Uiso   1.00
C372   C     0.41619   0.82371   0.58244   0.00000  Uiso   1.00
C373   C     0.51697   0.70492   0.51431   0.00000  Uiso   1.00
C374   C     0.25327   0.03020   0.77673   0.00000  Uiso   1.00
C375   C     0.27308   0.08006   0.78778   0.00000  Uiso   1.00
C376   C     0.28425   0.08940   0.84319   0.00000  Uiso   1.00
C377   C     0.30862   0.12440   0.92599   0.00000  Uiso   1.00
C378   C     0.14888   0.02378   0.75538   0.00000  Uiso   1.00
C379   C     0.08090   0.06825   0.74849   0.00000  Uiso   1.00
C380   C     0.00417   0.07219   0.78594   0.00000  Uiso   1.00
C381   C     0.86645   0.09721   0.83559   0.00000  Uiso   1.00
C382   C     0.22297   0.93945   0.79797   0.00000  Uiso   1.00
C383   C     0.29408   0.89203   0.72231   0.00000  Uiso   1.00
C384   C     0.34657   0.81803   0.69599   0.00000  Uiso   1.00
C385   C     0.40781   0.78450   0.62529   0.00000  Uiso   1.00
C386   C     0.24490   0.99107   0.81950   0.00000  Uiso   1.00
C387   C     0.25604   0.00034   0.87491   0.00000  Uiso   1.00
C388   C     0.27587   0.05019   0.88604   0.00000  Uiso   1.00
C389   C     0.14051   0.98464   0.79815   0.00000  Uiso   1.00
C390   C     0.06386   0.98852   0.83562   0.00000  Uiso   1.00
C391   C     0.99579   0.03298   0.82879   0.00000  Uiso   1.00
H392   H     0.24490   0.04198   0.68592   0.00000  Uiso   1.00
H393   H     0.37008   0.92805   0.57577   0.00000  Uiso   1.00
H394   H     0.27955   0.11034   0.75468   0.00000  Uiso   1.00
H395   H     0.08741   0.09852   0.71539   0.00000  Uiso   1.00
H396   H     0.50520   0.78449   0.47252   0.00000  Uiso   1.00
H397   H     0.31428   0.16887   0.84976   0.00000  Uiso   1.00
H398   H     0.90910   0.14395   0.76692   0.00000  Uiso   1.00
H399   H     0.21646   0.90898   0.83128   0.00000  Uiso   1.00
H400   H     0.34008   0.78775   0.72910   0.00000  Uiso   1.00
H401   H     0.24955   0.97005   0.90800   0.00000  Uiso   1.00
H402   H     0.05741   0.95823   0.86871   0.00000  Uiso   1.00
H403   H     0.48085   0.67061   0.59697   0.00000  Uiso   1.00
H404   H     0.28993   0.05501   0.97421   0.00000  Uiso   1.00
H405   H     0.88476   0.03008   0.89136   0.00000  Uiso   1.00
O406   O     0.57488   0.65020   0.46491   0.00000  Uiso   1.00
O407   O     0.32438   0.15452   0.95984   0.00000  Uiso   1.00
O408   O     0.79281   0.12181   0.85115   0.00000  Uiso   1.00
N409   N     0.48249   0.77432   0.51583   0.00000  Uiso   1.00
N410   N     0.30400   0.13370   0.86852   0.00000  Uiso   1.00
N411   N     0.92519   0.11041   0.79108   0.00000  Uiso   1.00
N412   N     0.46939   0.71305   0.58279   0.00000  Uiso   1.00
N413   N     0.29090   0.07242   0.93548   0.00000  Uiso   1.00
N414   N     0.91209   0.04913   0.85804   0.00000  Uiso   1.00
C415   C     0.22523   0.26289   0.35585   0.00000  Uiso   1.00
C416   C     0.29492   0.27767   0.31947   0.00000  Uiso   1.00
C417   C     0.36539   0.23834   0.25183   0.00000  Uiso   1.00
C418   C     0.42184   0.26047   0.22815   0.00000  Uiso   1.00
C419   C     0.53215   0.27437   0.16521   0.00000  Uiso   1.00
C420   C     0.22420   0.25435   0.42134   0.00000  Uiso   1.00
C421   C     0.23520   0.19542   0.43934   0.00000  Uiso   1.00
C422   C     0.23211   0.19794   0.50143   0.00000  Uiso   1.00
C423   C     0.23255   0.17566   0.59666   0.00000  Uiso   1.00
C424   C     0.13940   0.33151   0.38035   0.00000  Uiso   1.00
C425   C     0.07909   0.33746   0.36392   0.00000  Uiso   1.00
C426   C     0.00459   0.40493   0.39152   0.00000  Uiso   1.00
C427   C     0.87338   0.50245   0.42312   0.00000  Uiso   1.00
C428   C     0.20017   0.37213   0.43409   0.00000  Uiso   1.00
C429   C     0.28131   0.33700   0.36197   0.00000  Uiso   1.00
C430   C     0.33767   0.35920   0.33839   0.00000  Uiso   1.00
C431   C     0.40821   0.31992   0.27072   0.00000  Uiso   1.00
C432   C     0.21059   0.31368   0.46383   0.00000  Uiso   1.00
C433   C     0.20748   0.31629   0.52590   0.00000  Uiso   1.00
C434   C     0.21847   0.25738   0.54400   0.00000  Uiso   1.00
C435   C     0.12579   0.39085   0.42285   0.00000  Uiso   1.00
C436   C     0.05137   0.45832   0.45048   0.00000  Uiso   1.00
C437   C     0.99096   0.46437   0.43409   0.00000  Uiso   1.00
H438   H     0.23583   0.21669   0.32277   0.00000  Uiso   1.00
H439   H     0.37590   0.19242   0.21896   0.00000  Uiso   1.00
H440   H     0.24572   0.14952   0.40645   0.00000  Uiso   1.00
H441   H     0.08964   0.29153   0.33104   0.00000  Uiso   1.00
H442   H     0.52522   0.19166   0.12262   0.00000  Uiso   1.00
H443   H     0.25070   0.10121   0.51796   0.00000  Uiso   1.00
H444   H     0.92157   0.40066   0.35894   0.00000  Uiso   1.00
H445   H     0.18958   0.41833   0.46717   0.00000  Uiso   1.00
H446   H     0.32712   0.40512   0.37129   0.00000  Uiso   1.00
H447   H     0.19694   0.36222   0.55878   0.00000  Uiso   1.00
H448   H     0.04086   0.50423   0.48337   0.00000  Uiso   1.00
H449   H     0.48563   0.36430   0.24625   0.00000  Uiso   1.00
H450   H     0.21110   0.27384   0.64160   0.00000  Uiso   1.00
H451   H     0.88198   0.57330   0.48258   0.00000  Uiso   1.00
O452   O     0.59675   0.26564   0.11876   0.00000  Uiso   1.00
O453   O     0.23657   0.14697   0.63745   0.00000  Uiso   1.00
O454   O     0.80477   0.53985   0.42881   0.00000  Uiso   1.00
N455   N     0.49702   0.23411   0.16487   0.00000  Uiso   1.00
N456   N     0.24037   0.14954   0.53449   0.00000  Uiso   1.00
N457   N     0.93265   0.42950   0.38583   0.00000  Uiso   1.00
N458   N     0.47571   0.32701   0.23140   0.00000  Uiso   1.00
N459   N     0.21906   0.24243   0.60102   0.00000  Uiso   1.00
N460   N     0.91135   0.52239   0.45236   0.00000  Uiso   1.00
C461   C     0.49211   0.54271   0.04870   0.00000  Uiso   1.00
C462   C     0.52903   0.46292   0.02683   0.00000  Uiso   1.00
C463   C     0.48167   0.43245   0.04822   0.00000  Uiso   1.00
C464   C     0.52745   0.35841   0.02236   0.00000  Uiso   1.00
C465   C     0.57109   0.24090   0.99537   0.00000  Uiso   1.00
C466   C     0.53978   0.55525   0.08001   0.00000  Uiso   1.00
C467   C     0.50146   0.60241   0.14610   0.00000  Uiso   1.00
C468   C     0.55629   0.60610   0.16501   0.00000  Uiso   1.00
C469   C     0.61662   0.63197   0.22056   0.00000  Uiso   1.00
C470   C     0.52095   0.55700   0.98173   0.00000  Uiso   1.00
C471   C     0.46681   0.60565   0.96520   0.00000  Uiso   1.00
C472   C     0.50579   0.61082   0.90137   0.00000  Uiso   1.00
C473   C     0.53689   0.63940   0.80433   0.00000  Uiso   1.00
C474   C     0.65761   0.46542   0.96475   0.00000  Uiso   1.00
C475   C     0.61892   0.42094   0.98123   0.00000  Uiso   1.00
C476   C     0.66477   0.34693   0.95533   0.00000  Uiso   1.00
C477   C     0.61750   0.31635   0.97668   0.00000  Uiso   1.00
C478   C     0.62966   0.51327   0.03441   0.00000  Uiso   1.00
C479   C     0.68456   0.51689   0.05322   0.00000  Uiso   1.00
C480   C     0.64634   0.56404   0.11933   0.00000  Uiso   1.00
C481   C     0.61084   0.51501   0.93613   0.00000  Uiso   1.00
C482   C     0.64991   0.52012   0.87231   0.00000  Uiso   1.00
C483   C     0.59584   0.56876   0.85569   0.00000  Uiso   1.00
H484   H     0.42213   0.57540   0.08420   0.00000  Uiso   1.00
H485   H     0.41211   0.46496   0.08351   0.00000  Uiso   1.00
H486   H     0.43190   0.63490   0.18138   0.00000  Uiso   1.00
H487   H     0.39725   0.63813   0.00050   0.00000  Uiso   1.00
H488   H     0.44065   0.32399   0.06266   0.00000  Uiso   1.00
H489   H     0.48236   0.68234   0.26900   0.00000  Uiso   1.00
H490   H     0.40930   0.68915   0.88759   0.00000  Uiso   1.00
H491   H     0.72759   0.43273   0.92925   0.00000  Uiso   1.00
H492   H     0.73433   0.31445   0.92005   0.00000  Uiso   1.00
H493   H     0.75412   0.48439   0.01792   0.00000  Uiso   1.00
H494   H     0.71947   0.48762   0.83704   0.00000  Uiso   1.00
H495   H     0.70217   0.20183   0.92999   0.00000  Uiso   1.00
H496   H     0.74389   0.56019   0.13633   0.00000  Uiso   1.00
H497   H     0.67083   0.56699   0.75492   0.00000  Uiso   1.00
O498   O     0.57034   0.18768   0.99309   0.00000  Uiso   1.00
O499   O     0.62507   0.65783   0.26380   0.00000  Uiso   1.00
O500   O     0.52921   0.66676   0.76339   0.00000  Uiso   1.00
N501   N     0.50127   0.31147   0.03269   0.00000  Uiso   1.00
N502   N     0.54027   0.64650   0.22561   0.00000  Uiso   1.00
N503   N     0.47197   0.65288   0.86903   0.00000  Uiso   1.00
N504   N     0.64200   0.24574   0.96130   0.00000  Uiso   1.00
N505   N     0.68100   0.58077   0.15422   0.00000  Uiso   1.00
N506   N     0.61270   0.58715   0.79764   0.00000  Uiso   1.00
C507   C     0.81015   0.84433   0.73959   0.00000  Uiso   1.00
C508   C     0.75924   0.88396   0.81783   0.00000  Uiso   1.00
C509   C     0.72222   0.95591   0.85122   0.00000  Uiso   1.00
C510   C     0.67830   0.98203   0.92316   0.00000  Uiso   1.00
C511   C     0.60030   0.05030   0.03900   0.00000  Uiso   1.00
C512   C     0.89801   0.78244   0.72104   0.00000  Uiso   1.00
C513   C     0.97765   0.76903   0.67303   0.00000  Uiso   1.00
C514   C     0.05054   0.70968   0.66349   0.00000  Uiso   1.00
C515   C     0.18798   0.62030   0.62902   0.00000  Uiso   1.00
C516   C     0.76486   0.81070   0.72678   0.00000  Uiso   1.00
C517   C     0.73257   0.82102   0.68357   0.00000  Uiso   1.00
C518   C     0.69338   0.78545   0.67885   0.00000  Uiso   1.00
C519   C     0.62408   0.73995   0.65328   0.00000  Uiso   1.00
C520   C     0.79798   0.76277   0.80800   0.00000  Uiso   1.00
C521   C     0.75264   0.83966   0.85499   0.00000  Uiso   1.00
C522   C     0.70876   0.86568   0.92690   0.00000  Uiso   1.00
C523   C     0.67167   0.93766   0.96039   0.00000  Uiso   1.00
C524   C     0.89140   0.73814   0.75820   0.00000  Uiso   1.00
C525   C     0.96419   0.67880   0.74872   0.00000  Uiso   1.00
C526   C     0.04392   0.66530   0.70072   0.00000  Uiso   1.00
C527   C     0.75825   0.76640   0.76393   0.00000  Uiso   1.00
C528   C     0.71911   0.73080   0.75927   0.00000  Uiso   1.00
C529   C     0.68676   0.74108   0.71607   0.00000  Uiso   1.00
H530   H     0.81530   0.87881   0.71066   0.00000  Uiso   1.00
H531   H     0.72735   0.99017   0.82244   0.00000  Uiso   1.00
H532   H     0.98275   0.80331   0.64428   0.00000  Uiso   1.00
H533   H     0.73770   0.85531   0.65483   0.00000  Uiso   1.00
H534   H     0.62697   0.09409   0.96276   0.00000  Uiso   1.00
H535   H     0.16547   0.70008   0.58708   0.00000  Uiso   1.00
H536   H     0.64875   0.80972   0.60932   0.00000  Uiso   1.00
H537   H     0.79284   0.72828   0.83693   0.00000  Uiso   1.00
H538   H     0.70365   0.83139   0.95565   0.00000  Uiso   1.00
H539   H     0.95905   0.64453   0.77748   0.00000  Uiso   1.00
H540   H     0.71400   0.69653   0.78803   0.00000  Uiso   1.00
H541   H     0.60773   0.96522   0.07087   0.00000  Uiso   1.00
H542   H     0.14624   0.57120   0.69519   0.00000  Uiso   1.00
H543   H     0.62951   0.68084   0.71743   0.00000  Uiso   1.00
O544   O     0.55911   0.10019   0.09263   0.00000  Uiso   1.00
O545   O     0.26561   0.58325   0.59975   0.00000  Uiso   1.00
O546   O     0.58768   0.72710   0.62893   0.00000  Uiso   1.00
N547   N     0.63466   0.04962   0.97191   0.00000  Uiso   1.00
N548   N     0.13814   0.68124   0.62068   0.00000  Uiso   1.00
N549   N     0.65506   0.78373   0.64146   0.00000  Uiso   1.00
N550   N     0.62431   0.98027   0.03009   0.00000  Uiso   1.00
N551   N     0.12779   0.61189   0.67886   0.00000  Uiso   1.00
N552   N     0.64471   0.71439   0.69963   0.00000  Uiso   1.00
