data_job_06392
_audit_creation_date              2018-12-19
_audit_creation_method            'Materials Studio'
_symmetry_space_group_name_H-M    'P1'
_symmetry_Int_Tables_number       1
_symmetry_cell_setting            triclinic
loop_
_symmetry_equiv_pos_as_xyz
  x,y,z
_cell_length_a                    12.5063
_cell_length_b                    20.5147
_cell_length_c                    20.5822
_cell_angle_alpha                 63.4680
_cell_angle_beta                  79.8155
_cell_angle_gamma                 100.1268
loop_
_atom_site_label
_atom_site_type_symbol
_atom_site_fract_x
_atom_site_fract_y
_atom_site_fract_z
_atom_site_U_iso_or_equiv
_atom_site_adp_type
_atom_site_occupancy
C1     C     0.91578   0.02899   0.47998   0.00000  Uiso   1.00
C2     C     0.83550   0.07059   0.44221   0.00000  Uiso   1.00
C3     C     0.78704   0.05965   0.39085   0.00000  Uiso   1.00
C4     C     0.71590   0.10329   0.36272   0.00000  Uiso   1.00
C5     C     0.59460   0.15990   0.30063   0.00000  Uiso   1.00
C6     C     0.02300   0.09067   0.46084   0.00000  Uiso   1.00
C7     C     0.13219   0.09659   0.42516   0.00000  Uiso   1.00
C8     C     0.21889   0.15712   0.41273   0.00000  Uiso   1.00
C9     C     0.38870   0.24486   0.37962   0.00000  Uiso   1.00
C10    C     0.86133   0.99217   0.56522   0.00000  Uiso   1.00
C11    C     0.83462   0.91529   0.61730   0.00000  Uiso   1.00
C12    C     0.78522   0.89290   0.69275   0.00000  Uiso   1.00
C13    C     0.70402   0.82772   0.82170   0.00000  Uiso   1.00
C14    C     0.87561   0.12595   0.52135   0.00000  Uiso   1.00
C15    C     0.81368   0.12326   0.46468   0.00000  Uiso   1.00
C16    C     0.74259   0.16692   0.43663   0.00000  Uiso   1.00
C17    C     0.69403   0.15604   0.38524   0.00000  Uiso   1.00
C18    C     0.00118   0.14333   0.48332   0.00000  Uiso   1.00
C19    C     0.08774   0.20386   0.47094   0.00000  Uiso   1.00
C20    C     0.19703   0.20988   0.43525   0.00000  Uiso   1.00
C21    C     0.83951   0.04484   0.58770   0.00000  Uiso   1.00
C22    C     0.79016   0.02256   0.66308   0.00000  Uiso   1.00
C23    C     0.76336   0.94566   0.71527   0.00000  Uiso   1.00
H24    H     0.93278   0.98799   0.46248   0.00000  Uiso   1.00
H25    H     0.80396   0.01889   0.37347   0.00000  Uiso   1.00
H26    H     0.14905   0.05582   0.40778   0.00000  Uiso   1.00
H27    H     0.85152   0.87455   0.59989   0.00000  Uiso   1.00
H28    H     0.65154   0.07639   0.28467   0.00000  Uiso   1.00
H29    H     0.37920   0.15425   0.35705   0.00000  Uiso   1.00
H30    H     0.75179   0.77200   0.76215   0.00000  Uiso   1.00
H31    H     0.85862   0.16695   0.53885   0.00000  Uiso   1.00
H32    H     0.72572   0.20767   0.45403   0.00000  Uiso   1.00
H33    H     0.07082   0.24460   0.48834   0.00000  Uiso   1.00
H34    H     0.77329   0.06333   0.68045   0.00000  Uiso   1.00
H35    H     0.58804   0.22962   0.35006   0.00000  Uiso   1.00
H36    H     0.31571   0.30747   0.42244   0.00000  Uiso   1.00
H37    H     0.68829   0.92522   0.82754   0.00000  Uiso   1.00
O38    O     0.53373   0.17658   0.26017   0.00000  Uiso   1.00
O39    O     0.48840   0.27871   0.35515   0.00000  Uiso   1.00
O40    O     0.66524   0.77721   0.88662   0.00000  Uiso   1.00
N41    N     0.65482   0.10686   0.31171   0.00000  Uiso   1.00
N42    N     0.33513   0.17965   0.37937   0.00000  Uiso   1.00
N43    N     0.74858   0.82228   0.75811   0.00000  Uiso   1.00
N44    N     0.62065   0.18930   0.34690   0.00000  Uiso   1.00
N45    N     0.30097   0.26210   0.41456   0.00000  Uiso   1.00
N46    N     0.71442   0.90473   0.79329   0.00000  Uiso   1.00
C47    C     0.87892   0.48987   0.02986   0.00000  Uiso   1.00
C48    C     0.76163   0.48783   0.06865   0.00000  Uiso   1.00
C49    C     0.72371   0.55079   0.05662   0.00000  Uiso   1.00
C50    C     0.61359   0.53694   0.09766   0.00000  Uiso   1.00
C51    C     0.44207   0.54505   0.15014   0.00000  Uiso   1.00
C52    C     0.92845   0.44673   0.09346   0.00000  Uiso   1.00
C53    C     0.03082   0.47515   0.10229   0.00000  Uiso   1.00
C54    C     0.06113   0.42671   0.16421   0.00000  Uiso   1.00
C55    C     0.14866   0.37100   0.25518   0.00000  Uiso   1.00
C56    C     0.85887   0.44147   0.99207   0.00000  Uiso   1.00
C57    C     0.90274   0.46545   0.91564   0.00000  Uiso   1.00
C58    C     0.87450   0.41257   0.89220   0.00000  Uiso   1.00
C59    C     0.85397   0.34869   0.82573   0.00000  Uiso   1.00
C60    C     0.75077   0.35330   0.12413   0.00000  Uiso   1.00
C61    C     0.69202   0.41364   0.11986   0.00000  Uiso   1.00
C62    C     0.58193   0.39969   0.16093   0.00000  Uiso   1.00
C63    C     0.54386   0.46263   0.14896   0.00000  Uiso   1.00
C64    C     0.85885   0.37256   0.14467   0.00000  Uiso   1.00
C65    C     0.88903   0.32405   0.20659   0.00000  Uiso   1.00
C66    C     0.99140   0.35239   0.21551   0.00000  Uiso   1.00
C67    C     0.78926   0.36729   0.04327   0.00000  Uiso   1.00
C68    C     0.76095   0.31436   0.01994   0.00000  Uiso   1.00
C69    C     0.80476   0.33825   0.94350   0.00000  Uiso   1.00
H70    H     0.93312   0.54762   0.98999   0.00000  Uiso   1.00
H71    H     0.77761   0.60819   0.01700   0.00000  Uiso   1.00
H72    H     0.08467   0.53256   0.06265   0.00000  Uiso   1.00
H73    H     0.95661   0.52286   0.87603   0.00000  Uiso   1.00
H74    H     0.57452   0.64263   0.06953   0.00000  Uiso   1.00
H75    H     0.22199   0.48314   0.16578   0.00000  Uiso   1.00
H76    H     0.95195   0.46270   0.77226   0.00000  Uiso   1.00
H77    H     0.69658   0.29555   0.16400   0.00000  Uiso   1.00
H78    H     0.52808   0.34228   0.20055   0.00000  Uiso   1.00
H79    H     0.83514   0.26665   0.24620   0.00000  Uiso   1.00
H80    H     0.70708   0.25696   0.05959   0.00000  Uiso   1.00
H81    H     0.37199   0.42681   0.21852   0.00000  Uiso   1.00
H82    H     0.01947   0.26732   0.31476   0.00000  Uiso   1.00
H83    H     0.74942   0.24688   0.92124   0.00000  Uiso   1.00
O84    O     0.36670   0.57001   0.16495   0.00000  Uiso   1.00
O85    O     0.21616   0.36077   0.29121   0.00000  Uiso   1.00
O86    O     0.86186   0.33395   0.77492   0.00000  Uiso   1.00
N87    N     0.54997   0.58542   0.09957   0.00000  Uiso   1.00
N88    N     0.15531   0.43632   0.18956   0.00000  Uiso   1.00
N89    N     0.90287   0.41720   0.82166   0.00000  Uiso   1.00
N90    N     0.44099   0.46929   0.17974   0.00000  Uiso   1.00
N91    N     0.04633   0.32019   0.26973   0.00000  Uiso   1.00
N92    N     0.79389   0.30107   0.90182   0.00000  Uiso   1.00
C93    C     0.39020   0.47996   0.49131   0.00000  Uiso   1.00
C94    C     0.27630   0.44471   0.48608   0.00000  Uiso   1.00
C95    C     0.18136   0.39519   0.54702   0.00000  Uiso   1.00
C96    C     0.08531   0.36923   0.53037   0.00000  Uiso   1.00
C97    C     0.90861   0.31100   0.53365   0.00000  Uiso   1.00
C98    C     0.47856   0.45805   0.45014   0.00000  Uiso   1.00
C99    C     0.55370   0.41974   0.48087   0.00000  Uiso   1.00
C100   C     0.62793   0.40502   0.43396   0.00000  Uiso   1.00
C101   C     0.76531   0.36754   0.38143   0.00000  Uiso   1.00
C102   C     0.41455   0.56588   0.44318   0.00000  Uiso   1.00
C103   C     0.43590   0.61825   0.46805   0.00000  Uiso   1.00
C104   C     0.45627   0.69431   0.41527   0.00000  Uiso   1.00
C105   C     0.49426   0.82425   0.35192   0.00000  Uiso   1.00
C106   C     0.38846   0.52192   0.35337   0.00000  Uiso   1.00
C107   C     0.27536   0.46750   0.41115   0.00000  Uiso   1.00
C108   C     0.17943   0.44161   0.39440   0.00000  Uiso   1.00
C109   C     0.08436   0.39206   0.45531   0.00000  Uiso   1.00
C110   C     0.47762   0.48083   0.37522   0.00000  Uiso   1.00
C111   C     0.55177   0.46617   0.32825   0.00000  Uiso   1.00
C112   C     0.62699   0.42785   0.35890   0.00000  Uiso   1.00
C113   C     0.41361   0.58867   0.36826   0.00000  Uiso   1.00
C114   C     0.43396   0.66467   0.31543   0.00000  Uiso   1.00
C115   C     0.45532   0.71714   0.34020   0.00000  Uiso   1.00
H116   H     0.39094   0.46222   0.54964   0.00000  Uiso   1.00
H117   H     0.18212   0.37756   0.60500   0.00000  Uiso   1.00
H118   H     0.55442   0.40212   0.53885   0.00000  Uiso   1.00
H119   H     0.43662   0.60059   0.52603   0.00000  Uiso   1.00
H120   H     0.95021   0.29373   0.63333   0.00000  Uiso   1.00
H121   H     0.73523   0.34554   0.49385   0.00000  Uiso   1.00
H122   H     0.48684   0.76405   0.46681   0.00000  Uiso   1.00
H123   H     0.38773   0.53966   0.29503   0.00000  Uiso   1.00
H124   H     0.17872   0.45926   0.33642   0.00000  Uiso   1.00
H125   H     0.55102   0.48381   0.27027   0.00000  Uiso   1.00
H126   H     0.43322   0.68228   0.25745   0.00000  Uiso   1.00
H127   H     0.94745   0.36004   0.41534   0.00000  Uiso   1.00
H128   H     0.73248   0.41185   0.27585   0.00000  Uiso   1.00
H129   H     0.48408   0.83036   0.24882   0.00000  Uiso   1.00
O130   O     0.81142   0.27258   0.55615   0.00000  Uiso   1.00
O131   O     0.84134   0.34056   0.37315   0.00000  Uiso   1.00
O132   O     0.51546   0.88963   0.33768   0.00000  Uiso   1.00
N133   N     0.97824   0.32039   0.57635   0.00000  Uiso   1.00
N134   N     0.71217   0.36881   0.44594   0.00000  Uiso   1.00
N135   N     0.47998   0.76009   0.42066   0.00000  Uiso   1.00
N136   N     0.97675   0.35606   0.45905   0.00000  Uiso   1.00
N137   N     0.71068   0.40449   0.32864   0.00000  Uiso   1.00
N138   N     0.47850   0.79576   0.30336   0.00000  Uiso   1.00
C139   C     0.41579   0.51993   0.97076   0.00000  Uiso   1.00
C140   C     0.33551   0.55780   0.92928   0.00000  Uiso   1.00
C141   C     0.28707   0.60941   0.94009   0.00000  Uiso   1.00
C142   C     0.21592   0.63759   0.89660   0.00000  Uiso   1.00
C143   C     0.09462   0.69986   0.84014   0.00000  Uiso   1.00
C144   C     0.52300   0.53900   0.90927   0.00000  Uiso   1.00
C145   C     0.63220   0.57478   0.90327   0.00000  Uiso   1.00
C146   C     0.71888   0.58712   0.84294   0.00000  Uiso   1.00
C147   C     0.88868   0.62015   0.75546   0.00000  Uiso   1.00
C148   C     0.36133   0.43442   0.00760   0.00000  Uiso   1.00
C149   C     0.33462   0.38227   0.08428   0.00000  Uiso   1.00
C150   C     0.28521   0.30657   0.10673   0.00000  Uiso   1.00
C151   C     0.20399   0.17722   0.17192   0.00000  Uiso   1.00
C152   C     0.37558   0.47821   0.87430   0.00000  Uiso   1.00
C153   C     0.31367   0.53513   0.87688   0.00000  Uiso   1.00
C154   C     0.24257   0.56324   0.83337   0.00000  Uiso   1.00
C155   C     0.19403   0.61488   0.84411   0.00000  Uiso   1.00
C156   C     0.50116   0.51633   0.85688   0.00000  Uiso   1.00
C157   C     0.58770   0.52862   0.79655   0.00000  Uiso   1.00
C158   C     0.69700   0.56442   0.79045   0.00000  Uiso   1.00
C159   C     0.33948   0.41175   0.95521   0.00000  Uiso   1.00
C160   C     0.29012   0.33611   0.97755   0.00000  Uiso   1.00
C161   C     0.26333   0.28386   0.05424   0.00000  Uiso   1.00
H162   H     0.43281   0.53758   0.01154   0.00000  Uiso   1.00
H163   H     0.30400   0.62694   0.98064   0.00000  Uiso   1.00
H164   H     0.64908   0.59231   0.94383   0.00000  Uiso   1.00
H165   H     0.35153   0.39983   0.12480   0.00000  Uiso   1.00
H166   H     0.15159   0.71604   0.92325   0.00000  Uiso   1.00
H167   H     0.87921   0.64300   0.84565   0.00000  Uiso   1.00
H168   H     0.25179   0.23712   0.22727   0.00000  Uiso   1.00
H169   H     0.35857   0.46056   0.83350   0.00000  Uiso   1.00
H170   H     0.22568   0.54569   0.79283   0.00000  Uiso   1.00
H171   H     0.57077   0.51107   0.75602   0.00000  Uiso   1.00
H172   H     0.27322   0.31859   0.93699   0.00000  Uiso   1.00
H173   H     0.08803   0.65010   0.77081   0.00000  Uiso   1.00
H174   H     0.81565   0.57705   0.69322   0.00000  Uiso   1.00
H175   H     0.18823   0.17118   0.07483   0.00000  Uiso   1.00
O176   O     0.03376   0.74048   0.82346   0.00000  Uiso   1.00
O177   O     0.98837   0.64464   0.72167   0.00000  Uiso   1.00
O178   O     0.16521   0.11214   0.22235   0.00000  Uiso   1.00
N179   N     0.15485   0.68882   0.89296   0.00000  Uiso   1.00
N180   N     0.83513   0.62055   0.82041   0.00000  Uiso   1.00
N181   N     0.24857   0.24108   0.17719   0.00000  Uiso   1.00
N182   N     0.12065   0.65334   0.81094   0.00000  Uiso   1.00
N183   N     0.80093   0.58506   0.73838   0.00000  Uiso   1.00
N184   N     0.21437   0.20560   0.09516   0.00000  Uiso   1.00
C185   C     0.37894   0.97046   0.51004   0.00000  Uiso   1.00
C186   C     0.26163   0.93154   0.51218   0.00000  Uiso   1.00
C187   C     0.22370   0.94351   0.44947   0.00000  Uiso   1.00
C188   C     0.11357   0.90235   0.46337   0.00000  Uiso   1.00
C189   C     0.94203   0.84969   0.45545   0.00000  Uiso   1.00
C190   C     0.42846   0.90665   0.55310   0.00000  Uiso   1.00
C191   C     0.53082   0.89771   0.52479   0.00000  Uiso   1.00
C192   C     0.56113   0.83561   0.57315   0.00000  Uiso   1.00
C193   C     0.64864   0.74435   0.62878   0.00000  Uiso   1.00
C194   C     0.35891   0.00851   0.55817   0.00000  Uiso   1.00
C195   C     0.40280   0.08520   0.53412   0.00000  Uiso   1.00
C196   C     0.37457   0.10885   0.58675   0.00000  Uiso   1.00
C197   C     0.35409   0.17573   0.65024   0.00000  Uiso   1.00
C198   C     0.25079   0.87609   0.64625   0.00000  Uiso   1.00
C199   C     0.19203   0.88028   0.58617   0.00000  Uiso   1.00
C200   C     0.08193   0.83910   0.60018   0.00000  Uiso   1.00
C201   C     0.04384   0.85101   0.53749   0.00000  Uiso   1.00
C202   C     0.35887   0.85540   0.62709   0.00000  Uiso   1.00
C203   C     0.38904   0.79330   0.67550   0.00000  Uiso   1.00
C204   C     0.49140   0.78426   0.64727   0.00000  Uiso   1.00
C205   C     0.28930   0.95725   0.63216   0.00000  Uiso   1.00
C206   C     0.26102   0.98079   0.68483   0.00000  Uiso   1.00
C207   C     0.30485   0.05750   0.66087   0.00000  Uiso   1.00
H208   H     0.43313   0.01036   0.45243   0.00000  Uiso   1.00
H209   H     0.27760   0.98317   0.39222   0.00000  Uiso   1.00
H210   H     0.58466   0.93739   0.46754   0.00000  Uiso   1.00
H211   H     0.45666   0.12484   0.47686   0.00000  Uiso   1.00
H212   H     0.07448   0.93040   0.35809   0.00000  Uiso   1.00
H213   H     0.72196   0.83388   0.51691   0.00000  Uiso   1.00
H214   H     0.45205   0.22917   0.53658   0.00000  Uiso   1.00
H215   H     0.19661   0.83618   0.70386   0.00000  Uiso   1.00
H216   H     0.02809   0.79944   0.65744   0.00000  Uiso   1.00
H217   H     0.33516   0.75365   0.73276   0.00000  Uiso   1.00
H218   H     0.20715   0.94111   0.74208   0.00000  Uiso   1.00
H219   H     0.87197   0.78128   0.57335   0.00000  Uiso   1.00
H220   H     0.51946   0.68475   0.73217   0.00000  Uiso   1.00
H221   H     0.24954   0.08004   0.75184   0.00000  Uiso   1.00
O222   O     0.86665   0.83479   0.43064   0.00000  Uiso   1.00
O223   O     0.71614   0.70817   0.63901   0.00000  Uiso   1.00
O224   O     0.36200   0.22677   0.66482   0.00000  Uiso   1.00
N225   N     0.04994   0.90036   0.41512   0.00000  Uiso   1.00
N226   N     0.65529   0.81011   0.56360   0.00000  Uiso   1.00
N227   N     0.40296   0.17967   0.58200   0.00000  Uiso   1.00
N228   N     0.94097   0.82012   0.53095   0.00000  Uiso   1.00
N229   N     0.54632   0.72987   0.67943   0.00000  Uiso   1.00
N230   N     0.29399   0.09942   0.69783   0.00000  Uiso   1.00
C231   C     0.89017   0.50843   0.52035   0.00000  Uiso   1.00
C232   C     0.77628   0.51379   0.55548   0.00000  Uiso   1.00
C233   C     0.68134   0.45272   0.60494   0.00000  Uiso   1.00
C234   C     0.58531   0.46951   0.63079   0.00000  Uiso   1.00
C235   C     0.40863   0.46639   0.68883   0.00000  Uiso   1.00
C236   C     0.97856   0.54979   0.54208   0.00000  Uiso   1.00
C237   C     0.05369   0.51899   0.58026   0.00000  Uiso   1.00
C238   C     0.12795   0.56611   0.59481   0.00000  Uiso   1.00
C239   C     0.26535   0.61890   0.63199   0.00000  Uiso   1.00
C240   C     0.91452   0.55659   0.43470   0.00000  Uiso   1.00
C241   C     0.93584   0.53152   0.38259   0.00000  Uiso   1.00
C242   C     0.95620   0.58436   0.30673   0.00000  Uiso   1.00
C243   C     0.99417   0.64771   0.17720   0.00000  Uiso   1.00
C244   C     0.88846   0.64688   0.47830   0.00000  Uiso   1.00
C245   C     0.77536   0.58899   0.53264   0.00000  Uiso   1.00
C246   C     0.67945   0.60589   0.55841   0.00000  Uiso   1.00
C247   C     0.58438   0.54485   0.60790   0.00000  Uiso   1.00
C248   C     0.97763   0.62499   0.51924   0.00000  Uiso   1.00
C249   C     0.05180   0.67216   0.53373   0.00000  Uiso   1.00
C250   C     0.12702   0.64144   0.57193   0.00000  Uiso   1.00
C251   C     0.91359   0.63179   0.41186   0.00000  Uiso   1.00
C252   C     0.93393   0.68469   0.33607   0.00000  Uiso   1.00
C253   C     0.95527   0.65970   0.28385   0.00000  Uiso   1.00
H254   H     0.89090   0.44989   0.53814   0.00000  Uiso   1.00
H255   H     0.68210   0.39453   0.62261   0.00000  Uiso   1.00
H256   H     0.05440   0.46080   0.59792   0.00000  Uiso   1.00
H257   H     0.93655   0.47332   0.40029   0.00000  Uiso   1.00
H258   H     0.45020   0.36631   0.70621   0.00000  Uiso   1.00
H259   H     0.23524   0.50605   0.65412   0.00000  Uiso   1.00
H260   H     0.98674   0.53246   0.23738   0.00000  Uiso   1.00
H261   H     0.88774   0.70542   0.46052   0.00000  Uiso   1.00
H262   H     0.67875   0.66408   0.54073   0.00000  Uiso   1.00
H263   H     0.05106   0.73035   0.51604   0.00000  Uiso   1.00
H264   H     0.93321   0.74287   0.31841   0.00000  Uiso   1.00
H265   H     0.44749   0.58509   0.63975   0.00000  Uiso   1.00
H266   H     0.23254   0.72483   0.58767   0.00000  Uiso   1.00
H267   H     0.98403   0.75124   0.17092   0.00000  Uiso   1.00
O268   O     0.31143   0.44389   0.72716   0.00000  Uiso   1.00
O269   O     0.34139   0.62723   0.65882   0.00000  Uiso   1.00
O270   O     0.01536   0.66187   0.11206   0.00000  Uiso   1.00
N271   N     0.47823   0.42347   0.67955   0.00000  Uiso   1.00
N272   N     0.21219   0.55412   0.63086   0.00000  Uiso   1.00
N273   N     0.97989   0.57881   0.24124   0.00000  Uiso   1.00
N274   N     0.47677   0.54120   0.64379   0.00000  Uiso   1.00
N275   N     0.21073   0.67185   0.59511   0.00000  Uiso   1.00
N276   N     0.97843   0.69654   0.20548   0.00000  Uiso   1.00
