data_job_03097
_audit_creation_date              2018-12-19
_audit_creation_method            'Materials Studio'
_symmetry_space_group_name_H-M    'P1'
_symmetry_Int_Tables_number       1
_symmetry_cell_setting            triclinic
loop_
_symmetry_equiv_pos_as_xyz
  x,y,z
_cell_length_a                    17.8584
_cell_length_b                    17.8584
_cell_length_c                    16.4341
_cell_angle_alpha                 90.0000
_cell_angle_beta                  90.0000
_cell_angle_gamma                 90.0000
loop_
_atom_site_label
_atom_site_type_symbol
_atom_site_fract_x
_atom_site_fract_y
_atom_site_fract_z
_atom_site_U_iso_or_equiv
_atom_site_adp_type
_atom_site_occupancy
C1     C     0.44208   0.62814   0.26264   0.00000  Uiso   1.00
C2     C     0.45595   0.70354   0.22177   0.00000  Uiso   1.00
C3     C     0.52527   0.73175   0.19903   0.00000  Uiso   1.00
C4     C     0.52613   0.80182   0.16245   0.00000  Uiso   1.00
C5     C     0.55773   0.91277   0.10105   0.00000  Uiso   1.00
C6     C     0.39999   0.64524   0.34121   0.00000  Uiso   1.00
C7     C     0.42226   0.62443   0.41890   0.00000  Uiso   1.00
C8     C     0.37601   0.64543   0.48286   0.00000  Uiso   1.00
C9     C     0.32070   0.66582   0.60689   0.00000  Uiso   1.00
C10    C     0.38689   0.58655   0.20815   0.00000  Uiso   1.00
C11    C     0.39812   0.51638   0.17397   0.00000  Uiso   1.00
C12    C     0.34084   0.48796   0.12593   0.00000  Uiso   1.00
C13    C     0.26518   0.41723   0.04335   0.00000  Uiso   1.00
C14    C     0.32036   0.70242   0.23812   0.00000  Uiso   1.00
C15    C     0.38983   0.74388   0.20845   0.00000  Uiso   1.00
C16    C     0.39059   0.81393   0.17189   0.00000  Uiso   1.00
C17    C     0.45990   0.84224   0.14910   0.00000  Uiso   1.00
C18    C     0.33388   0.68559   0.32789   0.00000  Uiso   1.00
C19    C     0.28758   0.70661   0.39176   0.00000  Uiso   1.00
C20    C     0.30978   0.68584   0.46952   0.00000  Uiso   1.00
C21    C     0.32077   0.62690   0.19482   0.00000  Uiso   1.00
C22    C     0.26345   0.59857   0.14683   0.00000  Uiso   1.00
C23    C     0.27460   0.52837   0.11258   0.00000  Uiso   1.00
H24    H     0.49355   0.59673   0.27302   0.00000  Uiso   1.00
H25    H     0.57642   0.70051   0.20936   0.00000  Uiso   1.00
H26    H     0.47342   0.59320   0.42918   0.00000  Uiso   1.00
H27    H     0.44930   0.48518   0.18429   0.00000  Uiso   1.00
H28    H     0.63914   0.83338   0.13293   0.00000  Uiso   1.00
H29    H     0.42195   0.60709   0.59644   0.00000  Uiso   1.00
H30    H     0.37107   0.37929   0.08005   0.00000  Uiso   1.00
H31    H     0.26888   0.73383   0.22774   0.00000  Uiso   1.00
H32    H     0.33942   0.84514   0.16159   0.00000  Uiso   1.00
H33    H     0.23642   0.73783   0.38142   0.00000  Uiso   1.00
H34    H     0.21229   0.62980   0.13653   0.00000  Uiso   1.00
H35    H     0.44678   0.95076   0.09416   0.00000  Uiso   1.00
H36    H     0.22959   0.72447   0.55768   0.00000  Uiso   1.00
H37    H     0.17871   0.49668   0.04128   0.00000  Uiso   1.00
O38    O     0.59342   0.96283   0.07087   0.00000  Uiso   1.00
O39    O     0.30847   0.66593   0.67898   0.00000  Uiso   1.00
O40    O     0.24172   0.36707   0.00148   0.00000  Uiso   1.00
N41    N     0.58419   0.84572   0.13287   0.00000  Uiso   1.00
N42    N     0.38113   0.63417   0.56623   0.00000  Uiso   1.00
N43    N     0.33356   0.42119   0.08346   0.00000  Uiso   1.00
N44    N     0.48068   0.90889   0.11201   0.00000  Uiso   1.00
N45    N     0.27763   0.69733   0.54537   0.00000  Uiso   1.00
N46    N     0.23005   0.48435   0.06260   0.00000  Uiso   1.00
C47    C     0.94208   0.12814   0.76264   0.00000  Uiso   1.00
C48    C     0.95595   0.20354   0.72177   0.00000  Uiso   1.00
C49    C     0.02527   0.23175   0.69903   0.00000  Uiso   1.00
C50    C     0.02613   0.30182   0.66245   0.00000  Uiso   1.00
C51    C     0.05773   0.41277   0.60105   0.00000  Uiso   1.00
C52    C     0.89999   0.14524   0.84121   0.00000  Uiso   1.00
C53    C     0.92226   0.12443   0.91890   0.00000  Uiso   1.00
C54    C     0.87601   0.14543   0.98286   0.00000  Uiso   1.00
C55    C     0.82070   0.16582   0.10689   0.00000  Uiso   1.00
C56    C     0.88689   0.08655   0.70815   0.00000  Uiso   1.00
C57    C     0.89812   0.01638   0.67397   0.00000  Uiso   1.00
C58    C     0.84084   0.98796   0.62593   0.00000  Uiso   1.00
C59    C     0.76518   0.91723   0.54335   0.00000  Uiso   1.00
C60    C     0.82036   0.20242   0.73812   0.00000  Uiso   1.00
C61    C     0.88983   0.24388   0.70845   0.00000  Uiso   1.00
C62    C     0.89059   0.31393   0.67189   0.00000  Uiso   1.00
C63    C     0.95990   0.34224   0.64910   0.00000  Uiso   1.00
C64    C     0.83388   0.18559   0.82789   0.00000  Uiso   1.00
C65    C     0.78758   0.20661   0.89176   0.00000  Uiso   1.00
C66    C     0.80978   0.18584   0.96952   0.00000  Uiso   1.00
C67    C     0.82077   0.12690   0.69482   0.00000  Uiso   1.00
C68    C     0.76345   0.09857   0.64683   0.00000  Uiso   1.00
C69    C     0.77460   0.02837   0.61258   0.00000  Uiso   1.00
H70    H     0.99355   0.09673   0.77302   0.00000  Uiso   1.00
H71    H     0.07642   0.20051   0.70936   0.00000  Uiso   1.00
H72    H     0.97342   0.09320   0.92918   0.00000  Uiso   1.00
H73    H     0.94930   0.98518   0.68429   0.00000  Uiso   1.00
H74    H     0.13914   0.33338   0.63293   0.00000  Uiso   1.00
H75    H     0.92195   0.10709   0.09644   0.00000  Uiso   1.00
H76    H     0.87107   0.87929   0.58005   0.00000  Uiso   1.00
H77    H     0.76888   0.23383   0.72774   0.00000  Uiso   1.00
H78    H     0.83942   0.34514   0.66159   0.00000  Uiso   1.00
H79    H     0.73642   0.23783   0.88142   0.00000  Uiso   1.00
H80    H     0.71229   0.12980   0.63653   0.00000  Uiso   1.00
H81    H     0.94678   0.45076   0.59416   0.00000  Uiso   1.00
H82    H     0.72959   0.22447   0.05768   0.00000  Uiso   1.00
H83    H     0.67871   0.99668   0.54128   0.00000  Uiso   1.00
O84    O     0.09342   0.46283   0.57087   0.00000  Uiso   1.00
O85    O     0.80847   0.16593   0.17898   0.00000  Uiso   1.00
O86    O     0.74172   0.86707   0.50148   0.00000  Uiso   1.00
N87    N     0.08419   0.34572   0.63287   0.00000  Uiso   1.00
N88    N     0.88113   0.13417   0.06623   0.00000  Uiso   1.00
N89    N     0.83356   0.92119   0.58346   0.00000  Uiso   1.00
N90    N     0.98068   0.40889   0.61201   0.00000  Uiso   1.00
N91    N     0.77763   0.19733   0.04537   0.00000  Uiso   1.00
N92    N     0.73005   0.98435   0.56260   0.00000  Uiso   1.00
C93    C     0.55792   0.37186   0.26264   0.00000  Uiso   1.00
C94    C     0.54405   0.29646   0.22177   0.00000  Uiso   1.00
C95    C     0.47473   0.26825   0.19903   0.00000  Uiso   1.00
C96    C     0.47387   0.19818   0.16245   0.00000  Uiso   1.00
C97    C     0.44227   0.08723   0.10105   0.00000  Uiso   1.00
C98    C     0.60001   0.35476   0.34121   0.00000  Uiso   1.00
C99    C     0.57774   0.37557   0.41890   0.00000  Uiso   1.00
C100   C     0.62399   0.35457   0.48286   0.00000  Uiso   1.00
C101   C     0.67930   0.33418   0.60689   0.00000  Uiso   1.00
C102   C     0.61311   0.41345   0.20815   0.00000  Uiso   1.00
C103   C     0.60188   0.48362   0.17397   0.00000  Uiso   1.00
C104   C     0.65916   0.51204   0.12593   0.00000  Uiso   1.00
C105   C     0.73482   0.58277   0.04335   0.00000  Uiso   1.00
C106   C     0.67964   0.29758   0.23812   0.00000  Uiso   1.00
C107   C     0.61017   0.25612   0.20845   0.00000  Uiso   1.00
C108   C     0.60941   0.18607   0.17189   0.00000  Uiso   1.00
C109   C     0.54010   0.15776   0.14910   0.00000  Uiso   1.00
C110   C     0.66612   0.31441   0.32789   0.00000  Uiso   1.00
C111   C     0.71242   0.29339   0.39176   0.00000  Uiso   1.00
C112   C     0.69022   0.31416   0.46952   0.00000  Uiso   1.00
C113   C     0.67923   0.37310   0.19482   0.00000  Uiso   1.00
C114   C     0.73655   0.40143   0.14683   0.00000  Uiso   1.00
C115   C     0.72540   0.47163   0.11258   0.00000  Uiso   1.00
H116   H     0.50645   0.40327   0.27302   0.00000  Uiso   1.00
H117   H     0.42358   0.29949   0.20936   0.00000  Uiso   1.00
H118   H     0.52658   0.40680   0.42918   0.00000  Uiso   1.00
H119   H     0.55070   0.51482   0.18429   0.00000  Uiso   1.00
H120   H     0.36086   0.16662   0.13293   0.00000  Uiso   1.00
H121   H     0.57805   0.39291   0.59644   0.00000  Uiso   1.00
H122   H     0.62893   0.62071   0.08005   0.00000  Uiso   1.00
H123   H     0.73112   0.26617   0.22774   0.00000  Uiso   1.00
H124   H     0.66058   0.15486   0.16159   0.00000  Uiso   1.00
H125   H     0.76358   0.26217   0.38142   0.00000  Uiso   1.00
H126   H     0.78771   0.37020   0.13653   0.00000  Uiso   1.00
H127   H     0.55322   0.04924   0.09416   0.00000  Uiso   1.00
H128   H     0.77041   0.27553   0.55768   0.00000  Uiso   1.00
H129   H     0.82129   0.50332   0.04128   0.00000  Uiso   1.00
O130   O     0.40658   0.03717   0.07087   0.00000  Uiso   1.00
O131   O     0.69153   0.33407   0.67898   0.00000  Uiso   1.00
O132   O     0.75828   0.63293   0.00148   0.00000  Uiso   1.00
N133   N     0.41581   0.15428   0.13287   0.00000  Uiso   1.00
N134   N     0.61887   0.36583   0.56623   0.00000  Uiso   1.00
N135   N     0.66644   0.57881   0.08346   0.00000  Uiso   1.00
N136   N     0.51932   0.09111   0.11201   0.00000  Uiso   1.00
N137   N     0.72237   0.30267   0.54537   0.00000  Uiso   1.00
N138   N     0.76995   0.51565   0.06260   0.00000  Uiso   1.00
C139   C     0.05792   0.87186   0.76264   0.00000  Uiso   1.00
C140   C     0.04405   0.79646   0.72177   0.00000  Uiso   1.00
C141   C     0.97473   0.76825   0.69903   0.00000  Uiso   1.00
C142   C     0.97387   0.69818   0.66245   0.00000  Uiso   1.00
C143   C     0.94227   0.58723   0.60105   0.00000  Uiso   1.00
C144   C     0.10001   0.85476   0.84121   0.00000  Uiso   1.00
C145   C     0.07774   0.87557   0.91890   0.00000  Uiso   1.00
C146   C     0.12399   0.85457   0.98286   0.00000  Uiso   1.00
C147   C     0.17930   0.83418   0.10689   0.00000  Uiso   1.00
C148   C     0.11311   0.91345   0.70815   0.00000  Uiso   1.00
C149   C     0.10188   0.98362   0.67397   0.00000  Uiso   1.00
C150   C     0.15916   0.01204   0.62593   0.00000  Uiso   1.00
C151   C     0.23482   0.08277   0.54335   0.00000  Uiso   1.00
C152   C     0.17964   0.79758   0.73812   0.00000  Uiso   1.00
C153   C     0.11017   0.75612   0.70845   0.00000  Uiso   1.00
C154   C     0.10941   0.68607   0.67189   0.00000  Uiso   1.00
C155   C     0.04010   0.65776   0.64910   0.00000  Uiso   1.00
C156   C     0.16612   0.81441   0.82789   0.00000  Uiso   1.00
C157   C     0.21242   0.79339   0.89176   0.00000  Uiso   1.00
C158   C     0.19022   0.81416   0.96952   0.00000  Uiso   1.00
C159   C     0.17923   0.87310   0.69482   0.00000  Uiso   1.00
C160   C     0.23655   0.90143   0.64683   0.00000  Uiso   1.00
C161   C     0.22540   0.97163   0.61258   0.00000  Uiso   1.00
H162   H     0.00645   0.90327   0.77302   0.00000  Uiso   1.00
H163   H     0.92358   0.79949   0.70936   0.00000  Uiso   1.00
H164   H     0.02658   0.90680   0.92918   0.00000  Uiso   1.00
H165   H     0.05070   0.01482   0.68429   0.00000  Uiso   1.00
H166   H     0.86086   0.66662   0.63293   0.00000  Uiso   1.00
H167   H     0.07805   0.89291   0.09644   0.00000  Uiso   1.00
H168   H     0.12893   0.12071   0.58005   0.00000  Uiso   1.00
H169   H     0.23112   0.76617   0.72774   0.00000  Uiso   1.00
H170   H     0.16058   0.65486   0.66159   0.00000  Uiso   1.00
H171   H     0.26358   0.76217   0.88142   0.00000  Uiso   1.00
H172   H     0.28771   0.87020   0.63653   0.00000  Uiso   1.00
H173   H     0.05322   0.54924   0.59416   0.00000  Uiso   1.00
H174   H     0.27041   0.77553   0.05768   0.00000  Uiso   1.00
H175   H     0.32129   0.00332   0.54128   0.00000  Uiso   1.00
O176   O     0.90658   0.53717   0.57087   0.00000  Uiso   1.00
O177   O     0.19153   0.83407   0.17898   0.00000  Uiso   1.00
O178   O     0.25828   0.13293   0.50148   0.00000  Uiso   1.00
N179   N     0.91581   0.65428   0.63287   0.00000  Uiso   1.00
N180   N     0.11887   0.86583   0.06623   0.00000  Uiso   1.00
N181   N     0.16644   0.07881   0.58346   0.00000  Uiso   1.00
N182   N     0.01932   0.59111   0.61201   0.00000  Uiso   1.00
N183   N     0.22237   0.80267   0.04537   0.00000  Uiso   1.00
N184   N     0.26995   0.01565   0.56260   0.00000  Uiso   1.00
C185   C     0.62814   0.55792   0.73736   0.00000  Uiso   1.00
C186   C     0.70354   0.54405   0.77823   0.00000  Uiso   1.00
C187   C     0.73175   0.47473   0.80097   0.00000  Uiso   1.00
C188   C     0.80182   0.47387   0.83755   0.00000  Uiso   1.00
C189   C     0.91277   0.44227   0.89895   0.00000  Uiso   1.00
C190   C     0.64524   0.60001   0.65879   0.00000  Uiso   1.00
C191   C     0.62443   0.57774   0.58110   0.00000  Uiso   1.00
C192   C     0.64543   0.62399   0.51714   0.00000  Uiso   1.00
C193   C     0.66582   0.67930   0.39311   0.00000  Uiso   1.00
C194   C     0.58655   0.61311   0.79185   0.00000  Uiso   1.00
C195   C     0.51638   0.60188   0.82603   0.00000  Uiso   1.00
C196   C     0.48796   0.65916   0.87407   0.00000  Uiso   1.00
C197   C     0.41723   0.73482   0.95665   0.00000  Uiso   1.00
C198   C     0.70242   0.67964   0.76188   0.00000  Uiso   1.00
C199   C     0.74388   0.61017   0.79155   0.00000  Uiso   1.00
C200   C     0.81393   0.60941   0.82811   0.00000  Uiso   1.00
C201   C     0.84224   0.54010   0.85090   0.00000  Uiso   1.00
C202   C     0.68559   0.66612   0.67211   0.00000  Uiso   1.00
C203   C     0.70661   0.71242   0.60824   0.00000  Uiso   1.00
C204   C     0.68584   0.69022   0.53048   0.00000  Uiso   1.00
C205   C     0.62690   0.67923   0.80518   0.00000  Uiso   1.00
C206   C     0.59857   0.73655   0.85317   0.00000  Uiso   1.00
C207   C     0.52837   0.72540   0.88742   0.00000  Uiso   1.00
H208   H     0.59673   0.50645   0.72698   0.00000  Uiso   1.00
H209   H     0.70051   0.42358   0.79064   0.00000  Uiso   1.00
H210   H     0.59320   0.52658   0.57082   0.00000  Uiso   1.00
H211   H     0.48518   0.55070   0.81571   0.00000  Uiso   1.00
H212   H     0.83338   0.36086   0.86707   0.00000  Uiso   1.00
H213   H     0.60709   0.57805   0.40356   0.00000  Uiso   1.00
H214   H     0.37929   0.62893   0.91995   0.00000  Uiso   1.00
H215   H     0.73383   0.73112   0.77226   0.00000  Uiso   1.00
H216   H     0.84514   0.66058   0.83841   0.00000  Uiso   1.00
H217   H     0.73783   0.76358   0.61858   0.00000  Uiso   1.00
H218   H     0.62980   0.78771   0.86347   0.00000  Uiso   1.00
H219   H     0.95076   0.55322   0.90584   0.00000  Uiso   1.00
H220   H     0.72447   0.77041   0.44232   0.00000  Uiso   1.00
H221   H     0.49668   0.82129   0.95872   0.00000  Uiso   1.00
O222   O     0.96283   0.40658   0.92913   0.00000  Uiso   1.00
O223   O     0.66593   0.69153   0.32102   0.00000  Uiso   1.00
O224   O     0.36707   0.75828   0.99852   0.00000  Uiso   1.00
N225   N     0.84572   0.41581   0.86713   0.00000  Uiso   1.00
N226   N     0.63417   0.61887   0.43377   0.00000  Uiso   1.00
N227   N     0.42119   0.66644   0.91654   0.00000  Uiso   1.00
N228   N     0.90889   0.51932   0.88799   0.00000  Uiso   1.00
N229   N     0.69733   0.72237   0.45463   0.00000  Uiso   1.00
N230   N     0.48435   0.76995   0.93740   0.00000  Uiso   1.00
C231   C     0.12814   0.05792   0.23736   0.00000  Uiso   1.00
C232   C     0.20354   0.04405   0.27823   0.00000  Uiso   1.00
C233   C     0.23175   0.97473   0.30097   0.00000  Uiso   1.00
C234   C     0.30182   0.97387   0.33755   0.00000  Uiso   1.00
C235   C     0.41277   0.94227   0.39895   0.00000  Uiso   1.00
C236   C     0.14524   0.10001   0.15879   0.00000  Uiso   1.00
C237   C     0.12443   0.07774   0.08110   0.00000  Uiso   1.00
C238   C     0.14543   0.12399   0.01714   0.00000  Uiso   1.00
C239   C     0.16582   0.17930   0.89311   0.00000  Uiso   1.00
C240   C     0.08655   0.11311   0.29185   0.00000  Uiso   1.00
C241   C     0.01638   0.10188   0.32603   0.00000  Uiso   1.00
C242   C     0.98796   0.15916   0.37407   0.00000  Uiso   1.00
C243   C     0.91723   0.23482   0.45665   0.00000  Uiso   1.00
C244   C     0.20242   0.17964   0.26188   0.00000  Uiso   1.00
C245   C     0.24388   0.11017   0.29155   0.00000  Uiso   1.00
C246   C     0.31393   0.10941   0.32811   0.00000  Uiso   1.00
C247   C     0.34224   0.04010   0.35090   0.00000  Uiso   1.00
C248   C     0.18559   0.16612   0.17211   0.00000  Uiso   1.00
C249   C     0.20661   0.21242   0.10824   0.00000  Uiso   1.00
C250   C     0.18584   0.19022   0.03048   0.00000  Uiso   1.00
C251   C     0.12690   0.17923   0.30518   0.00000  Uiso   1.00
C252   C     0.09857   0.23655   0.35317   0.00000  Uiso   1.00
C253   C     0.02837   0.22540   0.38742   0.00000  Uiso   1.00
H254   H     0.09673   0.00645   0.22698   0.00000  Uiso   1.00
H255   H     0.20051   0.92358   0.29064   0.00000  Uiso   1.00
H256   H     0.09320   0.02658   0.07082   0.00000  Uiso   1.00
H257   H     0.98518   0.05070   0.31571   0.00000  Uiso   1.00
H258   H     0.33338   0.86086   0.36707   0.00000  Uiso   1.00
H259   H     0.10709   0.07805   0.90356   0.00000  Uiso   1.00
H260   H     0.87929   0.12893   0.41995   0.00000  Uiso   1.00
H261   H     0.23383   0.23112   0.27226   0.00000  Uiso   1.00
H262   H     0.34514   0.16058   0.33841   0.00000  Uiso   1.00
H263   H     0.23783   0.26358   0.11858   0.00000  Uiso   1.00
H264   H     0.12980   0.28771   0.36347   0.00000  Uiso   1.00
H265   H     0.45076   0.05322   0.40584   0.00000  Uiso   1.00
H266   H     0.22447   0.27041   0.94232   0.00000  Uiso   1.00
H267   H     0.99668   0.32129   0.45872   0.00000  Uiso   1.00
O268   O     0.46283   0.90658   0.42913   0.00000  Uiso   1.00
O269   O     0.16593   0.19153   0.82102   0.00000  Uiso   1.00
O270   O     0.86707   0.25828   0.49852   0.00000  Uiso   1.00
N271   N     0.34572   0.91581   0.36713   0.00000  Uiso   1.00
N272   N     0.13417   0.11887   0.93377   0.00000  Uiso   1.00
N273   N     0.92119   0.16644   0.41654   0.00000  Uiso   1.00
N274   N     0.40889   0.01932   0.38799   0.00000  Uiso   1.00
N275   N     0.19733   0.22237   0.95463   0.00000  Uiso   1.00
N276   N     0.98435   0.26995   0.43740   0.00000  Uiso   1.00
C277   C     0.37186   0.44208   0.73736   0.00000  Uiso   1.00
C278   C     0.29646   0.45595   0.77823   0.00000  Uiso   1.00
C279   C     0.26825   0.52527   0.80097   0.00000  Uiso   1.00
C280   C     0.19818   0.52613   0.83755   0.00000  Uiso   1.00
C281   C     0.08723   0.55773   0.89895   0.00000  Uiso   1.00
C282   C     0.35476   0.39999   0.65879   0.00000  Uiso   1.00
C283   C     0.37557   0.42226   0.58110   0.00000  Uiso   1.00
C284   C     0.35457   0.37601   0.51714   0.00000  Uiso   1.00
C285   C     0.33418   0.32070   0.39311   0.00000  Uiso   1.00
C286   C     0.41345   0.38689   0.79185   0.00000  Uiso   1.00
C287   C     0.48362   0.39812   0.82603   0.00000  Uiso   1.00
C288   C     0.51204   0.34084   0.87407   0.00000  Uiso   1.00
C289   C     0.58277   0.26518   0.95665   0.00000  Uiso   1.00
C290   C     0.29758   0.32036   0.76188   0.00000  Uiso   1.00
C291   C     0.25612   0.38983   0.79155   0.00000  Uiso   1.00
C292   C     0.18607   0.39059   0.82811   0.00000  Uiso   1.00
C293   C     0.15776   0.45990   0.85090   0.00000  Uiso   1.00
C294   C     0.31441   0.33388   0.67211   0.00000  Uiso   1.00
C295   C     0.29339   0.28758   0.60824   0.00000  Uiso   1.00
C296   C     0.31416   0.30978   0.53048   0.00000  Uiso   1.00
C297   C     0.37310   0.32077   0.80518   0.00000  Uiso   1.00
C298   C     0.40143   0.26345   0.85317   0.00000  Uiso   1.00
C299   C     0.47163   0.27460   0.88742   0.00000  Uiso   1.00
H300   H     0.40327   0.49355   0.72698   0.00000  Uiso   1.00
H301   H     0.29949   0.57642   0.79064   0.00000  Uiso   1.00
H302   H     0.40680   0.47342   0.57082   0.00000  Uiso   1.00
H303   H     0.51482   0.44930   0.81571   0.00000  Uiso   1.00
H304   H     0.16662   0.63914   0.86707   0.00000  Uiso   1.00
H305   H     0.39291   0.42195   0.40356   0.00000  Uiso   1.00
H306   H     0.62071   0.37107   0.91995   0.00000  Uiso   1.00
H307   H     0.26617   0.26888   0.77226   0.00000  Uiso   1.00
H308   H     0.15486   0.33942   0.83841   0.00000  Uiso   1.00
H309   H     0.26217   0.23642   0.61858   0.00000  Uiso   1.00
H310   H     0.37020   0.21229   0.86347   0.00000  Uiso   1.00
H311   H     0.04924   0.44678   0.90584   0.00000  Uiso   1.00
H312   H     0.27553   0.22959   0.44232   0.00000  Uiso   1.00
H313   H     0.50332   0.17871   0.95872   0.00000  Uiso   1.00
O314   O     0.03717   0.59342   0.92913   0.00000  Uiso   1.00
O315   O     0.33407   0.30847   0.32102   0.00000  Uiso   1.00
O316   O     0.63293   0.24172   0.99852   0.00000  Uiso   1.00
N317   N     0.15428   0.58419   0.86713   0.00000  Uiso   1.00
N318   N     0.36583   0.38113   0.43377   0.00000  Uiso   1.00
N319   N     0.57881   0.33356   0.91654   0.00000  Uiso   1.00
N320   N     0.09111   0.48068   0.88799   0.00000  Uiso   1.00
N321   N     0.30267   0.27763   0.45463   0.00000  Uiso   1.00
N322   N     0.51565   0.23005   0.93740   0.00000  Uiso   1.00
C323   C     0.87186   0.94208   0.23736   0.00000  Uiso   1.00
C324   C     0.79646   0.95595   0.27823   0.00000  Uiso   1.00
C325   C     0.76825   0.02527   0.30097   0.00000  Uiso   1.00
C326   C     0.69818   0.02613   0.33755   0.00000  Uiso   1.00
C327   C     0.58723   0.05773   0.39895   0.00000  Uiso   1.00
C328   C     0.85476   0.89999   0.15879   0.00000  Uiso   1.00
C329   C     0.87557   0.92226   0.08110   0.00000  Uiso   1.00
C330   C     0.85457   0.87601   0.01714   0.00000  Uiso   1.00
C331   C     0.83418   0.82070   0.89311   0.00000  Uiso   1.00
C332   C     0.91345   0.88689   0.29185   0.00000  Uiso   1.00
C333   C     0.98362   0.89812   0.32603   0.00000  Uiso   1.00
C334   C     0.01204   0.84084   0.37407   0.00000  Uiso   1.00
C335   C     0.08277   0.76518   0.45665   0.00000  Uiso   1.00
C336   C     0.79758   0.82036   0.26188   0.00000  Uiso   1.00
C337   C     0.75612   0.88983   0.29155   0.00000  Uiso   1.00
C338   C     0.68607   0.89059   0.32811   0.00000  Uiso   1.00
C339   C     0.65776   0.95990   0.35090   0.00000  Uiso   1.00
C340   C     0.81441   0.83388   0.17211   0.00000  Uiso   1.00
C341   C     0.79339   0.78758   0.10824   0.00000  Uiso   1.00
C342   C     0.81416   0.80978   0.03048   0.00000  Uiso   1.00
C343   C     0.87310   0.82077   0.30518   0.00000  Uiso   1.00
C344   C     0.90143   0.76345   0.35317   0.00000  Uiso   1.00
C345   C     0.97163   0.77460   0.38742   0.00000  Uiso   1.00
H346   H     0.90327   0.99355   0.22698   0.00000  Uiso   1.00
H347   H     0.79949   0.07642   0.29064   0.00000  Uiso   1.00
H348   H     0.90680   0.97342   0.07082   0.00000  Uiso   1.00
H349   H     0.01482   0.94930   0.31571   0.00000  Uiso   1.00
H350   H     0.66662   0.13914   0.36707   0.00000  Uiso   1.00
H351   H     0.89291   0.92195   0.90356   0.00000  Uiso   1.00
H352   H     0.12071   0.87107   0.41995   0.00000  Uiso   1.00
H353   H     0.76617   0.76888   0.27226   0.00000  Uiso   1.00
H354   H     0.65486   0.83942   0.33841   0.00000  Uiso   1.00
H355   H     0.76217   0.73642   0.11858   0.00000  Uiso   1.00
H356   H     0.87020   0.71229   0.36347   0.00000  Uiso   1.00
H357   H     0.54924   0.94678   0.40584   0.00000  Uiso   1.00
H358   H     0.77553   0.72959   0.94232   0.00000  Uiso   1.00
H359   H     0.00332   0.67871   0.45872   0.00000  Uiso   1.00
O360   O     0.53717   0.09342   0.42913   0.00000  Uiso   1.00
O361   O     0.83407   0.80847   0.82102   0.00000  Uiso   1.00
O362   O     0.13293   0.74172   0.49852   0.00000  Uiso   1.00
N363   N     0.65428   0.08419   0.36713   0.00000  Uiso   1.00
N364   N     0.86583   0.88113   0.93377   0.00000  Uiso   1.00
N365   N     0.07881   0.83356   0.41654   0.00000  Uiso   1.00
N366   N     0.59111   0.98068   0.38799   0.00000  Uiso   1.00
N367   N     0.80267   0.77763   0.95463   0.00000  Uiso   1.00
N368   N     0.01565   0.73005   0.43740   0.00000  Uiso   1.00
