data_job_01952
_audit_creation_date              2018-12-19
_audit_creation_method            'Materials Studio'
_symmetry_space_group_name_H-M    'P1'
_symmetry_Int_Tables_number       1
_symmetry_cell_setting            triclinic
loop_
_symmetry_equiv_pos_as_xyz
  x,y,z
_cell_length_a                    14.8079
_cell_length_b                    14.8079
_cell_length_c                    20.3649
_cell_angle_alpha                 90.0000
_cell_angle_beta                  90.0000
_cell_angle_gamma                 90.0000
loop_
_atom_site_label
_atom_site_type_symbol
_atom_site_fract_x
_atom_site_fract_y
_atom_site_fract_z
_atom_site_U_iso_or_equiv
_atom_site_adp_type
_atom_site_occupancy
C1     C     0.24941   0.14074   0.31218   0.00000  Uiso   1.00
C2     C     0.33968   0.15996   0.27896   0.00000  Uiso   1.00
C3     C     0.37658   0.24484   0.26824   0.00000  Uiso   1.00
C4     C     0.45988   0.24814   0.23704   0.00000  Uiso   1.00
C5     C     0.59322   0.28998   0.18844   0.00000  Uiso   1.00
C6     C     0.19474   0.08516   0.26325   0.00000  Uiso   1.00
C7     C     0.10978   0.10713   0.23932   0.00000  Uiso   1.00
C8     C     0.07107   0.04746   0.19491   0.00000  Uiso   1.00
C9     C     0.97938   0.97313   0.12195   0.00000  Uiso   1.00
C10    C     0.27020   0.07769   0.36941   0.00000  Uiso   1.00
C11    C     0.24867   0.09337   0.43475   0.00000  Uiso   1.00
C12    C     0.27347   0.02739   0.47971   0.00000  Uiso   1.00
C13    C     0.29894   0.94146   0.57159   0.00000  Uiso   1.00
C14    C     0.33172   0.99568   0.27584   0.00000  Uiso   1.00
C15    C     0.38439   0.08117   0.25923   0.00000  Uiso   1.00
C16    C     0.46765   0.08434   0.22804   0.00000  Uiso   1.00
C17    C     0.50467   0.16921   0.21727   0.00000  Uiso   1.00
C18    C     0.23945   0.00637   0.24351   0.00000  Uiso   1.00
C19    C     0.20086   0.94664   0.19912   0.00000  Uiso   1.00
C20    C     0.11586   0.96852   0.17513   0.00000  Uiso   1.00
C21    C     0.31492   0.99889   0.34968   0.00000  Uiso   1.00
C22    C     0.33975   0.93287   0.39455   0.00000  Uiso   1.00
C23    C     0.31826   0.94845   0.45994   0.00000  Uiso   1.00
H24    H     0.21459   0.20208   0.32754   0.00000  Uiso   1.00
H25    H     0.34195   0.30580   0.28351   0.00000  Uiso   1.00
H26    H     0.07520   0.16811   0.25461   0.00000  Uiso   1.00
H27    H     0.21407   0.15435   0.45001   0.00000  Uiso   1.00
H28    H     0.50286   0.38605   0.22598   0.00000  Uiso   1.00
H29    H     0.94037   0.09570   0.16505   0.00000  Uiso   1.00
H30    H     0.23321   0.06668   0.57708   0.00000  Uiso   1.00
H31    H     0.36653   0.93433   0.26048   0.00000  Uiso   1.00
H32    H     0.50224   0.02336   0.21277   0.00000  Uiso   1.00
H33    H     0.23548   0.88567   0.18387   0.00000  Uiso   1.00
H34    H     0.37435   0.87191   0.37926   0.00000  Uiso   1.00
H35    H     0.63295   0.15681   0.16855   0.00000  Uiso   1.00
H36    H     0.07046   0.86646   0.10763   0.00000  Uiso   1.00
H37    H     0.36330   0.83745   0.51966   0.00000  Uiso   1.00
O38    O     0.65442   0.33482   0.16707   0.00000  Uiso   1.00
O39    O     0.91645   0.95390   0.08715   0.00000  Uiso   1.00
O40    O     0.30065   0.91583   0.62772   0.00000  Uiso   1.00
N41    N     0.51486   0.31988   0.21902   0.00000  Uiso   1.00
N42    N     0.98898   0.04843   0.16205   0.00000  Uiso   1.00
N43    N     0.26273   0.02129   0.54726   0.00000  Uiso   1.00
N44    N     0.58486   0.19652   0.18812   0.00000  Uiso   1.00
N45    N     0.05898   0.92508   0.13115   0.00000  Uiso   1.00
N46    N     0.33273   0.89794   0.51636   0.00000  Uiso   1.00
C47    C     0.75059   0.85926   0.81218   0.00000  Uiso   1.00
C48    C     0.66032   0.84004   0.77896   0.00000  Uiso   1.00
C49    C     0.62342   0.75516   0.76824   0.00000  Uiso   1.00
C50    C     0.54012   0.75186   0.73704   0.00000  Uiso   1.00
C51    C     0.40678   0.71002   0.68844   0.00000  Uiso   1.00
C52    C     0.80526   0.91484   0.76325   0.00000  Uiso   1.00
C53    C     0.89022   0.89287   0.73932   0.00000  Uiso   1.00
C54    C     0.92893   0.95254   0.69491   0.00000  Uiso   1.00
C55    C     0.02062   0.02687   0.62195   0.00000  Uiso   1.00
C56    C     0.72980   0.92231   0.86941   0.00000  Uiso   1.00
C57    C     0.75133   0.90663   0.93475   0.00000  Uiso   1.00
C58    C     0.72653   0.97261   0.97971   0.00000  Uiso   1.00
C59    C     0.70106   0.05854   0.07159   0.00000  Uiso   1.00
C60    C     0.66828   0.00432   0.77584   0.00000  Uiso   1.00
C61    C     0.61561   0.91883   0.75923   0.00000  Uiso   1.00
C62    C     0.53235   0.91566   0.72804   0.00000  Uiso   1.00
C63    C     0.49533   0.83079   0.71727   0.00000  Uiso   1.00
C64    C     0.76055   0.99363   0.74351   0.00000  Uiso   1.00
C65    C     0.79914   0.05336   0.69912   0.00000  Uiso   1.00
C66    C     0.88414   0.03148   0.67513   0.00000  Uiso   1.00
C67    C     0.68508   0.00111   0.84968   0.00000  Uiso   1.00
C68    C     0.66025   0.06713   0.89455   0.00000  Uiso   1.00
C69    C     0.68174   0.05155   0.95994   0.00000  Uiso   1.00
H70    H     0.78541   0.79792   0.82754   0.00000  Uiso   1.00
H71    H     0.65805   0.69420   0.78351   0.00000  Uiso   1.00
H72    H     0.92480   0.83189   0.75461   0.00000  Uiso   1.00
H73    H     0.78593   0.84565   0.95001   0.00000  Uiso   1.00
H74    H     0.49714   0.61395   0.72598   0.00000  Uiso   1.00
H75    H     0.05963   0.90430   0.66505   0.00000  Uiso   1.00
H76    H     0.76679   0.93332   0.07708   0.00000  Uiso   1.00
H77    H     0.63347   0.06567   0.76048   0.00000  Uiso   1.00
H78    H     0.49776   0.97664   0.71277   0.00000  Uiso   1.00
H79    H     0.76452   0.11433   0.68387   0.00000  Uiso   1.00
H80    H     0.62565   0.12809   0.87926   0.00000  Uiso   1.00
H81    H     0.36705   0.84319   0.66855   0.00000  Uiso   1.00
H82    H     0.92954   0.13354   0.60763   0.00000  Uiso   1.00
H83    H     0.63670   0.16255   0.01966   0.00000  Uiso   1.00
O84    O     0.34558   0.66518   0.66707   0.00000  Uiso   1.00
O85    O     0.08355   0.04610   0.58715   0.00000  Uiso   1.00
O86    O     0.69935   0.08417   0.12772   0.00000  Uiso   1.00
N87    N     0.48514   0.68012   0.71902   0.00000  Uiso   1.00
N88    N     0.01102   0.95157   0.66205   0.00000  Uiso   1.00
N89    N     0.73727   0.97871   0.04726   0.00000  Uiso   1.00
N90    N     0.41514   0.80348   0.68812   0.00000  Uiso   1.00
N91    N     0.94102   0.07492   0.63115   0.00000  Uiso   1.00
N92    N     0.66727   0.10206   0.01636   0.00000  Uiso   1.00
C93    C     0.35926   0.74941   0.06218   0.00000  Uiso   1.00
C94    C     0.34004   0.83968   0.02896   0.00000  Uiso   1.00
C95    C     0.25516   0.87658   0.01824   0.00000  Uiso   1.00
C96    C     0.25186   0.95988   0.98704   0.00000  Uiso   1.00
C97    C     0.21002   0.09322   0.93844   0.00000  Uiso   1.00
C98    C     0.41484   0.69474   0.01325   0.00000  Uiso   1.00
C99    C     0.39287   0.60978   0.98932   0.00000  Uiso   1.00
C100   C     0.45254   0.57107   0.94491   0.00000  Uiso   1.00
C101   C     0.52687   0.47938   0.87195   0.00000  Uiso   1.00
C102   C     0.42231   0.77020   0.11941   0.00000  Uiso   1.00
C103   C     0.40663   0.74867   0.18475   0.00000  Uiso   1.00
C104   C     0.47261   0.77347   0.22971   0.00000  Uiso   1.00
C105   C     0.55854   0.79894   0.32159   0.00000  Uiso   1.00
C106   C     0.50432   0.83172   0.02584   0.00000  Uiso   1.00
C107   C     0.41883   0.88439   0.00923   0.00000  Uiso   1.00
C108   C     0.41566   0.96765   0.97804   0.00000  Uiso   1.00
C109   C     0.33079   0.00467   0.96727   0.00000  Uiso   1.00
C110   C     0.49363   0.73945   0.99351   0.00000  Uiso   1.00
C111   C     0.55336   0.70086   0.94912   0.00000  Uiso   1.00
C112   C     0.53148   0.61586   0.92513   0.00000  Uiso   1.00
C113   C     0.50111   0.81492   0.09968   0.00000  Uiso   1.00
C114   C     0.56713   0.83975   0.14455   0.00000  Uiso   1.00
C115   C     0.55155   0.81826   0.20994   0.00000  Uiso   1.00
H116   H     0.29792   0.71459   0.07754   0.00000  Uiso   1.00
H117   H     0.19420   0.84195   0.03351   0.00000  Uiso   1.00
H118   H     0.33189   0.57520   0.00461   0.00000  Uiso   1.00
H119   H     0.34565   0.71407   0.20001   0.00000  Uiso   1.00
H120   H     0.11395   0.00286   0.97598   0.00000  Uiso   1.00
H121   H     0.40430   0.44037   0.91505   0.00000  Uiso   1.00
H122   H     0.43332   0.73321   0.32708   0.00000  Uiso   1.00
H123   H     0.56567   0.86653   0.01048   0.00000  Uiso   1.00
H124   H     0.47664   0.00224   0.96277   0.00000  Uiso   1.00
H125   H     0.61433   0.73548   0.93387   0.00000  Uiso   1.00
H126   H     0.62809   0.87435   0.12926   0.00000  Uiso   1.00
H127   H     0.34319   0.13295   0.91855   0.00000  Uiso   1.00
H128   H     0.63354   0.57046   0.85763   0.00000  Uiso   1.00
H129   H     0.66255   0.86330   0.26966   0.00000  Uiso   1.00
O130   O     0.16518   0.15442   0.91707   0.00000  Uiso   1.00
O131   O     0.54610   0.41645   0.83715   0.00000  Uiso   1.00
O132   O     0.58417   0.80065   0.37772   0.00000  Uiso   1.00
N133   N     0.18012   0.01486   0.96902   0.00000  Uiso   1.00
N134   N     0.45157   0.48898   0.91205   0.00000  Uiso   1.00
N135   N     0.47871   0.76273   0.29726   0.00000  Uiso   1.00
N136   N     0.30348   0.08486   0.93812   0.00000  Uiso   1.00
N137   N     0.57492   0.55898   0.88115   0.00000  Uiso   1.00
N138   N     0.60206   0.83273   0.26636   0.00000  Uiso   1.00
C139   C     0.64074   0.25059   0.56218   0.00000  Uiso   1.00
C140   C     0.65996   0.16032   0.52896   0.00000  Uiso   1.00
C141   C     0.74484   0.12342   0.51824   0.00000  Uiso   1.00
C142   C     0.74814   0.04012   0.48704   0.00000  Uiso   1.00
C143   C     0.78998   0.90678   0.43844   0.00000  Uiso   1.00
C144   C     0.58516   0.30526   0.51325   0.00000  Uiso   1.00
C145   C     0.60713   0.39022   0.48932   0.00000  Uiso   1.00
C146   C     0.54746   0.42893   0.44491   0.00000  Uiso   1.00
C147   C     0.47313   0.52062   0.37195   0.00000  Uiso   1.00
C148   C     0.57769   0.22980   0.61941   0.00000  Uiso   1.00
C149   C     0.59337   0.25133   0.68475   0.00000  Uiso   1.00
C150   C     0.52739   0.22653   0.72971   0.00000  Uiso   1.00
C151   C     0.44146   0.20106   0.82159   0.00000  Uiso   1.00
C152   C     0.49568   0.16828   0.52584   0.00000  Uiso   1.00
C153   C     0.58117   0.11561   0.50923   0.00000  Uiso   1.00
C154   C     0.58434   0.03235   0.47804   0.00000  Uiso   1.00
C155   C     0.66921   0.99533   0.46727   0.00000  Uiso   1.00
C156   C     0.50637   0.26055   0.49351   0.00000  Uiso   1.00
C157   C     0.44664   0.29914   0.44912   0.00000  Uiso   1.00
C158   C     0.46852   0.38414   0.42513   0.00000  Uiso   1.00
C159   C     0.49889   0.18508   0.59968   0.00000  Uiso   1.00
C160   C     0.43287   0.16025   0.64455   0.00000  Uiso   1.00
C161   C     0.44845   0.18174   0.70994   0.00000  Uiso   1.00
H162   H     0.70208   0.28541   0.57754   0.00000  Uiso   1.00
H163   H     0.80580   0.15805   0.53351   0.00000  Uiso   1.00
H164   H     0.66811   0.42480   0.50461   0.00000  Uiso   1.00
H165   H     0.65435   0.28593   0.70001   0.00000  Uiso   1.00
H166   H     0.88605   0.99714   0.47598   0.00000  Uiso   1.00
H167   H     0.59570   0.55963   0.41505   0.00000  Uiso   1.00
H168   H     0.56668   0.26679   0.82708   0.00000  Uiso   1.00
H169   H     0.43433   0.13347   0.51048   0.00000  Uiso   1.00
H170   H     0.52336   0.99776   0.46277   0.00000  Uiso   1.00
H171   H     0.38567   0.26452   0.43387   0.00000  Uiso   1.00
H172   H     0.37191   0.12565   0.62926   0.00000  Uiso   1.00
H173   H     0.65681   0.86705   0.41855   0.00000  Uiso   1.00
H174   H     0.36646   0.42954   0.35763   0.00000  Uiso   1.00
H175   H     0.33745   0.13670   0.76966   0.00000  Uiso   1.00
O176   O     0.83482   0.84558   0.41707   0.00000  Uiso   1.00
O177   O     0.45390   0.58355   0.33715   0.00000  Uiso   1.00
O178   O     0.41583   0.19935   0.87772   0.00000  Uiso   1.00
N179   N     0.81988   0.98514   0.46902   0.00000  Uiso   1.00
N180   N     0.54843   0.51102   0.41205   0.00000  Uiso   1.00
N181   N     0.52129   0.23727   0.79726   0.00000  Uiso   1.00
N182   N     0.69652   0.91514   0.43812   0.00000  Uiso   1.00
N183   N     0.42508   0.44102   0.38115   0.00000  Uiso   1.00
N184   N     0.39794   0.16727   0.76636   0.00000  Uiso   1.00
C185   C     0.25059   0.64074   0.43782   0.00000  Uiso   1.00
C186   C     0.16032   0.65996   0.47104   0.00000  Uiso   1.00
C187   C     0.12342   0.74484   0.48176   0.00000  Uiso   1.00
C188   C     0.04012   0.74814   0.51296   0.00000  Uiso   1.00
C189   C     0.90678   0.78998   0.56156   0.00000  Uiso   1.00
C190   C     0.30526   0.58516   0.48675   0.00000  Uiso   1.00
C191   C     0.39022   0.60713   0.51068   0.00000  Uiso   1.00
C192   C     0.42893   0.54746   0.55509   0.00000  Uiso   1.00
C193   C     0.52062   0.47313   0.62805   0.00000  Uiso   1.00
C194   C     0.22980   0.57769   0.38059   0.00000  Uiso   1.00
C195   C     0.25133   0.59337   0.31525   0.00000  Uiso   1.00
C196   C     0.22653   0.52739   0.27029   0.00000  Uiso   1.00
C197   C     0.20106   0.44146   0.17841   0.00000  Uiso   1.00
C198   C     0.16828   0.49568   0.47416   0.00000  Uiso   1.00
C199   C     0.11561   0.58117   0.49077   0.00000  Uiso   1.00
C200   C     0.03235   0.58434   0.52196   0.00000  Uiso   1.00
C201   C     0.99533   0.66921   0.53273   0.00000  Uiso   1.00
C202   C     0.26055   0.50637   0.50649   0.00000  Uiso   1.00
C203   C     0.29914   0.44664   0.55088   0.00000  Uiso   1.00
C204   C     0.38414   0.46852   0.57487   0.00000  Uiso   1.00
C205   C     0.18508   0.49889   0.40032   0.00000  Uiso   1.00
C206   C     0.16025   0.43287   0.35545   0.00000  Uiso   1.00
C207   C     0.18174   0.44845   0.29006   0.00000  Uiso   1.00
H208   H     0.28541   0.70208   0.42246   0.00000  Uiso   1.00
H209   H     0.15805   0.80580   0.46649   0.00000  Uiso   1.00
H210   H     0.42480   0.66811   0.49539   0.00000  Uiso   1.00
H211   H     0.28593   0.65435   0.29999   0.00000  Uiso   1.00
H212   H     0.99714   0.88605   0.52402   0.00000  Uiso   1.00
H213   H     0.55963   0.59570   0.58495   0.00000  Uiso   1.00
H214   H     0.26679   0.56668   0.17292   0.00000  Uiso   1.00
H215   H     0.13347   0.43433   0.48952   0.00000  Uiso   1.00
H216   H     0.99776   0.52336   0.53723   0.00000  Uiso   1.00
H217   H     0.26452   0.38567   0.56613   0.00000  Uiso   1.00
H218   H     0.12565   0.37191   0.37074   0.00000  Uiso   1.00
H219   H     0.86705   0.65681   0.58145   0.00000  Uiso   1.00
H220   H     0.42954   0.36646   0.64237   0.00000  Uiso   1.00
H221   H     0.13670   0.33745   0.23034   0.00000  Uiso   1.00
O222   O     0.84558   0.83482   0.58293   0.00000  Uiso   1.00
O223   O     0.58355   0.45390   0.66285   0.00000  Uiso   1.00
O224   O     0.19935   0.41583   0.12228   0.00000  Uiso   1.00
N225   N     0.98514   0.81988   0.53098   0.00000  Uiso   1.00
N226   N     0.51102   0.54843   0.58795   0.00000  Uiso   1.00
N227   N     0.23727   0.52129   0.20274   0.00000  Uiso   1.00
N228   N     0.91514   0.69652   0.56188   0.00000  Uiso   1.00
N229   N     0.44102   0.42508   0.61885   0.00000  Uiso   1.00
N230   N     0.16727   0.39794   0.23364   0.00000  Uiso   1.00
C231   C     0.74941   0.35926   0.93782   0.00000  Uiso   1.00
C232   C     0.83968   0.34004   0.97104   0.00000  Uiso   1.00
C233   C     0.87658   0.25516   0.98176   0.00000  Uiso   1.00
C234   C     0.95988   0.25186   0.01296   0.00000  Uiso   1.00
C235   C     0.09322   0.21002   0.06156   0.00000  Uiso   1.00
C236   C     0.69474   0.41484   0.98675   0.00000  Uiso   1.00
C237   C     0.60978   0.39287   0.01068   0.00000  Uiso   1.00
C238   C     0.57107   0.45254   0.05509   0.00000  Uiso   1.00
C239   C     0.47938   0.52687   0.12805   0.00000  Uiso   1.00
C240   C     0.77020   0.42231   0.88059   0.00000  Uiso   1.00
C241   C     0.74867   0.40663   0.81525   0.00000  Uiso   1.00
C242   C     0.77347   0.47261   0.77029   0.00000  Uiso   1.00
C243   C     0.79894   0.55854   0.67841   0.00000  Uiso   1.00
C244   C     0.83172   0.50432   0.97416   0.00000  Uiso   1.00
C245   C     0.88439   0.41883   0.99077   0.00000  Uiso   1.00
C246   C     0.96765   0.41566   0.02196   0.00000  Uiso   1.00
C247   C     0.00467   0.33079   0.03273   0.00000  Uiso   1.00
C248   C     0.73945   0.49363   0.00649   0.00000  Uiso   1.00
C249   C     0.70086   0.55336   0.05088   0.00000  Uiso   1.00
C250   C     0.61586   0.53148   0.07487   0.00000  Uiso   1.00
C251   C     0.81492   0.50111   0.90032   0.00000  Uiso   1.00
C252   C     0.83975   0.56713   0.85545   0.00000  Uiso   1.00
C253   C     0.81826   0.55155   0.79006   0.00000  Uiso   1.00
H254   H     0.71459   0.29792   0.92246   0.00000  Uiso   1.00
H255   H     0.84195   0.19420   0.96649   0.00000  Uiso   1.00
H256   H     0.57520   0.33189   0.99539   0.00000  Uiso   1.00
H257   H     0.71407   0.34565   0.79999   0.00000  Uiso   1.00
H258   H     0.00286   0.11395   0.02402   0.00000  Uiso   1.00
H259   H     0.44037   0.40430   0.08495   0.00000  Uiso   1.00
H260   H     0.73321   0.43332   0.67292   0.00000  Uiso   1.00
H261   H     0.86653   0.56567   0.98952   0.00000  Uiso   1.00
H262   H     0.00224   0.47664   0.03723   0.00000  Uiso   1.00
H263   H     0.73548   0.61433   0.06613   0.00000  Uiso   1.00
H264   H     0.87435   0.62809   0.87074   0.00000  Uiso   1.00
H265   H     0.13295   0.34319   0.08145   0.00000  Uiso   1.00
H266   H     0.57046   0.63354   0.14237   0.00000  Uiso   1.00
H267   H     0.86330   0.66255   0.73034   0.00000  Uiso   1.00
O268   O     0.15442   0.16518   0.08293   0.00000  Uiso   1.00
O269   O     0.41645   0.54610   0.16285   0.00000  Uiso   1.00
O270   O     0.80065   0.58417   0.62228   0.00000  Uiso   1.00
N271   N     0.01486   0.18012   0.03098   0.00000  Uiso   1.00
N272   N     0.48898   0.45157   0.08795   0.00000  Uiso   1.00
N273   N     0.76273   0.47871   0.70274   0.00000  Uiso   1.00
N274   N     0.08486   0.30348   0.06188   0.00000  Uiso   1.00
N275   N     0.55898   0.57492   0.11885   0.00000  Uiso   1.00
N276   N     0.83273   0.60206   0.73364   0.00000  Uiso   1.00
C277   C     0.14074   0.24941   0.68782   0.00000  Uiso   1.00
C278   C     0.15996   0.33968   0.72104   0.00000  Uiso   1.00
C279   C     0.24484   0.37658   0.73176   0.00000  Uiso   1.00
C280   C     0.24814   0.45988   0.76296   0.00000  Uiso   1.00
C281   C     0.28998   0.59322   0.81156   0.00000  Uiso   1.00
C282   C     0.08516   0.19474   0.73675   0.00000  Uiso   1.00
C283   C     0.10713   0.10978   0.76068   0.00000  Uiso   1.00
C284   C     0.04746   0.07107   0.80509   0.00000  Uiso   1.00
C285   C     0.97313   0.97938   0.87805   0.00000  Uiso   1.00
C286   C     0.07769   0.27020   0.63059   0.00000  Uiso   1.00
C287   C     0.09337   0.24867   0.56525   0.00000  Uiso   1.00
C288   C     0.02739   0.27347   0.52029   0.00000  Uiso   1.00
C289   C     0.94146   0.29894   0.42841   0.00000  Uiso   1.00
C290   C     0.99568   0.33172   0.72416   0.00000  Uiso   1.00
C291   C     0.08117   0.38439   0.74077   0.00000  Uiso   1.00
C292   C     0.08434   0.46765   0.77196   0.00000  Uiso   1.00
C293   C     0.16921   0.50467   0.78273   0.00000  Uiso   1.00
C294   C     0.00637   0.23945   0.75649   0.00000  Uiso   1.00
C295   C     0.94664   0.20086   0.80088   0.00000  Uiso   1.00
C296   C     0.96852   0.11586   0.82487   0.00000  Uiso   1.00
C297   C     0.99889   0.31492   0.65032   0.00000  Uiso   1.00
C298   C     0.93287   0.33975   0.60545   0.00000  Uiso   1.00
C299   C     0.94845   0.31826   0.54006   0.00000  Uiso   1.00
H300   H     0.20208   0.21459   0.67246   0.00000  Uiso   1.00
H301   H     0.30580   0.34195   0.71649   0.00000  Uiso   1.00
H302   H     0.16811   0.07520   0.74539   0.00000  Uiso   1.00
H303   H     0.15435   0.21407   0.54999   0.00000  Uiso   1.00
H304   H     0.38605   0.50286   0.77402   0.00000  Uiso   1.00
H305   H     0.09570   0.94037   0.83495   0.00000  Uiso   1.00
H306   H     0.06668   0.23321   0.42292   0.00000  Uiso   1.00
H307   H     0.93433   0.36653   0.73952   0.00000  Uiso   1.00
H308   H     0.02336   0.50224   0.78723   0.00000  Uiso   1.00
H309   H     0.88567   0.23548   0.81613   0.00000  Uiso   1.00
H310   H     0.87191   0.37435   0.62074   0.00000  Uiso   1.00
H311   H     0.15681   0.63295   0.83145   0.00000  Uiso   1.00
H312   H     0.86646   0.07046   0.89237   0.00000  Uiso   1.00
H313   H     0.83745   0.36330   0.48034   0.00000  Uiso   1.00
O314   O     0.33482   0.65442   0.83293   0.00000  Uiso   1.00
O315   O     0.95390   0.91645   0.91285   0.00000  Uiso   1.00
O316   O     0.91583   0.30065   0.37228   0.00000  Uiso   1.00
N317   N     0.31988   0.51486   0.78098   0.00000  Uiso   1.00
N318   N     0.04843   0.98898   0.83795   0.00000  Uiso   1.00
N319   N     0.02129   0.26273   0.45274   0.00000  Uiso   1.00
N320   N     0.19652   0.58486   0.81188   0.00000  Uiso   1.00
N321   N     0.92508   0.05898   0.86885   0.00000  Uiso   1.00
N322   N     0.89794   0.33273   0.48364   0.00000  Uiso   1.00
C323   C     0.85926   0.75059   0.18782   0.00000  Uiso   1.00
C324   C     0.84004   0.66032   0.22104   0.00000  Uiso   1.00
C325   C     0.75516   0.62342   0.23176   0.00000  Uiso   1.00
C326   C     0.75186   0.54012   0.26296   0.00000  Uiso   1.00
C327   C     0.71002   0.40678   0.31156   0.00000  Uiso   1.00
C328   C     0.91484   0.80526   0.23675   0.00000  Uiso   1.00
C329   C     0.89287   0.89022   0.26068   0.00000  Uiso   1.00
C330   C     0.95254   0.92893   0.30509   0.00000  Uiso   1.00
C331   C     0.02687   0.02062   0.37805   0.00000  Uiso   1.00
C332   C     0.92231   0.72980   0.13059   0.00000  Uiso   1.00
C333   C     0.90663   0.75133   0.06525   0.00000  Uiso   1.00
C334   C     0.97261   0.72653   0.02029   0.00000  Uiso   1.00
C335   C     0.05854   0.70106   0.92841   0.00000  Uiso   1.00
C336   C     0.00432   0.66828   0.22416   0.00000  Uiso   1.00
C337   C     0.91883   0.61561   0.24077   0.00000  Uiso   1.00
C338   C     0.91566   0.53235   0.27196   0.00000  Uiso   1.00
C339   C     0.83079   0.49533   0.28273   0.00000  Uiso   1.00
C340   C     0.99363   0.76055   0.25649   0.00000  Uiso   1.00
C341   C     0.05336   0.79914   0.30088   0.00000  Uiso   1.00
C342   C     0.03148   0.88414   0.32487   0.00000  Uiso   1.00
C343   C     0.00111   0.68508   0.15032   0.00000  Uiso   1.00
C344   C     0.06713   0.66025   0.10545   0.00000  Uiso   1.00
C345   C     0.05155   0.68174   0.04006   0.00000  Uiso   1.00
H346   H     0.79792   0.78541   0.17246   0.00000  Uiso   1.00
H347   H     0.69420   0.65805   0.21649   0.00000  Uiso   1.00
H348   H     0.83189   0.92480   0.24539   0.00000  Uiso   1.00
H349   H     0.84565   0.78593   0.04999   0.00000  Uiso   1.00
H350   H     0.61395   0.49714   0.27402   0.00000  Uiso   1.00
H351   H     0.90430   0.05963   0.33495   0.00000  Uiso   1.00
H352   H     0.93332   0.76679   0.92292   0.00000  Uiso   1.00
H353   H     0.06567   0.63347   0.23952   0.00000  Uiso   1.00
H354   H     0.97664   0.49776   0.28723   0.00000  Uiso   1.00
H355   H     0.11433   0.76452   0.31613   0.00000  Uiso   1.00
H356   H     0.12809   0.62565   0.12074   0.00000  Uiso   1.00
H357   H     0.84319   0.36705   0.33145   0.00000  Uiso   1.00
H358   H     0.13354   0.92954   0.39237   0.00000  Uiso   1.00
H359   H     0.16255   0.63670   0.98034   0.00000  Uiso   1.00
O360   O     0.66518   0.34558   0.33293   0.00000  Uiso   1.00
O361   O     0.04610   0.08355   0.41285   0.00000  Uiso   1.00
O362   O     0.08417   0.69935   0.87228   0.00000  Uiso   1.00
N363   N     0.68012   0.48514   0.28098   0.00000  Uiso   1.00
N364   N     0.95157   0.01102   0.33795   0.00000  Uiso   1.00
N365   N     0.97871   0.73727   0.95274   0.00000  Uiso   1.00
N366   N     0.80348   0.41514   0.31188   0.00000  Uiso   1.00
N367   N     0.07492   0.94102   0.36885   0.00000  Uiso   1.00
N368   N     0.10206   0.66727   0.98364   0.00000  Uiso   1.00
