data_job_02650
_audit_creation_date              2018-12-19
_audit_creation_method            'Materials Studio'
_symmetry_space_group_name_H-M    'P1'
_symmetry_Int_Tables_number       1
_symmetry_cell_setting            triclinic
loop_
_symmetry_equiv_pos_as_xyz
  x,y,z
_cell_length_a                    24.3355
_cell_length_b                    10.7000
_cell_length_c                    24.1083
_cell_angle_alpha                 90.0000
_cell_angle_beta                  90.0000
_cell_angle_gamma                 90.0000
loop_
_atom_site_label
_atom_site_type_symbol
_atom_site_fract_x
_atom_site_fract_y
_atom_site_fract_z
_atom_site_U_iso_or_equiv
_atom_site_adp_type
_atom_site_occupancy
C1     C     0.83347   0.36392   0.90539   0.00000  Uiso   1.00
C2     C     0.88067   0.27156   0.89827   0.00000  Uiso   1.00
C3     C     0.87873   0.14483   0.91034   0.00000  Uiso   1.00
C4     C     0.92627   0.07627   0.90097   0.00000  Uiso   1.00
C5     C     0.99230   0.92431   0.89308   0.00000  Uiso   1.00
C6     C     0.85515   0.46721   0.94308   0.00000  Uiso   1.00
C7     C     0.83175   0.50498   0.99283   0.00000  Uiso   1.00
C8     C     0.85781   0.60114   0.02118   0.00000  Uiso   1.00
C9     C     0.88420   0.75299   0.08284   0.00000  Uiso   1.00
C10    C     0.82482   0.42401   0.84871   0.00000  Uiso   1.00
C11    C     0.77591   0.42549   0.81911   0.00000  Uiso   1.00
C12    C     0.77642   0.48531   0.76800   0.00000  Uiso   1.00
C13    C     0.75572   0.57008   0.68314   0.00000  Uiso   1.00
C14    C     0.92135   0.46755   0.86727   0.00000  Uiso   1.00
C15    C     0.92840   0.32785   0.87756   0.00000  Uiso   1.00
C16    C     0.97596   0.25947   0.86817   0.00000  Uiso   1.00
C17    C     0.97409   0.13266   0.88022   0.00000  Uiso   1.00
C18    C     0.90288   0.52349   0.92238   0.00000  Uiso   1.00
C19    C     0.92898   0.61963   0.95065   0.00000  Uiso   1.00
C20    C     0.90562   0.65753   0.00043   0.00000  Uiso   1.00
C21    C     0.87255   0.48029   0.82800   0.00000  Uiso   1.00
C22    C     0.87314   0.54013   0.77693   0.00000  Uiso   1.00
C23    C     0.82424   0.54170   0.74726   0.00000  Uiso   1.00
H24    H     0.79631   0.32011   0.92152   0.00000  Uiso   1.00
H25    H     0.84178   0.10130   0.92637   0.00000  Uiso   1.00
H26    H     0.79481   0.46142   0.00884   0.00000  Uiso   1.00
H27    H     0.73898   0.38193   0.83515   0.00000  Uiso   1.00
H28    H     0.91326   0.88355   0.92264   0.00000  Uiso   1.00
H29    H     0.81420   0.64289   0.09653   0.00000  Uiso   1.00
H30    H     0.69647   0.47528   0.73026   0.00000  Uiso   1.00
H31    H     0.95851   0.51137   0.85115   0.00000  Uiso   1.00
H32    H     0.01289   0.30305   0.85214   0.00000  Uiso   1.00
H33    H     0.96591   0.66317   0.93462   0.00000  Uiso   1.00
H34    H     0.91008   0.58368   0.76092   0.00000  Uiso   1.00
H35    H     0.05213   0.04730   0.86240   0.00000  Uiso   1.00
H36    H     0.95307   0.80665   0.03628   0.00000  Uiso   1.00
H37    H     0.83534   0.63903   0.67001   0.00000  Uiso   1.00
O38    O     0.01554   0.82495   0.89446   0.00000  Uiso   1.00
O39    O     0.88557   0.82119   0.12258   0.00000  Uiso   1.00
O40    O     0.73112   0.60127   0.64205   0.00000  Uiso   1.00
N41    N     0.93847   0.95067   0.90832   0.00000  Uiso   1.00
N42    N     0.84586   0.66060   0.07089   0.00000  Uiso   1.00
N43    N     0.73579   0.50392   0.72847   0.00000  Uiso   1.00
N44    N     0.01320   0.03878   0.87590   0.00000  Uiso   1.00
N45    N     0.92059   0.74871   0.03848   0.00000  Uiso   1.00
N46    N     0.81052   0.59203   0.69605   0.00000  Uiso   1.00
C47    C     0.66653   0.13608   0.90539   0.00000  Uiso   1.00
C48    C     0.61933   0.22844   0.89827   0.00000  Uiso   1.00
C49    C     0.62127   0.35517   0.91034   0.00000  Uiso   1.00
C50    C     0.57373   0.42373   0.90097   0.00000  Uiso   1.00
C51    C     0.50770   0.57569   0.89308   0.00000  Uiso   1.00
C52    C     0.64485   0.03279   0.94308   0.00000  Uiso   1.00
C53    C     0.66825   0.99502   0.99283   0.00000  Uiso   1.00
C54    C     0.64219   0.89886   0.02118   0.00000  Uiso   1.00
C55    C     0.61580   0.74701   0.08284   0.00000  Uiso   1.00
C56    C     0.67518   0.07599   0.84871   0.00000  Uiso   1.00
C57    C     0.72409   0.07451   0.81911   0.00000  Uiso   1.00
C58    C     0.72358   0.01469   0.76800   0.00000  Uiso   1.00
C59    C     0.74428   0.92992   0.68314   0.00000  Uiso   1.00
C60    C     0.57865   0.03245   0.86727   0.00000  Uiso   1.00
C61    C     0.57160   0.17215   0.87756   0.00000  Uiso   1.00
C62    C     0.52404   0.24053   0.86817   0.00000  Uiso   1.00
C63    C     0.52591   0.36734   0.88022   0.00000  Uiso   1.00
C64    C     0.59712   0.97651   0.92238   0.00000  Uiso   1.00
C65    C     0.57102   0.88037   0.95065   0.00000  Uiso   1.00
C66    C     0.59438   0.84247   0.00043   0.00000  Uiso   1.00
C67    C     0.62745   0.01971   0.82800   0.00000  Uiso   1.00
C68    C     0.62686   0.95987   0.77693   0.00000  Uiso   1.00
C69    C     0.67576   0.95830   0.74726   0.00000  Uiso   1.00
H70    H     0.70369   0.17989   0.92152   0.00000  Uiso   1.00
H71    H     0.65822   0.39870   0.92637   0.00000  Uiso   1.00
H72    H     0.70519   0.03858   0.00884   0.00000  Uiso   1.00
H73    H     0.76102   0.11807   0.83515   0.00000  Uiso   1.00
H74    H     0.58674   0.61645   0.92264   0.00000  Uiso   1.00
H75    H     0.68580   0.85711   0.09653   0.00000  Uiso   1.00
H76    H     0.80353   0.02472   0.73026   0.00000  Uiso   1.00
H77    H     0.54149   0.98863   0.85115   0.00000  Uiso   1.00
H78    H     0.48711   0.19695   0.85214   0.00000  Uiso   1.00
H79    H     0.53409   0.83683   0.93462   0.00000  Uiso   1.00
H80    H     0.58992   0.91632   0.76092   0.00000  Uiso   1.00
H81    H     0.44787   0.45270   0.86240   0.00000  Uiso   1.00
H82    H     0.54693   0.69335   0.03628   0.00000  Uiso   1.00
H83    H     0.66466   0.86097   0.67001   0.00000  Uiso   1.00
O84    O     0.48446   0.67505   0.89446   0.00000  Uiso   1.00
O85    O     0.61443   0.67881   0.12258   0.00000  Uiso   1.00
O86    O     0.76888   0.89873   0.64205   0.00000  Uiso   1.00
N87    N     0.56153   0.54933   0.90832   0.00000  Uiso   1.00
N88    N     0.65414   0.83940   0.07089   0.00000  Uiso   1.00
N89    N     0.76421   0.99608   0.72847   0.00000  Uiso   1.00
N90    N     0.48680   0.46122   0.87590   0.00000  Uiso   1.00
N91    N     0.57941   0.75129   0.03848   0.00000  Uiso   1.00
N92    N     0.68948   0.90797   0.69605   0.00000  Uiso   1.00
C93    C     0.16653   0.86392   0.59461   0.00000  Uiso   1.00
C94    C     0.11933   0.77156   0.60173   0.00000  Uiso   1.00
C95    C     0.12127   0.64483   0.58966   0.00000  Uiso   1.00
C96    C     0.07373   0.57627   0.59903   0.00000  Uiso   1.00
C97    C     0.00770   0.42431   0.60692   0.00000  Uiso   1.00
C98    C     0.14485   0.96721   0.55692   0.00000  Uiso   1.00
C99    C     0.16825   0.00498   0.50717   0.00000  Uiso   1.00
C100   C     0.14219   0.10114   0.47882   0.00000  Uiso   1.00
C101   C     0.11580   0.25299   0.41716   0.00000  Uiso   1.00
C102   C     0.17518   0.92401   0.65129   0.00000  Uiso   1.00
C103   C     0.22409   0.92549   0.68089   0.00000  Uiso   1.00
C104   C     0.22358   0.98531   0.73200   0.00000  Uiso   1.00
C105   C     0.24428   0.07008   0.81686   0.00000  Uiso   1.00
C106   C     0.07865   0.96755   0.63273   0.00000  Uiso   1.00
C107   C     0.07160   0.82785   0.62244   0.00000  Uiso   1.00
C108   C     0.02404   0.75947   0.63183   0.00000  Uiso   1.00
C109   C     0.02591   0.63266   0.61978   0.00000  Uiso   1.00
C110   C     0.09712   0.02349   0.57762   0.00000  Uiso   1.00
C111   C     0.07102   0.11963   0.54935   0.00000  Uiso   1.00
C112   C     0.09438   0.15753   0.49957   0.00000  Uiso   1.00
C113   C     0.12745   0.98029   0.67200   0.00000  Uiso   1.00
C114   C     0.12686   0.04013   0.72307   0.00000  Uiso   1.00
C115   C     0.17576   0.04170   0.75274   0.00000  Uiso   1.00
H116   H     0.20369   0.82011   0.57848   0.00000  Uiso   1.00
H117   H     0.15822   0.60130   0.57363   0.00000  Uiso   1.00
H118   H     0.20519   0.96142   0.49116   0.00000  Uiso   1.00
H119   H     0.26102   0.88193   0.66485   0.00000  Uiso   1.00
H120   H     0.08674   0.38355   0.57736   0.00000  Uiso   1.00
H121   H     0.18580   0.14289   0.40347   0.00000  Uiso   1.00
H122   H     0.30353   0.97528   0.76974   0.00000  Uiso   1.00
H123   H     0.04149   0.01137   0.64885   0.00000  Uiso   1.00
H124   H     0.98711   0.80305   0.64786   0.00000  Uiso   1.00
H125   H     0.03409   0.16317   0.56538   0.00000  Uiso   1.00
H126   H     0.08992   0.08368   0.73908   0.00000  Uiso   1.00
H127   H     0.94787   0.54730   0.63760   0.00000  Uiso   1.00
H128   H     0.04693   0.30665   0.46372   0.00000  Uiso   1.00
H129   H     0.16466   0.13903   0.82999   0.00000  Uiso   1.00
O130   O     0.98446   0.32495   0.60554   0.00000  Uiso   1.00
O131   O     0.11443   0.32119   0.37741   0.00000  Uiso   1.00
O132   O     0.26888   0.10127   0.85795   0.00000  Uiso   1.00
N133   N     0.06153   0.45067   0.59168   0.00000  Uiso   1.00
N134   N     0.15414   0.16060   0.42911   0.00000  Uiso   1.00
N135   N     0.26421   0.00392   0.77153   0.00000  Uiso   1.00
N136   N     0.98680   0.53878   0.62410   0.00000  Uiso   1.00
N137   N     0.07941   0.24871   0.46152   0.00000  Uiso   1.00
N138   N     0.18948   0.09203   0.80395   0.00000  Uiso   1.00
C139   C     0.33347   0.63608   0.59461   0.00000  Uiso   1.00
C140   C     0.38067   0.72844   0.60173   0.00000  Uiso   1.00
C141   C     0.37873   0.85517   0.58966   0.00000  Uiso   1.00
C142   C     0.42627   0.92373   0.59903   0.00000  Uiso   1.00
C143   C     0.49230   0.07569   0.60692   0.00000  Uiso   1.00
C144   C     0.35515   0.53279   0.55692   0.00000  Uiso   1.00
C145   C     0.33175   0.49502   0.50717   0.00000  Uiso   1.00
C146   C     0.35781   0.39886   0.47882   0.00000  Uiso   1.00
C147   C     0.38420   0.24701   0.41716   0.00000  Uiso   1.00
C148   C     0.32482   0.57599   0.65129   0.00000  Uiso   1.00
C149   C     0.27591   0.57451   0.68089   0.00000  Uiso   1.00
C150   C     0.27642   0.51469   0.73200   0.00000  Uiso   1.00
C151   C     0.25572   0.42992   0.81686   0.00000  Uiso   1.00
C152   C     0.42135   0.53245   0.63273   0.00000  Uiso   1.00
C153   C     0.42840   0.67215   0.62244   0.00000  Uiso   1.00
C154   C     0.47596   0.74053   0.63183   0.00000  Uiso   1.00
C155   C     0.47409   0.86734   0.61978   0.00000  Uiso   1.00
C156   C     0.40288   0.47651   0.57762   0.00000  Uiso   1.00
C157   C     0.42898   0.38037   0.54935   0.00000  Uiso   1.00
C158   C     0.40562   0.34247   0.49957   0.00000  Uiso   1.00
C159   C     0.37255   0.51971   0.67200   0.00000  Uiso   1.00
C160   C     0.37314   0.45987   0.72307   0.00000  Uiso   1.00
C161   C     0.32424   0.45830   0.75274   0.00000  Uiso   1.00
H162   H     0.29631   0.67989   0.57848   0.00000  Uiso   1.00
H163   H     0.34178   0.89870   0.57363   0.00000  Uiso   1.00
H164   H     0.29481   0.53858   0.49116   0.00000  Uiso   1.00
H165   H     0.23898   0.61807   0.66485   0.00000  Uiso   1.00
H166   H     0.41326   0.11645   0.57736   0.00000  Uiso   1.00
H167   H     0.31420   0.35711   0.40347   0.00000  Uiso   1.00
H168   H     0.19647   0.52472   0.76974   0.00000  Uiso   1.00
H169   H     0.45851   0.48863   0.64885   0.00000  Uiso   1.00
H170   H     0.51289   0.69695   0.64786   0.00000  Uiso   1.00
H171   H     0.46591   0.33683   0.56538   0.00000  Uiso   1.00
H172   H     0.41008   0.41632   0.73908   0.00000  Uiso   1.00
H173   H     0.55213   0.95270   0.63760   0.00000  Uiso   1.00
H174   H     0.45307   0.19335   0.46372   0.00000  Uiso   1.00
H175   H     0.33534   0.36097   0.82999   0.00000  Uiso   1.00
O176   O     0.51554   0.17505   0.60554   0.00000  Uiso   1.00
O177   O     0.38557   0.17881   0.37742   0.00000  Uiso   1.00
O178   O     0.23112   0.39873   0.85795   0.00000  Uiso   1.00
N179   N     0.43847   0.04933   0.59168   0.00000  Uiso   1.00
N180   N     0.34586   0.33940   0.42911   0.00000  Uiso   1.00
N181   N     0.23579   0.49608   0.77153   0.00000  Uiso   1.00
N182   N     0.51320   0.96122   0.62410   0.00000  Uiso   1.00
N183   N     0.42059   0.25129   0.46152   0.00000  Uiso   1.00
N184   N     0.31052   0.40797   0.80395   0.00000  Uiso   1.00
C185   C     0.16653   0.63608   0.09461   0.00000  Uiso   1.00
C186   C     0.11933   0.72844   0.10173   0.00000  Uiso   1.00
C187   C     0.12127   0.85517   0.08966   0.00000  Uiso   1.00
C188   C     0.07373   0.92373   0.09903   0.00000  Uiso   1.00
C189   C     0.00770   0.07569   0.10692   0.00000  Uiso   1.00
C190   C     0.14485   0.53279   0.05692   0.00000  Uiso   1.00
C191   C     0.16825   0.49502   0.00717   0.00000  Uiso   1.00
C192   C     0.14219   0.39886   0.97882   0.00000  Uiso   1.00
C193   C     0.11580   0.24701   0.91716   0.00000  Uiso   1.00
C194   C     0.17518   0.57599   0.15129   0.00000  Uiso   1.00
C195   C     0.22409   0.57451   0.18089   0.00000  Uiso   1.00
C196   C     0.22358   0.51469   0.23200   0.00000  Uiso   1.00
C197   C     0.24428   0.42992   0.31686   0.00000  Uiso   1.00
C198   C     0.07865   0.53245   0.13273   0.00000  Uiso   1.00
C199   C     0.07160   0.67215   0.12244   0.00000  Uiso   1.00
C200   C     0.02404   0.74053   0.13183   0.00000  Uiso   1.00
C201   C     0.02591   0.86734   0.11978   0.00000  Uiso   1.00
C202   C     0.09712   0.47651   0.07762   0.00000  Uiso   1.00
C203   C     0.07102   0.38037   0.04935   0.00000  Uiso   1.00
C204   C     0.09438   0.34247   0.99957   0.00000  Uiso   1.00
C205   C     0.12745   0.51971   0.17200   0.00000  Uiso   1.00
C206   C     0.12686   0.45987   0.22307   0.00000  Uiso   1.00
C207   C     0.17576   0.45830   0.25274   0.00000  Uiso   1.00
H208   H     0.20369   0.67989   0.07848   0.00000  Uiso   1.00
H209   H     0.15822   0.89870   0.07363   0.00000  Uiso   1.00
H210   H     0.20519   0.53858   0.99116   0.00000  Uiso   1.00
H211   H     0.26102   0.61807   0.16485   0.00000  Uiso   1.00
H212   H     0.08674   0.11645   0.07736   0.00000  Uiso   1.00
H213   H     0.18580   0.35711   0.90347   0.00000  Uiso   1.00
H214   H     0.30353   0.52472   0.26974   0.00000  Uiso   1.00
H215   H     0.04149   0.48863   0.14885   0.00000  Uiso   1.00
H216   H     0.98711   0.69695   0.14786   0.00000  Uiso   1.00
H217   H     0.03409   0.33683   0.06538   0.00000  Uiso   1.00
H218   H     0.08992   0.41632   0.23908   0.00000  Uiso   1.00
H219   H     0.94787   0.95270   0.13760   0.00000  Uiso   1.00
H220   H     0.04693   0.19335   0.96372   0.00000  Uiso   1.00
H221   H     0.16466   0.36097   0.32999   0.00000  Uiso   1.00
O222   O     0.98446   0.17505   0.10554   0.00000  Uiso   1.00
O223   O     0.11443   0.17881   0.87742   0.00000  Uiso   1.00
O224   O     0.26888   0.39873   0.35795   0.00000  Uiso   1.00
N225   N     0.06153   0.04933   0.09168   0.00000  Uiso   1.00
N226   N     0.15414   0.33940   0.92911   0.00000  Uiso   1.00
N227   N     0.26421   0.49608   0.27153   0.00000  Uiso   1.00
N228   N     0.98680   0.96122   0.12410   0.00000  Uiso   1.00
N229   N     0.07941   0.25129   0.96152   0.00000  Uiso   1.00
N230   N     0.18948   0.40797   0.30395   0.00000  Uiso   1.00
C231   C     0.33347   0.86392   0.09461   0.00000  Uiso   1.00
C232   C     0.38067   0.77156   0.10173   0.00000  Uiso   1.00
C233   C     0.37873   0.64483   0.08966   0.00000  Uiso   1.00
C234   C     0.42627   0.57627   0.09903   0.00000  Uiso   1.00
C235   C     0.49230   0.42431   0.10692   0.00000  Uiso   1.00
C236   C     0.35515   0.96721   0.05692   0.00000  Uiso   1.00
C237   C     0.33175   0.00498   0.00717   0.00000  Uiso   1.00
C238   C     0.35781   0.10114   0.97882   0.00000  Uiso   1.00
C239   C     0.38420   0.25299   0.91716   0.00000  Uiso   1.00
C240   C     0.32482   0.92401   0.15129   0.00000  Uiso   1.00
C241   C     0.27591   0.92549   0.18089   0.00000  Uiso   1.00
C242   C     0.27642   0.98531   0.23200   0.00000  Uiso   1.00
C243   C     0.25572   0.07008   0.31686   0.00000  Uiso   1.00
C244   C     0.42135   0.96755   0.13273   0.00000  Uiso   1.00
C245   C     0.42840   0.82785   0.12244   0.00000  Uiso   1.00
C246   C     0.47596   0.75947   0.13183   0.00000  Uiso   1.00
C247   C     0.47409   0.63266   0.11978   0.00000  Uiso   1.00
C248   C     0.40288   0.02349   0.07762   0.00000  Uiso   1.00
C249   C     0.42898   0.11963   0.04935   0.00000  Uiso   1.00
C250   C     0.40562   0.15753   0.99957   0.00000  Uiso   1.00
C251   C     0.37255   0.98029   0.17200   0.00000  Uiso   1.00
C252   C     0.37314   0.04013   0.22307   0.00000  Uiso   1.00
C253   C     0.32424   0.04170   0.25274   0.00000  Uiso   1.00
H254   H     0.29631   0.82011   0.07848   0.00000  Uiso   1.00
H255   H     0.34178   0.60130   0.07363   0.00000  Uiso   1.00
H256   H     0.29481   0.96142   0.99116   0.00000  Uiso   1.00
H257   H     0.23898   0.88193   0.16485   0.00000  Uiso   1.00
H258   H     0.41326   0.38355   0.07736   0.00000  Uiso   1.00
H259   H     0.31420   0.14289   0.90347   0.00000  Uiso   1.00
H260   H     0.19647   0.97528   0.26974   0.00000  Uiso   1.00
H261   H     0.45851   0.01137   0.14885   0.00000  Uiso   1.00
H262   H     0.51289   0.80305   0.14786   0.00000  Uiso   1.00
H263   H     0.46591   0.16317   0.06538   0.00000  Uiso   1.00
H264   H     0.41008   0.08368   0.23908   0.00000  Uiso   1.00
H265   H     0.55213   0.54730   0.13760   0.00000  Uiso   1.00
H266   H     0.45307   0.30665   0.96372   0.00000  Uiso   1.00
H267   H     0.33534   0.13903   0.32999   0.00000  Uiso   1.00
O268   O     0.51554   0.32495   0.10554   0.00000  Uiso   1.00
O269   O     0.38557   0.32119   0.87741   0.00000  Uiso   1.00
O270   O     0.23112   0.10127   0.35795   0.00000  Uiso   1.00
N271   N     0.43847   0.45067   0.09168   0.00000  Uiso   1.00
N272   N     0.34586   0.16060   0.92911   0.00000  Uiso   1.00
N273   N     0.23579   0.00392   0.27153   0.00000  Uiso   1.00
N274   N     0.51320   0.53878   0.12410   0.00000  Uiso   1.00
N275   N     0.42059   0.24871   0.96152   0.00000  Uiso   1.00
N276   N     0.31052   0.09203   0.30395   0.00000  Uiso   1.00
C277   C     0.83347   0.13608   0.40539   0.00000  Uiso   1.00
C278   C     0.88067   0.22844   0.39827   0.00000  Uiso   1.00
C279   C     0.87873   0.35517   0.41034   0.00000  Uiso   1.00
C280   C     0.92627   0.42373   0.40097   0.00000  Uiso   1.00
C281   C     0.99230   0.57569   0.39308   0.00000  Uiso   1.00
C282   C     0.85515   0.03279   0.44308   0.00000  Uiso   1.00
C283   C     0.83175   0.99502   0.49283   0.00000  Uiso   1.00
C284   C     0.85781   0.89886   0.52118   0.00000  Uiso   1.00
C285   C     0.88420   0.74701   0.58284   0.00000  Uiso   1.00
C286   C     0.82482   0.07599   0.34871   0.00000  Uiso   1.00
C287   C     0.77591   0.07451   0.31911   0.00000  Uiso   1.00
C288   C     0.77642   0.01469   0.26800   0.00000  Uiso   1.00
C289   C     0.75572   0.92992   0.18314   0.00000  Uiso   1.00
C290   C     0.92135   0.03245   0.36727   0.00000  Uiso   1.00
C291   C     0.92840   0.17215   0.37756   0.00000  Uiso   1.00
C292   C     0.97596   0.24053   0.36817   0.00000  Uiso   1.00
C293   C     0.97409   0.36734   0.38022   0.00000  Uiso   1.00
C294   C     0.90288   0.97651   0.42238   0.00000  Uiso   1.00
C295   C     0.92898   0.88037   0.45065   0.00000  Uiso   1.00
C296   C     0.90562   0.84247   0.50043   0.00000  Uiso   1.00
C297   C     0.87255   0.01971   0.32800   0.00000  Uiso   1.00
C298   C     0.87314   0.95987   0.27693   0.00000  Uiso   1.00
C299   C     0.82424   0.95830   0.24726   0.00000  Uiso   1.00
H300   H     0.79631   0.17989   0.42152   0.00000  Uiso   1.00
H301   H     0.84178   0.39870   0.42637   0.00000  Uiso   1.00
H302   H     0.79481   0.03858   0.50884   0.00000  Uiso   1.00
H303   H     0.73898   0.11807   0.33515   0.00000  Uiso   1.00
H304   H     0.91326   0.61645   0.42264   0.00000  Uiso   1.00
H305   H     0.81420   0.85711   0.59653   0.00000  Uiso   1.00
H306   H     0.69647   0.02472   0.23026   0.00000  Uiso   1.00
H307   H     0.95851   0.98863   0.35115   0.00000  Uiso   1.00
H308   H     0.01289   0.19695   0.35214   0.00000  Uiso   1.00
H309   H     0.96591   0.83683   0.43462   0.00000  Uiso   1.00
H310   H     0.91008   0.91632   0.26092   0.00000  Uiso   1.00
H311   H     0.05213   0.45270   0.36240   0.00000  Uiso   1.00
H312   H     0.95307   0.69335   0.53628   0.00000  Uiso   1.00
H313   H     0.83534   0.86097   0.17001   0.00000  Uiso   1.00
O314   O     0.01554   0.67505   0.39446   0.00000  Uiso   1.00
O315   O     0.88557   0.67881   0.62258   0.00000  Uiso   1.00
O316   O     0.73112   0.89873   0.14205   0.00000  Uiso   1.00
N317   N     0.93847   0.54933   0.40832   0.00000  Uiso   1.00
N318   N     0.84586   0.83940   0.57089   0.00000  Uiso   1.00
N319   N     0.73579   0.99608   0.22847   0.00000  Uiso   1.00
N320   N     0.01320   0.46122   0.37590   0.00000  Uiso   1.00
N321   N     0.92059   0.75129   0.53848   0.00000  Uiso   1.00
N322   N     0.81052   0.90797   0.19605   0.00000  Uiso   1.00
C323   C     0.66653   0.36392   0.40539   0.00000  Uiso   1.00
C324   C     0.61933   0.27156   0.39827   0.00000  Uiso   1.00
C325   C     0.62127   0.14483   0.41034   0.00000  Uiso   1.00
C326   C     0.57373   0.07627   0.40097   0.00000  Uiso   1.00
C327   C     0.50770   0.92431   0.39308   0.00000  Uiso   1.00
C328   C     0.64485   0.46721   0.44308   0.00000  Uiso   1.00
C329   C     0.66825   0.50498   0.49283   0.00000  Uiso   1.00
C330   C     0.64219   0.60114   0.52118   0.00000  Uiso   1.00
C331   C     0.61580   0.75299   0.58284   0.00000  Uiso   1.00
C332   C     0.67518   0.42401   0.34871   0.00000  Uiso   1.00
C333   C     0.72409   0.42549   0.31911   0.00000  Uiso   1.00
C334   C     0.72358   0.48531   0.26800   0.00000  Uiso   1.00
C335   C     0.74428   0.57008   0.18314   0.00000  Uiso   1.00
C336   C     0.57865   0.46755   0.36727   0.00000  Uiso   1.00
C337   C     0.57160   0.32785   0.37756   0.00000  Uiso   1.00
C338   C     0.52404   0.25947   0.36817   0.00000  Uiso   1.00
C339   C     0.52591   0.13266   0.38022   0.00000  Uiso   1.00
C340   C     0.59712   0.52349   0.42238   0.00000  Uiso   1.00
C341   C     0.57102   0.61963   0.45065   0.00000  Uiso   1.00
C342   C     0.59438   0.65753   0.50043   0.00000  Uiso   1.00
C343   C     0.62745   0.48029   0.32800   0.00000  Uiso   1.00
C344   C     0.62686   0.54013   0.27693   0.00000  Uiso   1.00
C345   C     0.67576   0.54170   0.24726   0.00000  Uiso   1.00
H346   H     0.70369   0.32011   0.42152   0.00000  Uiso   1.00
H347   H     0.65822   0.10130   0.42637   0.00000  Uiso   1.00
H348   H     0.70519   0.46142   0.50884   0.00000  Uiso   1.00
H349   H     0.76102   0.38193   0.33515   0.00000  Uiso   1.00
H350   H     0.58674   0.88355   0.42264   0.00000  Uiso   1.00
H351   H     0.68580   0.64289   0.59653   0.00000  Uiso   1.00
H352   H     0.80353   0.47528   0.23026   0.00000  Uiso   1.00
H353   H     0.54149   0.51137   0.35115   0.00000  Uiso   1.00
H354   H     0.48711   0.30305   0.35214   0.00000  Uiso   1.00
H355   H     0.53409   0.66317   0.43462   0.00000  Uiso   1.00
H356   H     0.58992   0.58368   0.26092   0.00000  Uiso   1.00
H357   H     0.44787   0.04730   0.36240   0.00000  Uiso   1.00
H358   H     0.54693   0.80665   0.53628   0.00000  Uiso   1.00
H359   H     0.66466   0.63903   0.17001   0.00000  Uiso   1.00
O360   O     0.48446   0.82495   0.39446   0.00000  Uiso   1.00
O361   O     0.61443   0.82119   0.62258   0.00000  Uiso   1.00
O362   O     0.76888   0.60127   0.14205   0.00000  Uiso   1.00
N363   N     0.56153   0.95067   0.40832   0.00000  Uiso   1.00
N364   N     0.65414   0.66060   0.57089   0.00000  Uiso   1.00
N365   N     0.76421   0.50392   0.22847   0.00000  Uiso   1.00
N366   N     0.48680   0.03878   0.37590   0.00000  Uiso   1.00
N367   N     0.57941   0.74871   0.53848   0.00000  Uiso   1.00
N368   N     0.68948   0.59203   0.19605   0.00000  Uiso   1.00
