data_job_06290
_audit_creation_date              2018-12-19
_audit_creation_method            'Materials Studio'
_symmetry_space_group_name_H-M    'P1'
_symmetry_Int_Tables_number       1
_symmetry_cell_setting            triclinic
loop_
_symmetry_equiv_pos_as_xyz
  x,y,z
_cell_length_a                    17.9269
_cell_length_b                    17.2815
_cell_length_c                    16.9596
_cell_angle_alpha                 84.4994
_cell_angle_beta                  84.1345
_cell_angle_gamma                 84.3966
loop_
_atom_site_label
_atom_site_type_symbol
_atom_site_fract_x
_atom_site_fract_y
_atom_site_fract_z
_atom_site_U_iso_or_equiv
_atom_site_adp_type
_atom_site_occupancy
C1     C     0.19072   0.48700   0.80120   0.00000  Uiso   1.00
C2     C     0.15000   0.41271   0.81155   0.00000  Uiso   1.00
C3     C     0.16030   0.35341   0.76076   0.00000  Uiso   1.00
C4     C     0.11767   0.29028   0.78062   0.00000  Uiso   1.00
C5     C     0.06218   0.17550   0.78629   0.00000  Uiso   1.00
C6     C     0.12934   0.55462   0.80056   0.00000  Uiso   1.00
C7     C     0.12228   0.61464   0.74054   0.00000  Uiso   1.00
C8     C     0.06225   0.67098   0.75116   0.00000  Uiso   1.00
C9     C     0.97473   0.77655   0.73981   0.00000  Uiso   1.00
C10    C     0.22837   0.48911   0.87753   0.00000  Uiso   1.00
C11    C     0.30457   0.49407   0.88223   0.00000  Uiso   1.00
C12    C     0.32792   0.49527   0.95765   0.00000  Uiso   1.00
C13    C     0.39415   0.49911   0.06580   0.00000  Uiso   1.00
C14    C     0.09669   0.48034   0.92677   0.00000  Uiso   1.00
C15    C     0.09893   0.40910   0.87975   0.00000  Uiso   1.00
C16    C     0.05626   0.34604   0.89969   0.00000  Uiso   1.00
C17    C     0.06650   0.28666   0.84895   0.00000  Uiso   1.00
C18    C     0.07827   0.55101   0.86876   0.00000  Uiso   1.00
C19    C     0.01824   0.60728   0.87948   0.00000  Uiso   1.00
C20    C     0.01108   0.66736   0.81949   0.00000  Uiso   1.00
C21    C     0.17730   0.48549   0.94574   0.00000  Uiso   1.00
C22    C     0.20053   0.48669   0.02116   0.00000  Uiso   1.00
C23    C     0.27675   0.49165   0.02598   0.00000  Uiso   1.00
H24    H     0.23048   0.48982   0.74809   0.00000  Uiso   1.00
H25    H     0.19983   0.35623   0.70798   0.00000  Uiso   1.00
H26    H     0.16182   0.61743   0.68777   0.00000  Uiso   1.00
H27    H     0.34408   0.49686   0.82944   0.00000  Uiso   1.00
H28    H     0.14330   0.20655   0.69357   0.00000  Uiso   1.00
H29    H     0.06316   0.75730   0.65097   0.00000  Uiso   1.00
H30    H     0.44750   0.50307   0.94970   0.00000  Uiso   1.00
H31    H     0.05692   0.47753   0.97987   0.00000  Uiso   1.00
H32    H     0.01674   0.34326   0.95248   0.00000  Uiso   1.00
H33    H     0.97873   0.60446   0.93227   0.00000  Uiso   1.00
H34    H     0.16099   0.48390   0.07393   0.00000  Uiso   1.00
H35    H     0.99469   0.19602   0.89201   0.00000  Uiso   1.00
H36    H     0.91456   0.74678   0.84942   0.00000  Uiso   1.00
H37    H     0.29889   0.49255   0.14814   0.00000  Uiso   1.00
O38    O     0.04568   0.11319   0.77058   0.00000  Uiso   1.00
O39    O     0.94056   0.83577   0.71470   0.00000  Uiso   1.00
O40    O     0.44479   0.50222   0.10662   0.00000  Uiso   1.00
N41    N     0.11385   0.22249   0.74404   0.00000  Uiso   1.00
N42    N     0.03892   0.73741   0.70421   0.00000  Uiso   1.00
N43    N     0.39824   0.49974   0.98349   0.00000  Uiso   1.00
N44    N     0.03389   0.21682   0.85082   0.00000  Uiso   1.00
N45    N     0.95896   0.73174   0.81099   0.00000  Uiso   1.00
N46    N     0.31827   0.49408   0.09027   0.00000  Uiso   1.00
C47    C     0.79777   0.18897   0.48603   0.00000  Uiso   1.00
C48    C     0.80742   0.14676   0.41020   0.00000  Uiso   1.00
C49    C     0.75945   0.15746   0.35006   0.00000  Uiso   1.00
C50    C     0.77807   0.11325   0.28556   0.00000  Uiso   1.00
C51    C     0.78325   0.05574   0.16847   0.00000  Uiso   1.00
C52    C     0.79678   0.12534   0.55485   0.00000  Uiso   1.00
C53    C     0.73987   0.11805   0.61633   0.00000  Uiso   1.00
C54    C     0.74955   0.05582   0.67360   0.00000  Uiso   1.00
C55    C     0.73823   0.96509   0.78111   0.00000  Uiso   1.00
C56    C     0.87023   0.22796   0.48782   0.00000  Uiso   1.00
C57    C     0.87509   0.30695   0.49296   0.00000  Uiso   1.00
C58    C     0.94661   0.33112   0.49381   0.00000  Uiso   1.00
C59    C     0.04934   0.39972   0.49724   0.00000  Uiso   1.00
C60    C     0.91613   0.09143   0.47842   0.00000  Uiso   1.00
C61    C     0.87170   0.09378   0.40608   0.00000  Uiso   1.00
C62    C     0.89041   0.04954   0.34165   0.00000  Uiso   1.00
C63    C     0.84248   0.06018   0.28142   0.00000  Uiso   1.00
C64    C     0.86106   0.07236   0.55072   0.00000  Uiso   1.00
C65    C     0.87083   0.01013   0.60792   0.00000  Uiso   1.00
C66    C     0.81395   0.00274   0.66946   0.00000  Uiso   1.00
C67    C     0.93452   0.17498   0.48369   0.00000  Uiso   1.00
C68    C     0.00605   0.19903   0.48454   0.00000  Uiso   1.00
C69    C     0.01102   0.27804   0.48967   0.00000  Uiso   1.00
H70    H     0.74772   0.23022   0.48925   0.00000  Uiso   1.00
H71    H     0.70970   0.19847   0.35328   0.00000  Uiso   1.00
H72    H     0.69013   0.15906   0.61952   0.00000  Uiso   1.00
H73    H     0.82533   0.34793   0.49615   0.00000  Uiso   1.00
H74    H     0.69589   0.13987   0.20073   0.00000  Uiso   1.00
H75    H     0.65464   0.05681   0.76211   0.00000  Uiso   1.00
H76    H     0.93973   0.45508   0.50198   0.00000  Uiso   1.00
H77    H     0.96619   0.05018   0.47521   0.00000  Uiso   1.00
H78    H     0.94016   0.00855   0.33847   0.00000  Uiso   1.00
H79    H     0.92058   0.96915   0.60470   0.00000  Uiso   1.00
H80    H     0.05578   0.15801   0.48134   0.00000  Uiso   1.00
H81    H     0.88293   0.98573   0.18871   0.00000  Uiso   1.00
H82    H     0.84168   0.90266   0.75009   0.00000  Uiso   1.00
H83    H     0.12677   0.30093   0.48996   0.00000  Uiso   1.00
O84    O     0.76833   0.03864   0.10504   0.00000  Uiso   1.00
O85    O     0.71422   0.92967   0.84155   0.00000  Uiso   1.00
O86    O     0.08825   0.45220   0.50026   0.00000  Uiso   1.00
N87    N     0.74349   0.10932   0.21666   0.00000  Uiso   1.00
N88    N     0.70491   0.03165   0.74151   0.00000  Uiso   1.00
N89    N     0.97145   0.40400   0.49833   0.00000  Uiso   1.00
N90    N     0.84414   0.02638   0.21019   0.00000  Uiso   1.00
N91    N     0.80556   0.94871   0.73504   0.00000  Uiso   1.00
N92    N     0.07210   0.32106   0.49186   0.00000  Uiso   1.00
C93    C     0.48782   0.79981   0.18833   0.00000  Uiso   1.00
C94    C     0.41613   0.80984   0.14573   0.00000  Uiso   1.00
C95    C     0.35893   0.76015   0.15689   0.00000  Uiso   1.00
C96    C     0.29801   0.77949   0.11222   0.00000  Uiso   1.00
C97    C     0.18726   0.78491   0.05425   0.00000  Uiso   1.00
C98    C     0.55302   0.79874   0.12311   0.00000  Uiso   1.00
C99    C     0.61091   0.73972   0.11526   0.00000  Uiso   1.00
C100   C     0.66523   0.74972   0.05154   0.00000  Uiso   1.00
C101   C     0.76702   0.73794   0.95848   0.00000  Uiso   1.00
C102   C     0.48987   0.87492   0.22816   0.00000  Uiso   1.00
C103   C     0.49469   0.87996   0.30863   0.00000  Uiso   1.00
C104   C     0.49586   0.95409   0.33336   0.00000  Uiso   1.00
C105   C     0.49961   0.06059   0.40340   0.00000  Uiso   1.00
C106   C     0.48135   0.92251   0.08914   0.00000  Uiso   1.00
C107   C     0.41263   0.87649   0.09186   0.00000  Uiso   1.00
C108   C     0.35178   0.89591   0.04716   0.00000  Uiso   1.00
C109   C     0.29449   0.84626   0.05825   0.00000  Uiso   1.00
C110   C     0.54951   0.86538   0.06923   0.00000  Uiso   1.00
C111   C     0.60376   0.87548   0.00552   0.00000  Uiso   1.00
C112   C     0.66171   0.81649   0.99757   0.00000  Uiso   1.00
C113   C     0.48636   0.94157   0.17429   0.00000  Uiso   1.00
C114   C     0.48753   0.01571   0.19889   0.00000  Uiso   1.00
C115   C     0.49235   0.02086   0.27939   0.00000  Uiso   1.00
H116   H     0.49056   0.74792   0.23027   0.00000  Uiso   1.00
H117   H     0.36167   0.70857   0.19859   0.00000  Uiso   1.00
H118   H     0.61362   0.68816   0.15696   0.00000  Uiso   1.00
H119   H     0.49741   0.82837   0.35031   0.00000  Uiso   1.00
H120   H     0.21725   0.69433   0.13969   0.00000  Uiso   1.00
H121   H     0.74850   0.65129   0.05193   0.00000  Uiso   1.00
H122   H     0.50345   0.94695   0.45964   0.00000  Uiso   1.00
H123   H     0.47862   0.97440   0.04719   0.00000  Uiso   1.00
H124   H     0.34907   0.94749   0.00547   0.00000  Uiso   1.00
H125   H     0.60102   0.92706   0.96384   0.00000  Uiso   1.00
H126   H     0.48481   0.06727   0.15718   0.00000  Uiso   1.00
H127   H     0.20702   0.88824   0.98294   0.00000  Uiso   1.00
H128   H     0.73828   0.84520   0.89519   0.00000  Uiso   1.00
H129   H     0.49323   0.14086   0.30289   0.00000  Uiso   1.00
O130   O     0.12715   0.76948   0.03715   0.00000  Uiso   1.00
O131   O     0.82413   0.71302   0.92203   0.00000  Uiso   1.00
O132   O     0.50264   0.10092   0.45692   0.00000  Uiso   1.00
N133   N     0.23261   0.74367   0.10853   0.00000  Uiso   1.00
N134   N     0.72929   0.70342   0.02648   0.00000  Uiso   1.00
N135   N     0.50022   0.97984   0.40765   0.00000  Uiso   1.00
N136   N     0.22711   0.84801   0.02419   0.00000  Uiso   1.00
N137   N     0.72379   0.80776   0.94214   0.00000  Uiso   1.00
N138   N     0.49472   0.08418   0.32330   0.00000  Uiso   1.00
C139   C     0.80928   0.51300   0.19880   0.00000  Uiso   1.00
C140   C     0.84999   0.58729   0.18845   0.00000  Uiso   1.00
C141   C     0.83970   0.64659   0.23924   0.00000  Uiso   1.00
C142   C     0.88233   0.70972   0.21938   0.00000  Uiso   1.00
C143   C     0.93782   0.82450   0.21371   0.00000  Uiso   1.00
C144   C     0.87066   0.44538   0.19944   0.00000  Uiso   1.00
C145   C     0.87772   0.38536   0.25946   0.00000  Uiso   1.00
C146   C     0.93775   0.32902   0.24884   0.00000  Uiso   1.00
C147   C     0.02527   0.22345   0.26019   0.00000  Uiso   1.00
C148   C     0.77163   0.51089   0.12247   0.00000  Uiso   1.00
C149   C     0.69543   0.50593   0.11777   0.00000  Uiso   1.00
C150   C     0.67208   0.50473   0.04235   0.00000  Uiso   1.00
C151   C     0.60585   0.50089   0.93420   0.00000  Uiso   1.00
C152   C     0.90331   0.51966   0.07323   0.00000  Uiso   1.00
C153   C     0.90107   0.59090   0.12025   0.00000  Uiso   1.00
C154   C     0.94374   0.65396   0.10031   0.00000  Uiso   1.00
C155   C     0.93350   0.71334   0.15105   0.00000  Uiso   1.00
C156   C     0.92173   0.44899   0.13124   0.00000  Uiso   1.00
C157   C     0.98176   0.39272   0.12052   0.00000  Uiso   1.00
C158   C     0.98892   0.33264   0.18051   0.00000  Uiso   1.00
C159   C     0.82270   0.51451   0.05426   0.00000  Uiso   1.00
C160   C     0.79947   0.51331   0.97884   0.00000  Uiso   1.00
C161   C     0.72325   0.50835   0.97402   0.00000  Uiso   1.00
H162   H     0.76951   0.51018   0.25191   0.00000  Uiso   1.00
H163   H     0.80017   0.64377   0.29202   0.00000  Uiso   1.00
H164   H     0.83818   0.38257   0.31223   0.00000  Uiso   1.00
H165   H     0.65592   0.50314   0.17056   0.00000  Uiso   1.00
H166   H     0.85670   0.79345   0.30643   0.00000  Uiso   1.00
H167   H     0.93684   0.24270   0.34903   0.00000  Uiso   1.00
H168   H     0.55250   0.49693   0.05030   0.00000  Uiso   1.00
H169   H     0.94308   0.52247   0.02013   0.00000  Uiso   1.00
H170   H     0.98326   0.65674   0.04752   0.00000  Uiso   1.00
H171   H     0.02127   0.39554   0.06773   0.00000  Uiso   1.00
H172   H     0.83901   0.51610   0.92607   0.00000  Uiso   1.00
H173   H     0.00531   0.80398   0.10799   0.00000  Uiso   1.00
H174   H     0.08544   0.25322   0.15058   0.00000  Uiso   1.00
H175   H     0.70111   0.50745   0.85186   0.00000  Uiso   1.00
O176   O     0.95432   0.88681   0.22942   0.00000  Uiso   1.00
O177   O     0.05944   0.16423   0.28530   0.00000  Uiso   1.00
O178   O     0.55521   0.49778   0.89338   0.00000  Uiso   1.00
N179   N     0.88615   0.77751   0.25596   0.00000  Uiso   1.00
N180   N     0.96108   0.26259   0.29579   0.00000  Uiso   1.00
N181   N     0.60176   0.50026   0.01651   0.00000  Uiso   1.00
N182   N     0.96611   0.78318   0.14918   0.00000  Uiso   1.00
N183   N     0.04104   0.26826   0.18901   0.00000  Uiso   1.00
N184   N     0.68173   0.50592   0.90973   0.00000  Uiso   1.00
C185   C     0.20223   0.81103   0.51397   0.00000  Uiso   1.00
C186   C     0.19258   0.85324   0.58980   0.00000  Uiso   1.00
C187   C     0.24055   0.84254   0.64994   0.00000  Uiso   1.00
C188   C     0.22193   0.88675   0.71444   0.00000  Uiso   1.00
C189   C     0.21675   0.94426   0.83153   0.00000  Uiso   1.00
C190   C     0.20322   0.87466   0.44515   0.00000  Uiso   1.00
C191   C     0.26013   0.88195   0.38367   0.00000  Uiso   1.00
C192   C     0.25045   0.94418   0.32640   0.00000  Uiso   1.00
C193   C     0.26177   0.03491   0.21889   0.00000  Uiso   1.00
C194   C     0.12977   0.77204   0.51218   0.00000  Uiso   1.00
C195   C     0.12491   0.69305   0.50704   0.00000  Uiso   1.00
C196   C     0.05339   0.66888   0.50619   0.00000  Uiso   1.00
C197   C     0.95066   0.60028   0.50276   0.00000  Uiso   1.00
C198   C     0.08387   0.90857   0.52158   0.00000  Uiso   1.00
C199   C     0.12830   0.90622   0.59392   0.00000  Uiso   1.00
C200   C     0.10959   0.95046   0.65835   0.00000  Uiso   1.00
C201   C     0.15752   0.93982   0.71858   0.00000  Uiso   1.00
C202   C     0.13894   0.92764   0.44928   0.00000  Uiso   1.00
C203   C     0.12917   0.98987   0.39208   0.00000  Uiso   1.00
C204   C     0.18605   0.99726   0.33054   0.00000  Uiso   1.00
C205   C     0.06548   0.82502   0.51631   0.00000  Uiso   1.00
C206   C     0.99395   0.80097   0.51546   0.00000  Uiso   1.00
C207   C     0.98898   0.72196   0.51033   0.00000  Uiso   1.00
H208   H     0.25228   0.76978   0.51075   0.00000  Uiso   1.00
H209   H     0.29030   0.80153   0.64672   0.00000  Uiso   1.00
H210   H     0.30987   0.84094   0.38048   0.00000  Uiso   1.00
H211   H     0.17467   0.65207   0.50385   0.00000  Uiso   1.00
H212   H     0.30411   0.86013   0.79927   0.00000  Uiso   1.00
H213   H     0.34536   0.94319   0.23789   0.00000  Uiso   1.00
H214   H     0.06027   0.54492   0.49802   0.00000  Uiso   1.00
H215   H     0.03381   0.94982   0.52479   0.00000  Uiso   1.00
H216   H     0.05984   0.99145   0.66153   0.00000  Uiso   1.00
H217   H     0.07942   0.03085   0.39530   0.00000  Uiso   1.00
H218   H     0.94422   0.84199   0.51866   0.00000  Uiso   1.00
H219   H     0.11707   0.01427   0.81129   0.00000  Uiso   1.00
H220   H     0.15832   0.09734   0.24991   0.00000  Uiso   1.00
H221   H     0.87323   0.69907   0.51004   0.00000  Uiso   1.00
O222   O     0.23167   0.96136   0.89496   0.00000  Uiso   1.00
O223   O     0.28578   0.07032   0.15845   0.00000  Uiso   1.00
O224   O     0.91175   0.54780   0.49974   0.00000  Uiso   1.00
N225   N     0.25651   0.89068   0.78334   0.00000  Uiso   1.00
N226   N     0.29509   0.96835   0.25849   0.00000  Uiso   1.00
N227   N     0.02855   0.59600   0.50167   0.00000  Uiso   1.00
N228   N     0.15586   0.97362   0.78981   0.00000  Uiso   1.00
N229   N     0.19444   0.05129   0.26496   0.00000  Uiso   1.00
N230   N     0.92790   0.67895   0.50814   0.00000  Uiso   1.00
C231   C     0.51218   0.20019   0.81167   0.00000  Uiso   1.00
C232   C     0.58387   0.19016   0.85427   0.00000  Uiso   1.00
C233   C     0.64107   0.23985   0.84311   0.00000  Uiso   1.00
C234   C     0.70198   0.22051   0.88778   0.00000  Uiso   1.00
C235   C     0.81274   0.21509   0.94575   0.00000  Uiso   1.00
C236   C     0.44698   0.20126   0.87689   0.00000  Uiso   1.00
C237   C     0.38909   0.26028   0.88474   0.00000  Uiso   1.00
C238   C     0.33477   0.25028   0.94846   0.00000  Uiso   1.00
C239   C     0.23298   0.26206   0.04152   0.00000  Uiso   1.00
C240   C     0.51013   0.12508   0.77184   0.00000  Uiso   1.00
C241   C     0.50531   0.12004   0.69137   0.00000  Uiso   1.00
C242   C     0.50414   0.04591   0.66664   0.00000  Uiso   1.00
C243   C     0.50039   0.93941   0.59660   0.00000  Uiso   1.00
C244   C     0.51865   0.07749   0.91086   0.00000  Uiso   1.00
C245   C     0.58737   0.12351   0.90814   0.00000  Uiso   1.00
C246   C     0.64822   0.10409   0.95285   0.00000  Uiso   1.00
C247   C     0.70551   0.15374   0.94175   0.00000  Uiso   1.00
C248   C     0.45049   0.13462   0.93077   0.00000  Uiso   1.00
C249   C     0.39624   0.12452   0.99448   0.00000  Uiso   1.00
C250   C     0.33829   0.18351   0.00243   0.00000  Uiso   1.00
C251   C     0.51364   0.05843   0.82571   0.00000  Uiso   1.00
C252   C     0.51247   0.98429   0.80111   0.00000  Uiso   1.00
C253   C     0.50765   0.97914   0.72061   0.00000  Uiso   1.00
H254   H     0.50944   0.25208   0.76973   0.00000  Uiso   1.00
H255   H     0.63833   0.29143   0.80141   0.00000  Uiso   1.00
H256   H     0.38638   0.31184   0.84304   0.00000  Uiso   1.00
H257   H     0.50259   0.17163   0.64970   0.00000  Uiso   1.00
H258   H     0.78275   0.30567   0.86031   0.00000  Uiso   1.00
H259   H     0.25150   0.34871   0.94807   0.00000  Uiso   1.00
H260   H     0.49655   0.05305   0.54037   0.00000  Uiso   1.00
H261   H     0.52138   0.02560   0.95281   0.00000  Uiso   1.00
H262   H     0.65092   0.05251   0.99453   0.00000  Uiso   1.00
H263   H     0.39898   0.07294   0.03616   0.00000  Uiso   1.00
H264   H     0.51519   0.93273   0.84282   0.00000  Uiso   1.00
H265   H     0.79297   0.11176   0.01706   0.00000  Uiso   1.00
H266   H     0.26172   0.15480   0.10481   0.00000  Uiso   1.00
H267   H     0.50677   0.85914   0.69711   0.00000  Uiso   1.00
O268   O     0.87285   0.23052   0.96285   0.00000  Uiso   1.00
O269   O     0.17587   0.28698   0.07797   0.00000  Uiso   1.00
O270   O     0.49736   0.89908   0.54308   0.00000  Uiso   1.00
N271   N     0.76739   0.25633   0.89147   0.00000  Uiso   1.00
N272   N     0.27071   0.29658   0.97352   0.00000  Uiso   1.00
N273   N     0.49978   0.02016   0.59235   0.00000  Uiso   1.00
N274   N     0.77289   0.15199   0.97581   0.00000  Uiso   1.00
N275   N     0.27621   0.19224   0.05786   0.00000  Uiso   1.00
N276   N     0.50528   0.91582   0.67670   0.00000  Uiso   1.00
