data_job_04663
_audit_creation_date              2018-12-19
_audit_creation_method            'Materials Studio'
_symmetry_space_group_name_H-M    'P1'
_symmetry_Int_Tables_number       1
_symmetry_cell_setting            triclinic
loop_
_symmetry_equiv_pos_as_xyz
  x,y,z
_cell_length_a                    15.4515
_cell_length_b                    16.0643
_cell_length_c                    9.5800
_cell_angle_alpha                 90.0000
_cell_angle_beta                  87.1611
_cell_angle_gamma                 90.0000
loop_
_atom_site_label
_atom_site_type_symbol
_atom_site_fract_x
_atom_site_fract_y
_atom_site_fract_z
_atom_site_U_iso_or_equiv
_atom_site_adp_type
_atom_site_occupancy
C1     C     0.95409   0.25841   0.58601   0.00000  Uiso   1.00
C2     C     0.98630   0.19133   0.48348   0.00000  Uiso   1.00
C3     C     0.98795   0.19724   0.33885   0.00000  Uiso   1.00
C4     C     0.01985   0.12910   0.26347   0.00000  Uiso   1.00
C5     C     0.06547   0.03582   0.09407   0.00000  Uiso   1.00
C6     C     0.02912   0.27619   0.67923   0.00000  Uiso   1.00
C7     C     0.06675   0.35345   0.69919   0.00000  Uiso   1.00
C8     C     0.13468   0.35674   0.78862   0.00000  Uiso   1.00
C9     C     0.24673   0.39522   0.92319   0.00000  Uiso   1.00
C10    C     0.88368   0.21757   0.67986   0.00000  Uiso   1.00
C11    C     0.79903   0.24556   0.70039   0.00000  Uiso   1.00
C12    C     0.74453   0.19950   0.79038   0.00000  Uiso   1.00
C13    C     0.63077   0.14697   0.92594   0.00000  Uiso   1.00
C14    C     0.00783   0.12687   0.70934   0.00000  Uiso   1.00
C15    C     0.01549   0.11989   0.55047   0.00000  Uiso   1.00
C16    C     0.04740   0.05171   0.47529   0.00000  Uiso   1.00
C17    C     0.04909   0.05752   0.33058   0.00000  Uiso   1.00
C18    C     0.05831   0.20475   0.74621   0.00000  Uiso   1.00
C19    C     0.12620   0.20792   0.83564   0.00000  Uiso   1.00
C20    C     0.16393   0.28516   0.85573   0.00000  Uiso   1.00
C21    C     0.91287   0.14612   0.74684   0.00000  Uiso   1.00
C22    C     0.85849   0.10002   0.83683   0.00000  Uiso   1.00
C23    C     0.77377   0.12793   0.85749   0.00000  Uiso   1.00
H24    H     0.93137   0.31404   0.53387   0.00000  Uiso   1.00
H25    H     0.96536   0.25255   0.28705   0.00000  Uiso   1.00
H26    H     0.04414   0.40873   0.64735   0.00000  Uiso   1.00
H27    H     0.77647   0.30085   0.64854   0.00000  Uiso   1.00
H28    H     0.01595   0.15288   0.04294   0.00000  Uiso   1.00
H29    H     0.18204   0.48221   0.80269   0.00000  Uiso   1.00
H30    H     0.61761   0.25472   0.80520   0.00000  Uiso   1.00
H31    H     0.03055   0.07125   0.76150   0.00000  Uiso   1.00
H32    H     0.06998   0.99643   0.52716   0.00000  Uiso   1.00
H33    H     0.14877   0.15262   0.88746   0.00000  Uiso   1.00
H34    H     0.88110   0.04473   0.88865   0.00000  Uiso   1.00
H35    H     0.10087   0.94501   0.23783   0.00000  Uiso   1.00
H36    H     0.26696   0.27434   0.99758   0.00000  Uiso   1.00
H37    H     0.70253   0.04684   0.00009   0.00000  Uiso   1.00
O38    O     0.08258   0.00412   0.98212   0.00000  Uiso   1.00
O39    O     0.30048   0.43619   0.97890   0.00000  Uiso   1.00
O40    O     0.55996   0.13772   0.98219   0.00000  Uiso   1.00
N41    N     0.03050   0.11422   0.12097   0.00000  Uiso   1.00
N42    N     0.18580   0.42212   0.83127   0.00000  Uiso   1.00
N43    N     0.65811   0.20945   0.83365   0.00000  Uiso   1.00
N44    N     0.07620   0.00236   0.22583   0.00000  Uiso   1.00
N45    N     0.23149   0.31026   0.93614   0.00000  Uiso   1.00
N46    N     0.70380   0.09759   0.93851   0.00000  Uiso   1.00
C47    C     0.45175   0.25357   0.63726   0.00000  Uiso   1.00
C48    C     0.47947   0.31932   0.74082   0.00000  Uiso   1.00
C49    C     0.47470   0.31160   0.88527   0.00000  Uiso   1.00
C50    C     0.50331   0.37876   0.96169   0.00000  Uiso   1.00
C51    C     0.54149   0.46986   0.13249   0.00000  Uiso   1.00
C52    C     0.53099   0.23690   0.54001   0.00000  Uiso   1.00
C53    C     0.56951   0.15988   0.51563   0.00000  Uiso   1.00
C54    C     0.64148   0.15766   0.42299   0.00000  Uiso   1.00
C55    C     0.75960   0.12079   0.28197   0.00000  Uiso   1.00
C56    C     0.38546   0.29562   0.54793   0.00000  Uiso   1.00
C57    C     0.30163   0.26797   0.53016   0.00000  Uiso   1.00
C58    C     0.25108   0.31518   0.44415   0.00000  Uiso   1.00
C59    C     0.14324   0.36949   0.31541   0.00000  Uiso   1.00
C60    C     0.51106   0.38658   0.51610   0.00000  Uiso   1.00
C61    C     0.51169   0.39157   0.67500   0.00000  Uiso   1.00
C62    C     0.54032   0.45876   0.75122   0.00000  Uiso   1.00
C63    C     0.53558   0.45114   0.89576   0.00000  Uiso   1.00
C64    C     0.56320   0.30914   0.47420   0.00000  Uiso   1.00
C65    C     0.63513   0.30704   0.38157   0.00000  Uiso   1.00
C66    C     0.67376   0.23004   0.35706   0.00000  Uiso   1.00
C67    C     0.41767   0.36787   0.48211   0.00000  Uiso   1.00
C68    C     0.36724   0.41514   0.39611   0.00000  Uiso   1.00
C69    C     0.28335   0.38756   0.37822   0.00000  Uiso   1.00
H70    H     0.42668   0.19732   0.68850   0.00000  Uiso   1.00
H71    H     0.44977   0.25567   0.93617   0.00000  Uiso   1.00
H72    H     0.54456   0.10398   0.56656   0.00000  Uiso   1.00
H73    H     0.27672   0.21206   0.58110   0.00000  Uiso   1.00
H74    H     0.48961   0.35222   0.18173   0.00000  Uiso   1.00
H75    H     0.68946   0.03236   0.40237   0.00000  Uiso   1.00
H76    H     0.12467   0.26026   0.43302   0.00000  Uiso   1.00
H77    H     0.53614   0.44283   0.46485   0.00000  Uiso   1.00
H78    H     0.56524   0.51466   0.70026   0.00000  Uiso   1.00
H79    H     0.66003   0.36296   0.33066   0.00000  Uiso   1.00
H80    H     0.39219   0.47104   0.34520   0.00000  Uiso   1.00
H81    H     0.58333   0.56243   0.99026   0.00000  Uiso   1.00
H82    H     0.78319   0.24256   0.21089   0.00000  Uiso   1.00
H83    H     0.21839   0.47046   0.24155   0.00000  Uiso   1.00
O84    O     0.55367   0.50014   0.24488   0.00000  Uiso   1.00
O85    O     0.81585   0.08049   0.22237   0.00000  Uiso   1.00
O86    O     0.07485   0.37949   0.26260   0.00000  Uiso   1.00
N87    N     0.50766   0.39184   0.10436   0.00000  Uiso   1.00
N88    N     0.69452   0.09279   0.37572   0.00000  Uiso   1.00
N89    N     0.16649   0.30585   0.40435   0.00000  Uiso   1.00
N90    N     0.55809   0.50495   0.00133   0.00000  Uiso   1.00
N91    N     0.74495   0.20590   0.27269   0.00000  Uiso   1.00
N92    N     0.21692   0.41896   0.30132   0.00000  Uiso   1.00
C93    C     0.04591   0.75841   0.41399   0.00000  Uiso   1.00
C94    C     0.01370   0.69133   0.51652   0.00000  Uiso   1.00
C95    C     0.01205   0.69724   0.66115   0.00000  Uiso   1.00
C96    C     0.98015   0.62910   0.73653   0.00000  Uiso   1.00
C97    C     0.93453   0.53582   0.90593   0.00000  Uiso   1.00
C98    C     0.97088   0.77619   0.32077   0.00000  Uiso   1.00
C99    C     0.93325   0.85345   0.30081   0.00000  Uiso   1.00
C100   C     0.86532   0.85674   0.21138   0.00000  Uiso   1.00
C101   C     0.75327   0.89522   0.07681   0.00000  Uiso   1.00
C102   C     0.11632   0.71757   0.32014   0.00000  Uiso   1.00
C103   C     0.20097   0.74556   0.29961   0.00000  Uiso   1.00
C104   C     0.25547   0.69950   0.20962   0.00000  Uiso   1.00
C105   C     0.36923   0.64697   0.07406   0.00000  Uiso   1.00
C106   C     0.99217   0.62687   0.29066   0.00000  Uiso   1.00
C107   C     0.98451   0.61989   0.44953   0.00000  Uiso   1.00
C108   C     0.95260   0.55171   0.52471   0.00000  Uiso   1.00
C109   C     0.95091   0.55752   0.66942   0.00000  Uiso   1.00
C110   C     0.94169   0.70475   0.25379   0.00000  Uiso   1.00
C111   C     0.87380   0.70792   0.16436   0.00000  Uiso   1.00
C112   C     0.83607   0.78516   0.14427   0.00000  Uiso   1.00
C113   C     0.08713   0.64612   0.25316   0.00000  Uiso   1.00
C114   C     0.14151   0.60002   0.16317   0.00000  Uiso   1.00
C115   C     0.22623   0.62793   0.14251   0.00000  Uiso   1.00
H116   H     0.06863   0.81404   0.46613   0.00000  Uiso   1.00
H117   H     0.03464   0.75255   0.71295   0.00000  Uiso   1.00
H118   H     0.95586   0.90873   0.35265   0.00000  Uiso   1.00
H119   H     0.22353   0.80085   0.35146   0.00000  Uiso   1.00
H120   H     0.98405   0.65288   0.95706   0.00000  Uiso   1.00
H121   H     0.81796   0.98221   0.19731   0.00000  Uiso   1.00
H122   H     0.38239   0.75472   0.19480   0.00000  Uiso   1.00
H123   H     0.96945   0.57125   0.23850   0.00000  Uiso   1.00
H124   H     0.93002   0.49643   0.47284   0.00000  Uiso   1.00
H125   H     0.85123   0.65262   0.11254   0.00000  Uiso   1.00
H126   H     0.11890   0.54473   0.11135   0.00000  Uiso   1.00
H127   H     0.89913   0.44501   0.76217   0.00000  Uiso   1.00
H128   H     0.73304   0.77434   0.00242   0.00000  Uiso   1.00
H129   H     0.29747   0.54684   0.99991   0.00000  Uiso   1.00
O130   O     0.91742   0.50412   0.01788   0.00000  Uiso   1.00
O131   O     0.69952   0.93619   0.02110   0.00000  Uiso   1.00
O132   O     0.44004   0.63772   0.01781   0.00000  Uiso   1.00
N133   N     0.96950   0.61422   0.87903   0.00000  Uiso   1.00
N134   N     0.81420   0.92212   0.16873   0.00000  Uiso   1.00
N135   N     0.34189   0.70945   0.16635   0.00000  Uiso   1.00
N136   N     0.92380   0.50236   0.77417   0.00000  Uiso   1.00
N137   N     0.76851   0.81026   0.06386   0.00000  Uiso   1.00
N138   N     0.29620   0.59759   0.06149   0.00000  Uiso   1.00
C139   C     0.54825   0.75357   0.36274   0.00000  Uiso   1.00
C140   C     0.52053   0.81932   0.25918   0.00000  Uiso   1.00
C141   C     0.52530   0.81160   0.11473   0.00000  Uiso   1.00
C142   C     0.49669   0.87876   0.03831   0.00000  Uiso   1.00
C143   C     0.45851   0.96986   0.86751   0.00000  Uiso   1.00
C144   C     0.46901   0.73690   0.45999   0.00000  Uiso   1.00
C145   C     0.43049   0.65988   0.48437   0.00000  Uiso   1.00
C146   C     0.35852   0.65766   0.57701   0.00000  Uiso   1.00
C147   C     0.24040   0.62079   0.71803   0.00000  Uiso   1.00
C148   C     0.61454   0.79562   0.45207   0.00000  Uiso   1.00
C149   C     0.69837   0.76797   0.46984   0.00000  Uiso   1.00
C150   C     0.74892   0.81518   0.55585   0.00000  Uiso   1.00
C151   C     0.85676   0.86949   0.68459   0.00000  Uiso   1.00
C152   C     0.48894   0.88658   0.48390   0.00000  Uiso   1.00
C153   C     0.48831   0.89157   0.32500   0.00000  Uiso   1.00
C154   C     0.45968   0.95876   0.24878   0.00000  Uiso   1.00
C155   C     0.46442   0.95114   0.10424   0.00000  Uiso   1.00
C156   C     0.43680   0.80914   0.52580   0.00000  Uiso   1.00
C157   C     0.36487   0.80704   0.61843   0.00000  Uiso   1.00
C158   C     0.32624   0.73004   0.64294   0.00000  Uiso   1.00
C159   C     0.58233   0.86787   0.51789   0.00000  Uiso   1.00
C160   C     0.63276   0.91514   0.60389   0.00000  Uiso   1.00
C161   C     0.71665   0.88756   0.62178   0.00000  Uiso   1.00
H162   H     0.57332   0.69732   0.31150   0.00000  Uiso   1.00
H163   H     0.55023   0.75567   0.06383   0.00000  Uiso   1.00
H164   H     0.45544   0.60398   0.43344   0.00000  Uiso   1.00
H165   H     0.72328   0.71206   0.41890   0.00000  Uiso   1.00
H166   H     0.51039   0.85222   0.81827   0.00000  Uiso   1.00
H167   H     0.31054   0.53236   0.59763   0.00000  Uiso   1.00
H168   H     0.87533   0.76026   0.56698   0.00000  Uiso   1.00
H169   H     0.46386   0.94283   0.53515   0.00000  Uiso   1.00
H170   H     0.43476   0.01466   0.29974   0.00000  Uiso   1.00
H171   H     0.33997   0.86296   0.66934   0.00000  Uiso   1.00
H172   H     0.60781   0.97104   0.65480   0.00000  Uiso   1.00
H173   H     0.41667   0.06243   0.00974   0.00000  Uiso   1.00
H174   H     0.21681   0.74256   0.78911   0.00000  Uiso   1.00
H175   H     0.78161   0.97046   0.75845   0.00000  Uiso   1.00
O176   O     0.44633   0.00014   0.75512   0.00000  Uiso   1.00
O177   O     0.18415   0.58049   0.77763   0.00000  Uiso   1.00
O178   O     0.92515   0.87949   0.73740   0.00000  Uiso   1.00
N179   N     0.49234   0.89184   0.89564   0.00000  Uiso   1.00
N180   N     0.30548   0.59279   0.62428   0.00000  Uiso   1.00
N181   N     0.83351   0.80585   0.59565   0.00000  Uiso   1.00
N182   N     0.44191   0.00495   0.99867   0.00000  Uiso   1.00
N183   N     0.25505   0.70590   0.72731   0.00000  Uiso   1.00
N184   N     0.78308   0.91896   0.69868   0.00000  Uiso   1.00
