data_job_04939
_audit_creation_date              2018-12-19
_audit_creation_method            'Materials Studio'
_symmetry_space_group_name_H-M    'P1'
_symmetry_Int_Tables_number       1
_symmetry_cell_setting            triclinic
loop_
_symmetry_equiv_pos_as_xyz
  x,y,z
_cell_length_a                    7.0254
_cell_length_b                    26.9323
_cell_length_c                    12.2658
_cell_angle_alpha                 90.0000
_cell_angle_beta                  90.0000
_cell_angle_gamma                 90.0000
loop_
_atom_site_label
_atom_site_type_symbol
_atom_site_fract_x
_atom_site_fract_y
_atom_site_fract_z
_atom_site_U_iso_or_equiv
_atom_site_adp_type
_atom_site_occupancy
C1     C     0.39566   0.60823   0.30329   0.00000  Uiso   1.00
C2     C     0.42480   0.63099   0.19068   0.00000  Uiso   1.00
C3     C     0.28238   0.64957   0.12374   0.00000  Uiso   1.00
C4     C     0.33820   0.66882   0.02372   0.00000  Uiso   1.00
C5     C     0.35433   0.70403   0.85368   0.00000  Uiso   1.00
C6     C     0.48282   0.55643   0.29814   0.00000  Uiso   1.00
C7     C     0.38917   0.51233   0.32157   0.00000  Uiso   1.00
C8     C     0.49385   0.46882   0.31202   0.00000  Uiso   1.00
C9     C     0.60008   0.38828   0.30889   0.00000  Uiso   1.00
C10    C     0.52087   0.63806   0.38091   0.00000  Uiso   1.00
C11    C     0.45922   0.66258   0.47395   0.00000  Uiso   1.00
C12    C     0.59595   0.68778   0.53410   0.00000  Uiso   1.00
C13    C     0.76125   0.73399   0.65948   0.00000  Uiso   1.00
C14    C     0.74808   0.60937   0.24471   0.00000  Uiso   1.00
C15    C     0.61623   0.63160   0.15886   0.00000  Uiso   1.00
C16    C     0.67229   0.65083   0.05892   0.00000  Uiso   1.00
C17    C     0.52997   0.66944   0.99184   0.00000  Uiso   1.00
C18    C     0.67424   0.55705   0.26632   0.00000  Uiso   1.00
C19    C     0.77908   0.51359   0.25675   0.00000  Uiso   1.00
C20    C     0.68561   0.46944   0.28014   0.00000  Uiso   1.00
C21    C     0.71229   0.63868   0.34908   0.00000  Uiso   1.00
C22    C     0.84914   0.66385   0.40911   0.00000  Uiso   1.00
C23    C     0.78771   0.68840   0.50222   0.00000  Uiso   1.00
H24    H     0.24663   0.60774   0.32807   0.00000  Uiso   1.00
H25    H     0.13425   0.64908   0.14840   0.00000  Uiso   1.00
H26    H     0.24104   0.51186   0.34620   0.00000  Uiso   1.00
H27    H     0.31108   0.66209   0.49855   0.00000  Uiso   1.00
H28    H     0.09406   0.69516   0.93514   0.00000  Uiso   1.00
H29    H     0.31925   0.40583   0.35226   0.00000  Uiso   1.00
H30    H     0.46694   0.72262   0.67352   0.00000  Uiso   1.00
H31    H     0.89712   0.60985   0.21993   0.00000  Uiso   1.00
H32    H     0.82044   0.65131   0.03431   0.00000  Uiso   1.00
H33    H     0.92722   0.51409   0.23212   0.00000  Uiso   1.00
H34    H     0.99726   0.66432   0.38446   0.00000  Uiso   1.00
H35    H     0.65099   0.69697   0.84254   0.00000  Uiso   1.00
H36    H     0.87618   0.40764   0.25967   0.00000  Uiso   1.00
H37    H     0.02388   0.72443   0.58092   0.00000  Uiso   1.00
O38    O     0.31034   0.72328   0.76867   0.00000  Uiso   1.00
O39    O     0.60578   0.34369   0.31595   0.00000  Uiso   1.00
O40    O     0.79955   0.75931   0.73741   0.00000  Uiso   1.00
N41    N     0.23566   0.68991   0.93883   0.00000  Uiso   1.00
N42    N     0.44619   0.41940   0.32880   0.00000  Uiso   1.00
N43    N     0.58428   0.71556   0.62916   0.00000  Uiso   1.00
N44    N     0.53535   0.69088   0.88901   0.00000  Uiso   1.00
N45    N     0.74587   0.42037   0.27897   0.00000  Uiso   1.00
N46    N     0.88396   0.71653   0.57933   0.00000  Uiso   1.00
C47    C     0.10434   0.39177   0.80329   0.00000  Uiso   1.00
C48    C     0.07520   0.36901   0.69068   0.00000  Uiso   1.00
C49    C     0.21762   0.35043   0.62374   0.00000  Uiso   1.00
C50    C     0.16180   0.33118   0.52372   0.00000  Uiso   1.00
C51    C     0.14567   0.29597   0.35368   0.00000  Uiso   1.00
C52    C     0.01718   0.44357   0.79814   0.00000  Uiso   1.00
C53    C     0.11083   0.48767   0.82157   0.00000  Uiso   1.00
C54    C     0.00615   0.53118   0.81202   0.00000  Uiso   1.00
C55    C     0.89992   0.61172   0.80889   0.00000  Uiso   1.00
C56    C     0.97913   0.36194   0.88091   0.00000  Uiso   1.00
C57    C     0.04078   0.33742   0.97395   0.00000  Uiso   1.00
C58    C     0.90405   0.31222   0.03410   0.00000  Uiso   1.00
C59    C     0.73875   0.26601   0.15948   0.00000  Uiso   1.00
C60    C     0.75192   0.39063   0.74471   0.00000  Uiso   1.00
C61    C     0.88377   0.36840   0.65886   0.00000  Uiso   1.00
C62    C     0.82771   0.34917   0.55892   0.00000  Uiso   1.00
C63    C     0.97003   0.33056   0.49184   0.00000  Uiso   1.00
C64    C     0.82576   0.44295   0.76632   0.00000  Uiso   1.00
C65    C     0.72092   0.48641   0.75675   0.00000  Uiso   1.00
C66    C     0.81439   0.53056   0.78014   0.00000  Uiso   1.00
C67    C     0.78771   0.36132   0.84908   0.00000  Uiso   1.00
C68    C     0.65086   0.33615   0.90911   0.00000  Uiso   1.00
C69    C     0.71229   0.31160   0.00222   0.00000  Uiso   1.00
H70    H     0.25337   0.39226   0.82807   0.00000  Uiso   1.00
H71    H     0.36575   0.35092   0.64840   0.00000  Uiso   1.00
H72    H     0.25896   0.48814   0.84620   0.00000  Uiso   1.00
H73    H     0.18892   0.33791   0.99855   0.00000  Uiso   1.00
H74    H     0.40594   0.30484   0.43514   0.00000  Uiso   1.00
H75    H     0.18075   0.59417   0.85226   0.00000  Uiso   1.00
H76    H     0.03306   0.27738   0.17352   0.00000  Uiso   1.00
H77    H     0.60288   0.39015   0.71993   0.00000  Uiso   1.00
H78    H     0.67956   0.34869   0.53431   0.00000  Uiso   1.00
H79    H     0.57278   0.48591   0.73212   0.00000  Uiso   1.00
H80    H     0.50274   0.33568   0.88446   0.00000  Uiso   1.00
H81    H     0.84901   0.30303   0.34254   0.00000  Uiso   1.00
H82    H     0.62382   0.59236   0.75967   0.00000  Uiso   1.00
H83    H     0.47612   0.27557   0.08092   0.00000  Uiso   1.00
O84    O     0.18966   0.27672   0.26867   0.00000  Uiso   1.00
O85    O     0.89422   0.65631   0.81595   0.00000  Uiso   1.00
O86    O     0.70045   0.24069   0.23741   0.00000  Uiso   1.00
N87    N     0.26434   0.31009   0.43883   0.00000  Uiso   1.00
N88    N     0.05381   0.58060   0.82880   0.00000  Uiso   1.00
N89    N     0.91572   0.28444   0.12916   0.00000  Uiso   1.00
N90    N     0.96465   0.30912   0.38901   0.00000  Uiso   1.00
N91    N     0.75413   0.57963   0.77897   0.00000  Uiso   1.00
N92    N     0.61604   0.28347   0.07933   0.00000  Uiso   1.00
C93    C     0.60434   0.10823   0.19671   0.00000  Uiso   1.00
C94    C     0.57520   0.13099   0.30932   0.00000  Uiso   1.00
C95    C     0.71762   0.14957   0.37626   0.00000  Uiso   1.00
C96    C     0.66180   0.16882   0.47628   0.00000  Uiso   1.00
C97    C     0.64567   0.20403   0.64632   0.00000  Uiso   1.00
C98    C     0.51718   0.05643   0.20186   0.00000  Uiso   1.00
C99    C     0.61083   0.01233   0.17843   0.00000  Uiso   1.00
C100   C     0.50615   0.96882   0.18798   0.00000  Uiso   1.00
C101   C     0.39992   0.88828   0.19111   0.00000  Uiso   1.00
C102   C     0.47913   0.13806   0.11909   0.00000  Uiso   1.00
C103   C     0.54078   0.16258   0.02605   0.00000  Uiso   1.00
C104   C     0.40405   0.18778   0.96590   0.00000  Uiso   1.00
C105   C     0.23875   0.23399   0.84052   0.00000  Uiso   1.00
C106   C     0.25192   0.10937   0.25529   0.00000  Uiso   1.00
C107   C     0.38377   0.13160   0.34114   0.00000  Uiso   1.00
C108   C     0.32771   0.15083   0.44108   0.00000  Uiso   1.00
C109   C     0.47003   0.16944   0.50816   0.00000  Uiso   1.00
C110   C     0.32576   0.05705   0.23368   0.00000  Uiso   1.00
C111   C     0.22092   0.01359   0.24325   0.00000  Uiso   1.00
C112   C     0.31439   0.96944   0.21986   0.00000  Uiso   1.00
C113   C     0.28771   0.13868   0.15092   0.00000  Uiso   1.00
C114   C     0.15086   0.16385   0.09089   0.00000  Uiso   1.00
C115   C     0.21229   0.18840   0.99778   0.00000  Uiso   1.00
H116   H     0.75337   0.10774   0.17193   0.00000  Uiso   1.00
H117   H     0.86575   0.14908   0.35160   0.00000  Uiso   1.00
H118   H     0.75896   0.01186   0.15380   0.00000  Uiso   1.00
H119   H     0.68892   0.16209   0.00145   0.00000  Uiso   1.00
H120   H     0.90594   0.19516   0.56486   0.00000  Uiso   1.00
H121   H     0.68075   0.90583   0.14774   0.00000  Uiso   1.00
H122   H     0.53306   0.22262   0.82648   0.00000  Uiso   1.00
H123   H     0.10288   0.10985   0.28007   0.00000  Uiso   1.00
H124   H     0.17956   0.15131   0.46569   0.00000  Uiso   1.00
H125   H     0.07278   0.01409   0.26788   0.00000  Uiso   1.00
H126   H     0.00274   0.16432   0.11554   0.00000  Uiso   1.00
H127   H     0.34901   0.19697   0.65746   0.00000  Uiso   1.00
H128   H     0.12382   0.90764   0.24033   0.00000  Uiso   1.00
H129   H     0.97612   0.22443   0.91908   0.00000  Uiso   1.00
O130   O     0.68966   0.22328   0.73133   0.00000  Uiso   1.00
O131   O     0.39422   0.84369   0.18405   0.00000  Uiso   1.00
O132   O     0.20045   0.25931   0.76259   0.00000  Uiso   1.00
N133   N     0.76434   0.18991   0.56117   0.00000  Uiso   1.00
N134   N     0.55381   0.91940   0.17120   0.00000  Uiso   1.00
N135   N     0.41572   0.21556   0.87084   0.00000  Uiso   1.00
N136   N     0.46465   0.19088   0.61099   0.00000  Uiso   1.00
N137   N     0.25413   0.92037   0.22103   0.00000  Uiso   1.00
N138   N     0.11604   0.21653   0.92067   0.00000  Uiso   1.00
C139   C     0.89566   0.89177   0.69671   0.00000  Uiso   1.00
C140   C     0.92480   0.86901   0.80932   0.00000  Uiso   1.00
C141   C     0.78238   0.85043   0.87626   0.00000  Uiso   1.00
C142   C     0.83820   0.83118   0.97628   0.00000  Uiso   1.00
C143   C     0.85433   0.79597   0.14632   0.00000  Uiso   1.00
C144   C     0.98282   0.94357   0.70186   0.00000  Uiso   1.00
C145   C     0.88917   0.98767   0.67843   0.00000  Uiso   1.00
C146   C     0.99385   0.03118   0.68798   0.00000  Uiso   1.00
C147   C     0.10008   0.11172   0.69111   0.00000  Uiso   1.00
C148   C     0.02087   0.86194   0.61909   0.00000  Uiso   1.00
C149   C     0.95922   0.83742   0.52605   0.00000  Uiso   1.00
C150   C     0.09595   0.81222   0.46590   0.00000  Uiso   1.00
C151   C     0.26125   0.76601   0.34052   0.00000  Uiso   1.00
C152   C     0.24808   0.89063   0.75529   0.00000  Uiso   1.00
C153   C     0.11623   0.86840   0.84114   0.00000  Uiso   1.00
C154   C     0.17229   0.84917   0.94108   0.00000  Uiso   1.00
C155   C     0.02997   0.83056   0.00816   0.00000  Uiso   1.00
C156   C     0.17424   0.94295   0.73368   0.00000  Uiso   1.00
C157   C     0.27908   0.98641   0.74325   0.00000  Uiso   1.00
C158   C     0.18561   0.03056   0.71986   0.00000  Uiso   1.00
C159   C     0.21229   0.86132   0.65092   0.00000  Uiso   1.00
C160   C     0.34914   0.83615   0.59089   0.00000  Uiso   1.00
C161   C     0.28771   0.81160   0.49778   0.00000  Uiso   1.00
H162   H     0.74663   0.89226   0.67193   0.00000  Uiso   1.00
H163   H     0.63425   0.85092   0.85160   0.00000  Uiso   1.00
H164   H     0.74104   0.98814   0.65380   0.00000  Uiso   1.00
H165   H     0.81108   0.83791   0.50145   0.00000  Uiso   1.00
H166   H     0.59406   0.80484   0.06486   0.00000  Uiso   1.00
H167   H     0.81925   0.09417   0.64774   0.00000  Uiso   1.00
H168   H     0.96694   0.77738   0.32648   0.00000  Uiso   1.00
H169   H     0.39712   0.89015   0.78007   0.00000  Uiso   1.00
H170   H     0.32044   0.84869   0.96569   0.00000  Uiso   1.00
H171   H     0.42722   0.98591   0.76788   0.00000  Uiso   1.00
H172   H     0.49726   0.83568   0.61554   0.00000  Uiso   1.00
H173   H     0.15099   0.80303   0.15746   0.00000  Uiso   1.00
H174   H     0.37618   0.09236   0.74033   0.00000  Uiso   1.00
H175   H     0.52388   0.77557   0.41908   0.00000  Uiso   1.00
O176   O     0.81034   0.77672   0.23133   0.00000  Uiso   1.00
O177   O     0.10578   0.15631   0.68405   0.00000  Uiso   1.00
O178   O     0.29955   0.74069   0.26259   0.00000  Uiso   1.00
N179   N     0.73566   0.81009   0.06117   0.00000  Uiso   1.00
N180   N     0.94619   0.08060   0.67120   0.00000  Uiso   1.00
N181   N     0.08428   0.78444   0.37084   0.00000  Uiso   1.00
N182   N     0.03535   0.80912   0.11099   0.00000  Uiso   1.00
N183   N     0.24587   0.07963   0.72103   0.00000  Uiso   1.00
N184   N     0.38396   0.78347   0.42067   0.00000  Uiso   1.00
