data_job_05651
_audit_creation_date              2018-12-19
_audit_creation_method            'Materials Studio'
_symmetry_space_group_name_H-M    'P1'
_symmetry_Int_Tables_number       1
_symmetry_cell_setting            triclinic
loop_
_symmetry_equiv_pos_as_xyz
  x,y,z
_cell_length_a                    12.1494
_cell_length_b                    20.1240
_cell_length_c                    25.6240
_cell_angle_alpha                 90.0000
_cell_angle_beta                  90.0000
_cell_angle_gamma                 90.0000
loop_
_atom_site_label
_atom_site_type_symbol
_atom_site_fract_x
_atom_site_fract_y
_atom_site_fract_z
_atom_site_U_iso_or_equiv
_atom_site_adp_type
_atom_site_occupancy
C1     C     0.20328   0.55762   0.90284   0.00000  Uiso   1.00
C2     C     0.29092   0.60176   0.87807   0.00000  Uiso   1.00
C3     C     0.39428   0.58116   0.86165   0.00000  Uiso   1.00
C4     C     0.46251   0.62913   0.83998   0.00000  Uiso   1.00
C5     C     0.60379   0.68760   0.80231   0.00000  Uiso   1.00
C6     C     0.17518   0.58960   0.95512   0.00000  Uiso   1.00
C7     C     0.18121   0.55878   0.00349   0.00000  Uiso   1.00
C8     C     0.15199   0.59652   0.04668   0.00000  Uiso   1.00
C9     C     0.11350   0.63610   0.12863   0.00000  Uiso   1.00
C10    C     0.10082   0.56501   0.86896   0.00000  Uiso   1.00
C11    C     0.04431   0.51350   0.84490   0.00000  Uiso   1.00
C12    C     0.95246   0.53054   0.81556   0.00000  Uiso   1.00
C13    C     0.79852   0.53193   0.76374   0.00000  Uiso   1.00
C14    C     0.14064   0.67946   0.89354   0.00000  Uiso   1.00
C15    C     0.25689   0.66794   0.87302   0.00000  Uiso   1.00
C16    C     0.32498   0.71596   0.85137   0.00000  Uiso   1.00
C17    C     0.42842   0.69543   0.83492   0.00000  Uiso   1.00
C18    C     0.14115   0.65578   0.95007   0.00000  Uiso   1.00
C19    C     0.11191   0.69358   0.99320   0.00000  Uiso   1.00
C20    C     0.11791   0.66282   0.04162   0.00000  Uiso   1.00
C21    C     0.06679   0.63119   0.86391   0.00000  Uiso   1.00
C22    C     0.97501   0.64831   0.83461   0.00000  Uiso   1.00
C23    C     0.91838   0.59684   0.81050   0.00000  Uiso   1.00
H24    H     0.22976   0.50610   0.90677   0.00000  Uiso   1.00
H25    H     0.42058   0.52994   0.86557   0.00000  Uiso   1.00
H26    H     0.20753   0.50756   0.00738   0.00000  Uiso   1.00
H27    H     0.07066   0.46230   0.84881   0.00000  Uiso   1.00
H28    H     0.61716   0.58555   0.81768   0.00000  Uiso   1.00
H29    H     0.16789   0.53836   0.11669   0.00000  Uiso   1.00
H30    H     0.87926   0.44291   0.78232   0.00000  Uiso   1.00
H31    H     0.11415   0.73099   0.88961   0.00000  Uiso   1.00
H32    H     0.29863   0.76717   0.84747   0.00000  Uiso   1.00
H33    H     0.08558   0.74479   0.98928   0.00000  Uiso   1.00
H34    H     0.94870   0.69952   0.83071   0.00000  Uiso   1.00
H35    H     0.51817   0.77810   0.80299   0.00000  Uiso   1.00
H36    H     0.06891   0.73090   0.10200   0.00000  Uiso   1.00
H37    H     0.78028   0.63545   0.76763   0.00000  Uiso   1.00
O38    O     0.69112   0.70157   0.78293   0.00000  Uiso   1.00
O39    O     0.10169   0.63965   0.17523   0.00000  Uiso   1.00
O40    O     0.72301   0.51442   0.73654   0.00000  Uiso   1.00
N41    N     0.56853   0.62590   0.82000   0.00000  Uiso   1.00
N42    N     0.14852   0.58178   0.09956   0.00000  Uiso   1.00
N43    N     0.87865   0.49254   0.78696   0.00000  Uiso   1.00
N44    N     0.51527   0.72951   0.81209   0.00000  Uiso   1.00
N45    N     0.09526   0.68539   0.09165   0.00000  Uiso   1.00
N46    N     0.82539   0.59615   0.77906   0.00000  Uiso   1.00
C47    C     0.29672   0.94238   0.40284   0.00000  Uiso   1.00
C48    C     0.20908   0.89824   0.37807   0.00000  Uiso   1.00
C49    C     0.10572   0.91884   0.36165   0.00000  Uiso   1.00
C50    C     0.03749   0.87087   0.33998   0.00000  Uiso   1.00
C51    C     0.89621   0.81240   0.30231   0.00000  Uiso   1.00
C52    C     0.32482   0.91040   0.45512   0.00000  Uiso   1.00
C53    C     0.31879   0.94122   0.50349   0.00000  Uiso   1.00
C54    C     0.34801   0.90348   0.54668   0.00000  Uiso   1.00
C55    C     0.38650   0.86390   0.62863   0.00000  Uiso   1.00
C56    C     0.39918   0.93499   0.36896   0.00000  Uiso   1.00
C57    C     0.45569   0.98650   0.34490   0.00000  Uiso   1.00
C58    C     0.54754   0.96946   0.31556   0.00000  Uiso   1.00
C59    C     0.70148   0.96807   0.26374   0.00000  Uiso   1.00
C60    C     0.35936   0.82054   0.39354   0.00000  Uiso   1.00
C61    C     0.24311   0.83206   0.37302   0.00000  Uiso   1.00
C62    C     0.17502   0.78404   0.35137   0.00000  Uiso   1.00
C63    C     0.07158   0.80457   0.33492   0.00000  Uiso   1.00
C64    C     0.35885   0.84422   0.45007   0.00000  Uiso   1.00
C65    C     0.38809   0.80642   0.49320   0.00000  Uiso   1.00
C66    C     0.38209   0.83718   0.54162   0.00000  Uiso   1.00
C67    C     0.43321   0.86881   0.36391   0.00000  Uiso   1.00
C68    C     0.52499   0.85169   0.33461   0.00000  Uiso   1.00
C69    C     0.58162   0.90316   0.31050   0.00000  Uiso   1.00
H70    H     0.27024   0.99390   0.40677   0.00000  Uiso   1.00
H71    H     0.07942   0.97006   0.36557   0.00000  Uiso   1.00
H72    H     0.29247   0.99244   0.50738   0.00000  Uiso   1.00
H73    H     0.42934   0.03770   0.34881   0.00000  Uiso   1.00
H74    H     0.88284   0.91445   0.31768   0.00000  Uiso   1.00
H75    H     0.33211   0.96164   0.61669   0.00000  Uiso   1.00
H76    H     0.62074   0.05709   0.28232   0.00000  Uiso   1.00
H77    H     0.38585   0.76901   0.38961   0.00000  Uiso   1.00
H78    H     0.20137   0.73283   0.34747   0.00000  Uiso   1.00
H79    H     0.41442   0.75521   0.48928   0.00000  Uiso   1.00
H80    H     0.55130   0.80048   0.33071   0.00000  Uiso   1.00
H81    H     0.98183   0.72190   0.30299   0.00000  Uiso   1.00
H82    H     0.43109   0.76910   0.60200   0.00000  Uiso   1.00
H83    H     0.71972   0.86455   0.26763   0.00000  Uiso   1.00
O84    O     0.80888   0.79843   0.28293   0.00000  Uiso   1.00
O85    O     0.39831   0.86035   0.67523   0.00000  Uiso   1.00
O86    O     0.77699   0.98558   0.23654   0.00000  Uiso   1.00
N87    N     0.93147   0.87410   0.32000   0.00000  Uiso   1.00
N88    N     0.35148   0.91822   0.59956   0.00000  Uiso   1.00
N89    N     0.62135   0.00746   0.28696   0.00000  Uiso   1.00
N90    N     0.98473   0.77049   0.31209   0.00000  Uiso   1.00
N91    N     0.40474   0.81461   0.59165   0.00000  Uiso   1.00
N92    N     0.67461   0.90385   0.27906   0.00000  Uiso   1.00
C93    C     0.79672   0.55762   0.59716   0.00000  Uiso   1.00
C94    C     0.70908   0.60176   0.62193   0.00000  Uiso   1.00
C95    C     0.60572   0.58116   0.63835   0.00000  Uiso   1.00
C96    C     0.53749   0.62913   0.66002   0.00000  Uiso   1.00
C97    C     0.39621   0.68760   0.69769   0.00000  Uiso   1.00
C98    C     0.82482   0.58960   0.54488   0.00000  Uiso   1.00
C99    C     0.81879   0.55878   0.49651   0.00000  Uiso   1.00
C100   C     0.84801   0.59652   0.45332   0.00000  Uiso   1.00
C101   C     0.88650   0.63610   0.37137   0.00000  Uiso   1.00
C102   C     0.89918   0.56501   0.63104   0.00000  Uiso   1.00
C103   C     0.95569   0.51350   0.65510   0.00000  Uiso   1.00
C104   C     0.04754   0.53054   0.68444   0.00000  Uiso   1.00
C105   C     0.20148   0.53193   0.73626   0.00000  Uiso   1.00
C106   C     0.85936   0.67946   0.60646   0.00000  Uiso   1.00
C107   C     0.74311   0.66794   0.62698   0.00000  Uiso   1.00
C108   C     0.67502   0.71596   0.64863   0.00000  Uiso   1.00
C109   C     0.57158   0.69543   0.66508   0.00000  Uiso   1.00
C110   C     0.85885   0.65578   0.54993   0.00000  Uiso   1.00
C111   C     0.88809   0.69358   0.50680   0.00000  Uiso   1.00
C112   C     0.88209   0.66282   0.45838   0.00000  Uiso   1.00
C113   C     0.93321   0.63119   0.63609   0.00000  Uiso   1.00
C114   C     0.02499   0.64831   0.66539   0.00000  Uiso   1.00
C115   C     0.08162   0.59684   0.68950   0.00000  Uiso   1.00
H116   H     0.77024   0.50610   0.59323   0.00000  Uiso   1.00
H117   H     0.57942   0.52994   0.63443   0.00000  Uiso   1.00
H118   H     0.79247   0.50756   0.49262   0.00000  Uiso   1.00
H119   H     0.92934   0.46230   0.65119   0.00000  Uiso   1.00
H120   H     0.38284   0.58555   0.68232   0.00000  Uiso   1.00
H121   H     0.83211   0.53836   0.38331   0.00000  Uiso   1.00
H122   H     0.12074   0.44291   0.71768   0.00000  Uiso   1.00
H123   H     0.88585   0.73099   0.61039   0.00000  Uiso   1.00
H124   H     0.70137   0.76717   0.65253   0.00000  Uiso   1.00
H125   H     0.91442   0.74479   0.51072   0.00000  Uiso   1.00
H126   H     0.05130   0.69952   0.66929   0.00000  Uiso   1.00
H127   H     0.48183   0.77810   0.69701   0.00000  Uiso   1.00
H128   H     0.93109   0.73090   0.39800   0.00000  Uiso   1.00
H129   H     0.21972   0.63545   0.73237   0.00000  Uiso   1.00
O130   O     0.30888   0.70157   0.71707   0.00000  Uiso   1.00
O131   O     0.89831   0.63965   0.32477   0.00000  Uiso   1.00
O132   O     0.27699   0.51442   0.76346   0.00000  Uiso   1.00
N133   N     0.43147   0.62590   0.68000   0.00000  Uiso   1.00
N134   N     0.85148   0.58178   0.40044   0.00000  Uiso   1.00
N135   N     0.12135   0.49254   0.71304   0.00000  Uiso   1.00
N136   N     0.48473   0.72951   0.68791   0.00000  Uiso   1.00
N137   N     0.90474   0.68539   0.40835   0.00000  Uiso   1.00
N138   N     0.17461   0.59615   0.72094   0.00000  Uiso   1.00
C139   C     0.70328   0.94238   0.09716   0.00000  Uiso   1.00
C140   C     0.79092   0.89824   0.12193   0.00000  Uiso   1.00
C141   C     0.89428   0.91884   0.13835   0.00000  Uiso   1.00
C142   C     0.96251   0.87087   0.16002   0.00000  Uiso   1.00
C143   C     0.10379   0.81240   0.19769   0.00000  Uiso   1.00
C144   C     0.67518   0.91040   0.04488   0.00000  Uiso   1.00
C145   C     0.68121   0.94122   0.99651   0.00000  Uiso   1.00
C146   C     0.65199   0.90348   0.95332   0.00000  Uiso   1.00
C147   C     0.61350   0.86390   0.87137   0.00000  Uiso   1.00
C148   C     0.60082   0.93499   0.13104   0.00000  Uiso   1.00
C149   C     0.54431   0.98650   0.15510   0.00000  Uiso   1.00
C150   C     0.45246   0.96946   0.18444   0.00000  Uiso   1.00
C151   C     0.29852   0.96807   0.23626   0.00000  Uiso   1.00
C152   C     0.64064   0.82054   0.10646   0.00000  Uiso   1.00
C153   C     0.75689   0.83206   0.12698   0.00000  Uiso   1.00
C154   C     0.82498   0.78404   0.14863   0.00000  Uiso   1.00
C155   C     0.92842   0.80457   0.16508   0.00000  Uiso   1.00
C156   C     0.64115   0.84422   0.04993   0.00000  Uiso   1.00
C157   C     0.61191   0.80642   0.00680   0.00000  Uiso   1.00
C158   C     0.61791   0.83718   0.95838   0.00000  Uiso   1.00
C159   C     0.56679   0.86881   0.13609   0.00000  Uiso   1.00
C160   C     0.47501   0.85169   0.16539   0.00000  Uiso   1.00
C161   C     0.41838   0.90316   0.18950   0.00000  Uiso   1.00
H162   H     0.72976   0.99390   0.09323   0.00000  Uiso   1.00
H163   H     0.92058   0.97006   0.13443   0.00000  Uiso   1.00
H164   H     0.70753   0.99244   0.99262   0.00000  Uiso   1.00
H165   H     0.57066   0.03770   0.15119   0.00000  Uiso   1.00
H166   H     0.11716   0.91445   0.18232   0.00000  Uiso   1.00
H167   H     0.66789   0.96164   0.88331   0.00000  Uiso   1.00
H168   H     0.37926   0.05709   0.21768   0.00000  Uiso   1.00
H169   H     0.61415   0.76901   0.11039   0.00000  Uiso   1.00
H170   H     0.79863   0.73283   0.15253   0.00000  Uiso   1.00
H171   H     0.58558   0.75521   0.01072   0.00000  Uiso   1.00
H172   H     0.44870   0.80048   0.16929   0.00000  Uiso   1.00
H173   H     0.01817   0.72190   0.19701   0.00000  Uiso   1.00
H174   H     0.56891   0.76910   0.89800   0.00000  Uiso   1.00
H175   H     0.28028   0.86455   0.23237   0.00000  Uiso   1.00
O176   O     0.19112   0.79843   0.21707   0.00000  Uiso   1.00
O177   O     0.60169   0.86035   0.82477   0.00000  Uiso   1.00
O178   O     0.22301   0.98558   0.26346   0.00000  Uiso   1.00
N179   N     0.06853   0.87410   0.18000   0.00000  Uiso   1.00
N180   N     0.64852   0.91822   0.90044   0.00000  Uiso   1.00
N181   N     0.37865   0.00746   0.21304   0.00000  Uiso   1.00
N182   N     0.01527   0.77049   0.18791   0.00000  Uiso   1.00
N183   N     0.59526   0.81461   0.90835   0.00000  Uiso   1.00
N184   N     0.32539   0.90385   0.22094   0.00000  Uiso   1.00
C185   C     0.79672   0.44238   0.09716   0.00000  Uiso   1.00
C186   C     0.70908   0.39824   0.12193   0.00000  Uiso   1.00
C187   C     0.60572   0.41884   0.13835   0.00000  Uiso   1.00
C188   C     0.53749   0.37087   0.16002   0.00000  Uiso   1.00
C189   C     0.39621   0.31240   0.19769   0.00000  Uiso   1.00
C190   C     0.82482   0.41040   0.04488   0.00000  Uiso   1.00
C191   C     0.81879   0.44122   0.99651   0.00000  Uiso   1.00
C192   C     0.84801   0.40348   0.95332   0.00000  Uiso   1.00
C193   C     0.88650   0.36390   0.87137   0.00000  Uiso   1.00
C194   C     0.89918   0.43499   0.13104   0.00000  Uiso   1.00
C195   C     0.95569   0.48650   0.15510   0.00000  Uiso   1.00
C196   C     0.04754   0.46946   0.18444   0.00000  Uiso   1.00
C197   C     0.20148   0.46807   0.23626   0.00000  Uiso   1.00
C198   C     0.85936   0.32054   0.10646   0.00000  Uiso   1.00
C199   C     0.74311   0.33206   0.12698   0.00000  Uiso   1.00
C200   C     0.67502   0.28404   0.14863   0.00000  Uiso   1.00
C201   C     0.57158   0.30457   0.16508   0.00000  Uiso   1.00
C202   C     0.85885   0.34422   0.04993   0.00000  Uiso   1.00
C203   C     0.88809   0.30642   0.00680   0.00000  Uiso   1.00
C204   C     0.88209   0.33718   0.95838   0.00000  Uiso   1.00
C205   C     0.93321   0.36881   0.13609   0.00000  Uiso   1.00
C206   C     0.02499   0.35169   0.16539   0.00000  Uiso   1.00
C207   C     0.08162   0.40316   0.18950   0.00000  Uiso   1.00
H208   H     0.77024   0.49390   0.09323   0.00000  Uiso   1.00
H209   H     0.57942   0.47006   0.13443   0.00000  Uiso   1.00
H210   H     0.79247   0.49244   0.99262   0.00000  Uiso   1.00
H211   H     0.92934   0.53770   0.15119   0.00000  Uiso   1.00
H212   H     0.38284   0.41445   0.18232   0.00000  Uiso   1.00
H213   H     0.83211   0.46164   0.88331   0.00000  Uiso   1.00
H214   H     0.12074   0.55709   0.21768   0.00000  Uiso   1.00
H215   H     0.88585   0.26901   0.11039   0.00000  Uiso   1.00
H216   H     0.70137   0.23283   0.15253   0.00000  Uiso   1.00
H217   H     0.91442   0.25521   0.01072   0.00000  Uiso   1.00
H218   H     0.05130   0.30048   0.16929   0.00000  Uiso   1.00
H219   H     0.48183   0.22190   0.19701   0.00000  Uiso   1.00
H220   H     0.93109   0.26910   0.89800   0.00000  Uiso   1.00
H221   H     0.21972   0.36455   0.23237   0.00000  Uiso   1.00
O222   O     0.30888   0.29843   0.21707   0.00000  Uiso   1.00
O223   O     0.89831   0.36035   0.82477   0.00000  Uiso   1.00
O224   O     0.27699   0.48558   0.26346   0.00000  Uiso   1.00
N225   N     0.43147   0.37410   0.18000   0.00000  Uiso   1.00
N226   N     0.85148   0.41822   0.90044   0.00000  Uiso   1.00
N227   N     0.12135   0.50746   0.21304   0.00000  Uiso   1.00
N228   N     0.48473   0.27049   0.18791   0.00000  Uiso   1.00
N229   N     0.90474   0.31461   0.90835   0.00000  Uiso   1.00
N230   N     0.17461   0.40385   0.22094   0.00000  Uiso   1.00
C231   C     0.70328   0.05762   0.59716   0.00000  Uiso   1.00
C232   C     0.79092   0.10176   0.62193   0.00000  Uiso   1.00
C233   C     0.89428   0.08116   0.63835   0.00000  Uiso   1.00
C234   C     0.96251   0.12913   0.66002   0.00000  Uiso   1.00
C235   C     0.10379   0.18760   0.69769   0.00000  Uiso   1.00
C236   C     0.67518   0.08960   0.54488   0.00000  Uiso   1.00
C237   C     0.68121   0.05878   0.49651   0.00000  Uiso   1.00
C238   C     0.65199   0.09652   0.45332   0.00000  Uiso   1.00
C239   C     0.61350   0.13610   0.37137   0.00000  Uiso   1.00
C240   C     0.60082   0.06501   0.63104   0.00000  Uiso   1.00
C241   C     0.54431   0.01350   0.65510   0.00000  Uiso   1.00
C242   C     0.45246   0.03054   0.68444   0.00000  Uiso   1.00
C243   C     0.29852   0.03193   0.73626   0.00000  Uiso   1.00
C244   C     0.64064   0.17946   0.60646   0.00000  Uiso   1.00
C245   C     0.75689   0.16794   0.62698   0.00000  Uiso   1.00
C246   C     0.82498   0.21596   0.64863   0.00000  Uiso   1.00
C247   C     0.92842   0.19543   0.66508   0.00000  Uiso   1.00
C248   C     0.64115   0.15578   0.54993   0.00000  Uiso   1.00
C249   C     0.61191   0.19358   0.50680   0.00000  Uiso   1.00
C250   C     0.61791   0.16282   0.45838   0.00000  Uiso   1.00
C251   C     0.56679   0.13119   0.63609   0.00000  Uiso   1.00
C252   C     0.47501   0.14831   0.66539   0.00000  Uiso   1.00
C253   C     0.41838   0.09684   0.68950   0.00000  Uiso   1.00
H254   H     0.72976   0.00610   0.59323   0.00000  Uiso   1.00
H255   H     0.92058   0.02994   0.63443   0.00000  Uiso   1.00
H256   H     0.70753   0.00756   0.49262   0.00000  Uiso   1.00
H257   H     0.57066   0.96230   0.65119   0.00000  Uiso   1.00
H258   H     0.11716   0.08555   0.68232   0.00000  Uiso   1.00
H259   H     0.66789   0.03836   0.38331   0.00000  Uiso   1.00
H260   H     0.37926   0.94291   0.71768   0.00000  Uiso   1.00
H261   H     0.61415   0.23099   0.61039   0.00000  Uiso   1.00
H262   H     0.79863   0.26717   0.65253   0.00000  Uiso   1.00
H263   H     0.58558   0.24479   0.51072   0.00000  Uiso   1.00
H264   H     0.44870   0.19952   0.66929   0.00000  Uiso   1.00
H265   H     0.01817   0.27810   0.69701   0.00000  Uiso   1.00
H266   H     0.56891   0.23090   0.39800   0.00000  Uiso   1.00
H267   H     0.28028   0.13545   0.73237   0.00000  Uiso   1.00
O268   O     0.19112   0.20157   0.71707   0.00000  Uiso   1.00
O269   O     0.60169   0.13965   0.32477   0.00000  Uiso   1.00
O270   O     0.22301   0.01442   0.76346   0.00000  Uiso   1.00
N271   N     0.06853   0.12590   0.68000   0.00000  Uiso   1.00
N272   N     0.64852   0.08178   0.40044   0.00000  Uiso   1.00
N273   N     0.37865   0.99254   0.71304   0.00000  Uiso   1.00
N274   N     0.01527   0.22951   0.68791   0.00000  Uiso   1.00
N275   N     0.59526   0.18539   0.40835   0.00000  Uiso   1.00
N276   N     0.32539   0.09615   0.72094   0.00000  Uiso   1.00
C277   C     0.20328   0.44238   0.40284   0.00000  Uiso   1.00
C278   C     0.29092   0.39824   0.37807   0.00000  Uiso   1.00
C279   C     0.39428   0.41884   0.36165   0.00000  Uiso   1.00
C280   C     0.46251   0.37087   0.33998   0.00000  Uiso   1.00
C281   C     0.60379   0.31240   0.30231   0.00000  Uiso   1.00
C282   C     0.17518   0.41040   0.45512   0.00000  Uiso   1.00
C283   C     0.18121   0.44122   0.50349   0.00000  Uiso   1.00
C284   C     0.15199   0.40348   0.54668   0.00000  Uiso   1.00
C285   C     0.11350   0.36390   0.62863   0.00000  Uiso   1.00
C286   C     0.10082   0.43499   0.36896   0.00000  Uiso   1.00
C287   C     0.04431   0.48650   0.34490   0.00000  Uiso   1.00
C288   C     0.95246   0.46946   0.31556   0.00000  Uiso   1.00
C289   C     0.79852   0.46807   0.26374   0.00000  Uiso   1.00
C290   C     0.14064   0.32054   0.39354   0.00000  Uiso   1.00
C291   C     0.25689   0.33206   0.37302   0.00000  Uiso   1.00
C292   C     0.32498   0.28404   0.35137   0.00000  Uiso   1.00
C293   C     0.42842   0.30457   0.33492   0.00000  Uiso   1.00
C294   C     0.14115   0.34422   0.45007   0.00000  Uiso   1.00
C295   C     0.11191   0.30642   0.49320   0.00000  Uiso   1.00
C296   C     0.11791   0.33718   0.54162   0.00000  Uiso   1.00
C297   C     0.06679   0.36881   0.36391   0.00000  Uiso   1.00
C298   C     0.97501   0.35169   0.33461   0.00000  Uiso   1.00
C299   C     0.91838   0.40316   0.31050   0.00000  Uiso   1.00
H300   H     0.22976   0.49390   0.40677   0.00000  Uiso   1.00
H301   H     0.42058   0.47006   0.36557   0.00000  Uiso   1.00
H302   H     0.20753   0.49244   0.50738   0.00000  Uiso   1.00
H303   H     0.07066   0.53770   0.34881   0.00000  Uiso   1.00
H304   H     0.61716   0.41445   0.31768   0.00000  Uiso   1.00
H305   H     0.16789   0.46164   0.61669   0.00000  Uiso   1.00
H306   H     0.87926   0.55709   0.28232   0.00000  Uiso   1.00
H307   H     0.11415   0.26901   0.38961   0.00000  Uiso   1.00
H308   H     0.29863   0.23283   0.34747   0.00000  Uiso   1.00
H309   H     0.08558   0.25521   0.48928   0.00000  Uiso   1.00
H310   H     0.94870   0.30048   0.33071   0.00000  Uiso   1.00
H311   H     0.51817   0.22190   0.30299   0.00000  Uiso   1.00
H312   H     0.06891   0.26910   0.60200   0.00000  Uiso   1.00
H313   H     0.78028   0.36455   0.26763   0.00000  Uiso   1.00
O314   O     0.69112   0.29843   0.28293   0.00000  Uiso   1.00
O315   O     0.10169   0.36035   0.67523   0.00000  Uiso   1.00
O316   O     0.72301   0.48558   0.23654   0.00000  Uiso   1.00
N317   N     0.56853   0.37410   0.32000   0.00000  Uiso   1.00
N318   N     0.14852   0.41822   0.59956   0.00000  Uiso   1.00
N319   N     0.87865   0.50746   0.28696   0.00000  Uiso   1.00
N320   N     0.51527   0.27049   0.31209   0.00000  Uiso   1.00
N321   N     0.09526   0.31461   0.59165   0.00000  Uiso   1.00
N322   N     0.82539   0.40385   0.27906   0.00000  Uiso   1.00
C323   C     0.29672   0.05762   0.90284   0.00000  Uiso   1.00
C324   C     0.20908   0.10176   0.87807   0.00000  Uiso   1.00
C325   C     0.10572   0.08116   0.86165   0.00000  Uiso   1.00
C326   C     0.03749   0.12913   0.83998   0.00000  Uiso   1.00
C327   C     0.89621   0.18760   0.80231   0.00000  Uiso   1.00
C328   C     0.32482   0.08960   0.95512   0.00000  Uiso   1.00
C329   C     0.31879   0.05878   0.00349   0.00000  Uiso   1.00
C330   C     0.34801   0.09652   0.04668   0.00000  Uiso   1.00
C331   C     0.38650   0.13610   0.12863   0.00000  Uiso   1.00
C332   C     0.39918   0.06501   0.86896   0.00000  Uiso   1.00
C333   C     0.45569   0.01350   0.84490   0.00000  Uiso   1.00
C334   C     0.54754   0.03054   0.81556   0.00000  Uiso   1.00
C335   C     0.70148   0.03193   0.76374   0.00000  Uiso   1.00
C336   C     0.35936   0.17946   0.89354   0.00000  Uiso   1.00
C337   C     0.24311   0.16794   0.87302   0.00000  Uiso   1.00
C338   C     0.17502   0.21596   0.85137   0.00000  Uiso   1.00
C339   C     0.07158   0.19543   0.83492   0.00000  Uiso   1.00
C340   C     0.35885   0.15578   0.95007   0.00000  Uiso   1.00
C341   C     0.38809   0.19358   0.99320   0.00000  Uiso   1.00
C342   C     0.38209   0.16282   0.04162   0.00000  Uiso   1.00
C343   C     0.43321   0.13119   0.86391   0.00000  Uiso   1.00
C344   C     0.52499   0.14831   0.83461   0.00000  Uiso   1.00
C345   C     0.58162   0.09684   0.81050   0.00000  Uiso   1.00
H346   H     0.27024   0.00610   0.90677   0.00000  Uiso   1.00
H347   H     0.07942   0.02994   0.86557   0.00000  Uiso   1.00
H348   H     0.29247   0.00756   0.00738   0.00000  Uiso   1.00
H349   H     0.42934   0.96230   0.84881   0.00000  Uiso   1.00
H350   H     0.88284   0.08555   0.81768   0.00000  Uiso   1.00
H351   H     0.33211   0.03836   0.11669   0.00000  Uiso   1.00
H352   H     0.62074   0.94291   0.78232   0.00000  Uiso   1.00
H353   H     0.38585   0.23099   0.88961   0.00000  Uiso   1.00
H354   H     0.20137   0.26717   0.84747   0.00000  Uiso   1.00
H355   H     0.41442   0.24479   0.98928   0.00000  Uiso   1.00
H356   H     0.55130   0.19952   0.83071   0.00000  Uiso   1.00
H357   H     0.98183   0.27810   0.80299   0.00000  Uiso   1.00
H358   H     0.43109   0.23090   0.10200   0.00000  Uiso   1.00
H359   H     0.71972   0.13545   0.76763   0.00000  Uiso   1.00
O360   O     0.80888   0.20157   0.78293   0.00000  Uiso   1.00
O361   O     0.39831   0.13965   0.17523   0.00000  Uiso   1.00
O362   O     0.77699   0.01442   0.73654   0.00000  Uiso   1.00
N363   N     0.93147   0.12590   0.82000   0.00000  Uiso   1.00
N364   N     0.35148   0.08178   0.09956   0.00000  Uiso   1.00
N365   N     0.62135   0.99254   0.78696   0.00000  Uiso   1.00
N366   N     0.98473   0.22951   0.81209   0.00000  Uiso   1.00
N367   N     0.40474   0.18539   0.09165   0.00000  Uiso   1.00
N368   N     0.67461   0.09615   0.77906   0.00000  Uiso   1.00
