data_job_00418
_audit_creation_date              2018-12-19
_audit_creation_method            'Materials Studio'
_symmetry_space_group_name_H-M    'P1'
_symmetry_Int_Tables_number       1
_symmetry_cell_setting            triclinic
loop_
_symmetry_equiv_pos_as_xyz
  x,y,z
_cell_length_a                    13.0371
_cell_length_b                    21.9805
_cell_length_c                    9.6341
_cell_angle_alpha                 90.0000
_cell_angle_beta                  118.6580
_cell_angle_gamma                 90.0000
loop_
_atom_site_label
_atom_site_type_symbol
_atom_site_fract_x
_atom_site_fract_y
_atom_site_fract_z
_atom_site_U_iso_or_equiv
_atom_site_adp_type
_atom_site_occupancy
C1     C     0.20027   0.57216   0.26647   0.00000  Uiso   1.00
C2     C     0.11429   0.62177   0.16802   0.00000  Uiso   1.00
C3     C     0.02201   0.61480   0.01599   0.00000  Uiso   1.00
C4     C     0.95339   0.66570   0.94608   0.00000  Uiso   1.00
C5     C     0.81644   0.73425   0.78111   0.00000  Uiso   1.00
C6     C     0.32162   0.59675   0.31140   0.00000  Uiso   1.00
C7     C     0.40366   0.56872   0.27994   0.00000  Uiso   1.00
C8     C     0.50957   0.59855   0.33075   0.00000  Uiso   1.00
C9     C     0.69453   0.62822   0.38848   0.00000  Uiso   1.00
C10    C     0.19384   0.56841   0.42016   0.00000  Uiso   1.00
C11    C     0.16848   0.51656   0.48018   0.00000  Uiso   1.00
C12    C     0.16684   0.52252   0.62258   0.00000  Uiso   1.00
C13    C     0.15341   0.50819   0.84917   0.00000  Uiso   1.00
C14    C     0.24250   0.67495   0.41266   0.00000  Uiso   1.00
C15    C     0.13723   0.67760   0.24743   0.00000  Uiso   1.00
C16    C     0.06873   0.72852   0.17773   0.00000  Uiso   1.00
C17    C     0.97636   0.72163   0.02563   0.00000  Uiso   1.00
C18    C     0.34456   0.65257   0.39080   0.00000  Uiso   1.00
C19    C     0.45038   0.68245   0.44168   0.00000  Uiso   1.00
C20    C     0.53255   0.65448   0.41030   0.00000  Uiso   1.00
C21    C     0.21678   0.62424   0.49956   0.00000  Uiso   1.00
C22    C     0.21519   0.63028   0.64191   0.00000  Uiso   1.00
C23    C     0.18982   0.57845   0.70213   0.00000  Uiso   1.00
H24    H     0.18242   0.52869   0.20465   0.00000  Uiso   1.00
H25    H     0.00430   0.57159   0.95458   0.00000  Uiso   1.00
H26    H     0.38589   0.52552   0.21850   0.00000  Uiso   1.00
H27    H     0.15074   0.47336   0.41870   0.00000  Uiso   1.00
H28    H     0.81696   0.64377   0.71232   0.00000  Uiso   1.00
H29    H     0.62158   0.54662   0.26886   0.00000  Uiso   1.00
H30    H     0.12572   0.43663   0.69102   0.00000  Uiso   1.00
H31    H     0.26036   0.71842   0.47448   0.00000  Uiso   1.00
H32    H     0.08650   0.77172   0.23921   0.00000  Uiso   1.00
H33    H     0.46810   0.72565   0.50313   0.00000  Uiso   1.00
H34    H     0.23294   0.67349   0.70332   0.00000  Uiso   1.00
H35    H     0.88368   0.80621   0.94333   0.00000  Uiso   1.00
H36    H     0.68831   0.70905   0.49988   0.00000  Uiso   1.00
H37    H     0.19244   0.59907   0.92204   0.00000  Uiso   1.00
O38    O     0.73457   0.75663   0.66817   0.00000  Uiso   1.00
O39    O     0.79021   0.62917   0.39836   0.00000  Uiso   1.00
O40    O     0.13964   0.48487   0.95221   0.00000  Uiso   1.00
N41    N     0.85650   0.67468   0.79899   0.00000  Uiso   1.00
N42    N     0.60877   0.58385   0.31930   0.00000  Uiso   1.00
N43    N     0.14521   0.48102   0.71401   0.00000  Uiso   1.00
N44    N     0.89240   0.76209   0.92330   0.00000  Uiso   1.00
N45    N     0.64467   0.67126   0.44361   0.00000  Uiso   1.00
N46    N     0.18112   0.56843   0.83831   0.00000  Uiso   1.00
C47    C     0.79973   0.07216   0.23353   0.00000  Uiso   1.00
C48    C     0.88571   0.12177   0.33198   0.00000  Uiso   1.00
C49    C     0.97799   0.11480   0.48401   0.00000  Uiso   1.00
C50    C     0.04661   0.16570   0.55392   0.00000  Uiso   1.00
C51    C     0.18356   0.23425   0.71889   0.00000  Uiso   1.00
C52    C     0.67838   0.09675   0.18860   0.00000  Uiso   1.00
C53    C     0.59634   0.06872   0.22006   0.00000  Uiso   1.00
C54    C     0.49043   0.09855   0.16925   0.00000  Uiso   1.00
C55    C     0.30547   0.12822   0.11152   0.00000  Uiso   1.00
C56    C     0.80616   0.06841   0.07984   0.00000  Uiso   1.00
C57    C     0.83152   0.01656   0.01982   0.00000  Uiso   1.00
C58    C     0.83316   0.02252   0.87742   0.00000  Uiso   1.00
C59    C     0.84659   0.00819   0.65083   0.00000  Uiso   1.00
C60    C     0.75750   0.17495   0.08734   0.00000  Uiso   1.00
C61    C     0.86277   0.17760   0.25257   0.00000  Uiso   1.00
C62    C     0.93127   0.22852   0.32227   0.00000  Uiso   1.00
C63    C     0.02364   0.22163   0.47437   0.00000  Uiso   1.00
C64    C     0.65544   0.15257   0.10920   0.00000  Uiso   1.00
C65    C     0.54962   0.18245   0.05832   0.00000  Uiso   1.00
C66    C     0.46745   0.15448   0.08970   0.00000  Uiso   1.00
C67    C     0.78322   0.12424   0.00044   0.00000  Uiso   1.00
C68    C     0.78481   0.13028   0.85809   0.00000  Uiso   1.00
C69    C     0.81018   0.07845   0.79787   0.00000  Uiso   1.00
H70    H     0.81758   0.02869   0.29535   0.00000  Uiso   1.00
H71    H     0.99570   0.07159   0.54542   0.00000  Uiso   1.00
H72    H     0.61411   0.02552   0.28150   0.00000  Uiso   1.00
H73    H     0.84926   0.97336   0.08130   0.00000  Uiso   1.00
H74    H     0.18304   0.14377   0.78768   0.00000  Uiso   1.00
H75    H     0.37842   0.04662   0.23114   0.00000  Uiso   1.00
H76    H     0.87428   0.93663   0.80898   0.00000  Uiso   1.00
H77    H     0.73964   0.21842   0.02552   0.00000  Uiso   1.00
H78    H     0.91350   0.27172   0.26079   0.00000  Uiso   1.00
H79    H     0.53190   0.22565   0.99687   0.00000  Uiso   1.00
H80    H     0.76706   0.17349   0.79668   0.00000  Uiso   1.00
H81    H     0.11632   0.30621   0.55667   0.00000  Uiso   1.00
H82    H     0.31169   0.20905   0.00012   0.00000  Uiso   1.00
H83    H     0.80756   0.09907   0.57796   0.00000  Uiso   1.00
O84    O     0.26543   0.25663   0.83183   0.00000  Uiso   1.00
O85    O     0.20979   0.12917   0.10164   0.00000  Uiso   1.00
O86    O     0.86036   0.98487   0.54779   0.00000  Uiso   1.00
N87    N     0.14350   0.17468   0.70101   0.00000  Uiso   1.00
N88    N     0.39123   0.08385   0.18070   0.00000  Uiso   1.00
N89    N     0.85479   0.98102   0.78599   0.00000  Uiso   1.00
N90    N     0.10760   0.26209   0.57670   0.00000  Uiso   1.00
N91    N     0.35533   0.17126   0.05639   0.00000  Uiso   1.00
N92    N     0.81888   0.06843   0.66169   0.00000  Uiso   1.00
C93    C     0.79973   0.42784   0.73353   0.00000  Uiso   1.00
C94    C     0.88571   0.37823   0.83198   0.00000  Uiso   1.00
C95    C     0.97799   0.38520   0.98401   0.00000  Uiso   1.00
C96    C     0.04661   0.33430   0.05392   0.00000  Uiso   1.00
C97    C     0.18356   0.26575   0.21889   0.00000  Uiso   1.00
C98    C     0.67838   0.40325   0.68860   0.00000  Uiso   1.00
C99    C     0.59634   0.43128   0.72006   0.00000  Uiso   1.00
C100   C     0.49043   0.40145   0.66925   0.00000  Uiso   1.00
C101   C     0.30547   0.37178   0.61152   0.00000  Uiso   1.00
C102   C     0.80616   0.43159   0.57984   0.00000  Uiso   1.00
C103   C     0.83152   0.48344   0.51982   0.00000  Uiso   1.00
C104   C     0.83316   0.47748   0.37742   0.00000  Uiso   1.00
C105   C     0.84659   0.49181   0.15083   0.00000  Uiso   1.00
C106   C     0.75750   0.32505   0.58734   0.00000  Uiso   1.00
C107   C     0.86277   0.32240   0.75257   0.00000  Uiso   1.00
C108   C     0.93127   0.27148   0.82227   0.00000  Uiso   1.00
C109   C     0.02364   0.27837   0.97437   0.00000  Uiso   1.00
C110   C     0.65544   0.34743   0.60920   0.00000  Uiso   1.00
C111   C     0.54962   0.31755   0.55832   0.00000  Uiso   1.00
C112   C     0.46745   0.34552   0.58970   0.00000  Uiso   1.00
C113   C     0.78322   0.37576   0.50044   0.00000  Uiso   1.00
C114   C     0.78481   0.36972   0.35809   0.00000  Uiso   1.00
C115   C     0.81018   0.42155   0.29787   0.00000  Uiso   1.00
H116   H     0.81758   0.47131   0.79535   0.00000  Uiso   1.00
H117   H     0.99570   0.42841   0.04542   0.00000  Uiso   1.00
H118   H     0.61411   0.47448   0.78150   0.00000  Uiso   1.00
H119   H     0.84926   0.52664   0.58130   0.00000  Uiso   1.00
H120   H     0.18304   0.35623   0.28768   0.00000  Uiso   1.00
H121   H     0.37842   0.45338   0.73114   0.00000  Uiso   1.00
H122   H     0.87428   0.56337   0.30898   0.00000  Uiso   1.00
H123   H     0.73964   0.28158   0.52552   0.00000  Uiso   1.00
H124   H     0.91350   0.22828   0.76079   0.00000  Uiso   1.00
H125   H     0.53190   0.27435   0.49687   0.00000  Uiso   1.00
H126   H     0.76706   0.32651   0.29668   0.00000  Uiso   1.00
H127   H     0.11632   0.19379   0.05667   0.00000  Uiso   1.00
H128   H     0.31169   0.29095   0.50012   0.00000  Uiso   1.00
H129   H     0.80756   0.40093   0.07796   0.00000  Uiso   1.00
O130   O     0.26543   0.24337   0.33183   0.00000  Uiso   1.00
O131   O     0.20979   0.37083   0.60164   0.00000  Uiso   1.00
O132   O     0.86036   0.51513   0.04779   0.00000  Uiso   1.00
N133   N     0.14350   0.32532   0.20101   0.00000  Uiso   1.00
N134   N     0.39123   0.41615   0.68070   0.00000  Uiso   1.00
N135   N     0.85479   0.51898   0.28599   0.00000  Uiso   1.00
N136   N     0.10760   0.23791   0.07670   0.00000  Uiso   1.00
N137   N     0.35533   0.32874   0.55639   0.00000  Uiso   1.00
N138   N     0.81888   0.43157   0.16169   0.00000  Uiso   1.00
C139   C     0.20027   0.92784   0.76647   0.00000  Uiso   1.00
C140   C     0.11429   0.87823   0.66802   0.00000  Uiso   1.00
C141   C     0.02201   0.88520   0.51599   0.00000  Uiso   1.00
C142   C     0.95339   0.83430   0.44608   0.00000  Uiso   1.00
C143   C     0.81644   0.76575   0.28111   0.00000  Uiso   1.00
C144   C     0.32162   0.90325   0.81140   0.00000  Uiso   1.00
C145   C     0.40366   0.93128   0.77994   0.00000  Uiso   1.00
C146   C     0.50957   0.90145   0.83075   0.00000  Uiso   1.00
C147   C     0.69453   0.87178   0.88848   0.00000  Uiso   1.00
C148   C     0.19384   0.93159   0.92016   0.00000  Uiso   1.00
C149   C     0.16848   0.98344   0.98018   0.00000  Uiso   1.00
C150   C     0.16684   0.97748   0.12258   0.00000  Uiso   1.00
C151   C     0.15341   0.99181   0.34917   0.00000  Uiso   1.00
C152   C     0.24250   0.82505   0.91266   0.00000  Uiso   1.00
C153   C     0.13723   0.82240   0.74743   0.00000  Uiso   1.00
C154   C     0.06873   0.77148   0.67773   0.00000  Uiso   1.00
C155   C     0.97636   0.77837   0.52563   0.00000  Uiso   1.00
C156   C     0.34456   0.84743   0.89080   0.00000  Uiso   1.00
C157   C     0.45038   0.81755   0.94168   0.00000  Uiso   1.00
C158   C     0.53255   0.84552   0.91030   0.00000  Uiso   1.00
C159   C     0.21678   0.87576   0.99956   0.00000  Uiso   1.00
C160   C     0.21519   0.86972   0.14191   0.00000  Uiso   1.00
C161   C     0.18982   0.92155   0.20213   0.00000  Uiso   1.00
H162   H     0.18242   0.97131   0.70465   0.00000  Uiso   1.00
H163   H     0.00430   0.92841   0.45458   0.00000  Uiso   1.00
H164   H     0.38589   0.97448   0.71850   0.00000  Uiso   1.00
H165   H     0.15074   0.02664   0.91870   0.00000  Uiso   1.00
H166   H     0.81696   0.85623   0.21232   0.00000  Uiso   1.00
H167   H     0.62158   0.95338   0.76886   0.00000  Uiso   1.00
H168   H     0.12572   0.06337   0.19102   0.00000  Uiso   1.00
H169   H     0.26036   0.78158   0.97448   0.00000  Uiso   1.00
H170   H     0.08650   0.72828   0.73921   0.00000  Uiso   1.00
H171   H     0.46810   0.77435   0.00313   0.00000  Uiso   1.00
H172   H     0.23294   0.82651   0.20332   0.00000  Uiso   1.00
H173   H     0.88368   0.69379   0.44333   0.00000  Uiso   1.00
H174   H     0.68831   0.79095   0.99988   0.00000  Uiso   1.00
H175   H     0.19244   0.90093   0.42204   0.00000  Uiso   1.00
O176   O     0.73457   0.74337   0.16817   0.00000  Uiso   1.00
O177   O     0.79021   0.87083   0.89836   0.00000  Uiso   1.00
O178   O     0.13964   0.01513   0.45221   0.00000  Uiso   1.00
N179   N     0.85650   0.82532   0.29899   0.00000  Uiso   1.00
N180   N     0.60877   0.91615   0.81930   0.00000  Uiso   1.00
N181   N     0.14521   0.01898   0.21401   0.00000  Uiso   1.00
N182   N     0.89240   0.73791   0.42330   0.00000  Uiso   1.00
N183   N     0.64467   0.82874   0.94361   0.00000  Uiso   1.00
N184   N     0.18112   0.93157   0.33831   0.00000  Uiso   1.00
