data_job_06341
_audit_creation_date              2018-12-19
_audit_creation_method            'Materials Studio'
_symmetry_space_group_name_H-M    'P1'
_symmetry_Int_Tables_number       1
_symmetry_cell_setting            triclinic
loop_
_symmetry_equiv_pos_as_xyz
  x,y,z
_cell_length_a                    18.0369
_cell_length_b                    17.2730
_cell_length_c                    16.9204
_cell_angle_alpha                 84.7800
_cell_angle_beta                  84.2725
_cell_angle_gamma                 84.5685
loop_
_atom_site_label
_atom_site_type_symbol
_atom_site_fract_x
_atom_site_fract_y
_atom_site_fract_z
_atom_site_U_iso_or_equiv
_atom_site_adp_type
_atom_site_occupancy
C1     C     0.40446   0.57712   0.01861   0.00000  Uiso   1.00
C2     C     0.40241   0.62341   0.09147   0.00000  Uiso   1.00
C3     C     0.44478   0.60418   0.15566   0.00000  Uiso   1.00
C4     C     0.43478   0.65405   0.21646   0.00000  Uiso   1.00
C5     C     0.43927   0.71577   0.33012   0.00000  Uiso   1.00
C6     C     0.32428   0.55812   0.01361   0.00000  Uiso   1.00
C7     C     0.30096   0.48398   0.01233   0.00000  Uiso   1.00
C8     C     0.22519   0.47889   0.00758   0.00000  Uiso   1.00
C9     C     0.10839   0.43923   0.00031   0.00000  Uiso   1.00
C10    C     0.42288   0.63395   0.94651   0.00000  Uiso   1.00
C11    C     0.48245   0.62357   0.88880   0.00000  Uiso   1.00
C12    C     0.48968   0.68232   0.82754   0.00000  Uiso   1.00
C13    C     0.52597   0.76042   0.71609   0.00000  Uiso   1.00
C14    C     0.31137   0.69989   0.01243   0.00000  Uiso   1.00
C15    C     0.35185   0.69010   0.08811   0.00000  Uiso   1.00
C16    C     0.34179   0.74001   0.14882   0.00000  Uiso   1.00
C17    C     0.38414   0.72086   0.21309   0.00000  Uiso   1.00
C18    C     0.27372   0.62480   0.01025   0.00000  Uiso   1.00
C19    C     0.19797   0.61982   0.00550   0.00000  Uiso   1.00
C20    C     0.17454   0.54569   0.00422   0.00000  Uiso   1.00
C21    C     0.37232   0.70064   0.94316   0.00000  Uiso   1.00
C22    C     0.37947   0.75941   0.88197   0.00000  Uiso   1.00
C23    C     0.43903   0.74913   0.82418   0.00000  Uiso   1.00
H24    H     0.44381   0.52519   0.02122   0.00000  Uiso   1.00
H25    H     0.48389   0.55256   0.15824   0.00000  Uiso   1.00
H26    H     0.34010   0.43238   0.01492   0.00000  Uiso   1.00
H27    H     0.52156   0.57196   0.89142   0.00000  Uiso   1.00
H28    H     0.50601   0.61229   0.30868   0.00000  Uiso   1.00
H29    H     0.20281   0.35889   0.00647   0.00000  Uiso   1.00
H30    H     0.58546   0.65322   0.74603   0.00000  Uiso   1.00
H31    H     0.27201   0.75181   0.00982   0.00000  Uiso   1.00
H32    H     0.30267   0.79162   0.14621   0.00000  Uiso   1.00
H33    H     0.15887   0.67143   0.00290   0.00000  Uiso   1.00
H34    H     0.34033   0.81101   0.87939   0.00000  Uiso   1.00
H35    H     0.35892   0.80632   0.29892   0.00000  Uiso   1.00
H36    H     0.05572   0.55292   0.99670   0.00000  Uiso   1.00
H37    H     0.43837   0.84724   0.73627   0.00000  Uiso   1.00
O38    O     0.45571   0.73138   0.39374   0.00000  Uiso   1.00
O39    O     0.05793   0.39894   0.99723   0.00000  Uiso   1.00
O40    O     0.55996   0.78508   0.65555   0.00000  Uiso   1.00
N41    N     0.46720   0.65250   0.28766   0.00000  Uiso   1.00
N42    N     0.18372   0.41559   0.00512   0.00000  Uiso   1.00
N43    N     0.54146   0.69075   0.76162   0.00000  Uiso   1.00
N44    N     0.38805   0.75691   0.28241   0.00000  Uiso   1.00
N45    N     0.10457   0.51999   0.99987   0.00000  Uiso   1.00
N46    N     0.46231   0.79515   0.75637   0.00000  Uiso   1.00
C47    C     0.01938   0.40921   0.57462   0.00000  Uiso   1.00
C48    C     0.08771   0.40700   0.62133   0.00000  Uiso   1.00
C49    C     0.14830   0.45110   0.60133   0.00000  Uiso   1.00
C50    C     0.20525   0.44061   0.65176   0.00000  Uiso   1.00
C51    C     0.31192   0.44517   0.71393   0.00000  Uiso   1.00
C52    C     0.01415   0.32556   0.55503   0.00000  Uiso   1.00
C53    C     0.01288   0.30119   0.47928   0.00000  Uiso   1.00
C54    C     0.00789   0.22215   0.47390   0.00000  Uiso   1.00
C55    C     0.00030   0.10029   0.43315   0.00000  Uiso   1.00
C56    C     0.95175   0.42856   0.63324   0.00000  Uiso   1.00
C57    C     0.89799   0.49078   0.62325   0.00000  Uiso   1.00
C58    C     0.84045   0.49844   0.68371   0.00000  Uiso   1.00
C59    C     0.73597   0.53650   0.76438   0.00000  Uiso   1.00
C60    C     0.01277   0.31217   0.69974   0.00000  Uiso   1.00
C61    C     0.08412   0.35429   0.68929   0.00000  Uiso   1.00
C62    C     0.14099   0.34374   0.73977   0.00000  Uiso   1.00
C63    C     0.20166   0.38781   0.71985   0.00000  Uiso   1.00
C64    C     0.01056   0.27286   0.62299   0.00000  Uiso   1.00
C65    C     0.00557   0.19384   0.61772   0.00000  Uiso   1.00
C66    C     0.00429   0.16935   0.54199   0.00000  Uiso   1.00
C67    C     0.94816   0.37585   0.70120   0.00000  Uiso   1.00
C68    C     0.89069   0.38342   0.76169   0.00000  Uiso   1.00
C69    C     0.83686   0.44564   0.75179   0.00000  Uiso   1.00
H70    H     0.02217   0.45024   0.52170   0.00000  Uiso   1.00
H71    H     0.15106   0.49187   0.54872   0.00000  Uiso   1.00
H72    H     0.01565   0.34199   0.42670   0.00000  Uiso   1.00
H73    H     0.90079   0.53155   0.57064   0.00000  Uiso   1.00
H74    H     0.29239   0.51477   0.60864   0.00000  Uiso   1.00
H75    H     0.00684   0.19875   0.35135   0.00000  Uiso   1.00
H76    H     0.76463   0.59846   0.65488   0.00000  Uiso   1.00
H77    H     0.00998   0.27114   0.75266   0.00000  Uiso   1.00
H78    H     0.13820   0.30295   0.79236   0.00000  Uiso   1.00
H79    H     0.00279   0.15307   0.67033   0.00000  Uiso   1.00
H80    H     0.88793   0.34262   0.81427   0.00000  Uiso   1.00
H81    H     0.28196   0.36143   0.80638   0.00000  Uiso   1.00
H82    H     0.99640   0.04540   0.54908   0.00000  Uiso   1.00
H83    H     0.75419   0.44512   0.85261   0.00000  Uiso   1.00
O84    O     0.37176   0.46224   0.72944   0.00000  Uiso   1.00
O85    O     0.99711   0.04763   0.39189   0.00000  Uiso   1.00
O86    O     0.67934   0.57205   0.79011   0.00000  Uiso   1.00
N87    N     0.27233   0.47433   0.64974   0.00000  Uiso   1.00
N88    N     0.00537   0.17886   0.40918   0.00000  Uiso   1.00
N89    N     0.77891   0.55255   0.69295   0.00000  Uiso   1.00
N90    N     0.26672   0.39182   0.75614   0.00000  Uiso   1.00
N91    N     0.99975   0.09635   0.51559   0.00000  Uiso   1.00
N92    N     0.77329   0.47004   0.79935   0.00000  Uiso   1.00
C93    C     0.58288   0.01981   0.41267   0.00000  Uiso   1.00
C94    C     0.62722   0.09104   0.41026   0.00000  Uiso   1.00
C95    C     0.60882   0.15430   0.45560   0.00000  Uiso   1.00
C96    C     0.65657   0.21364   0.44468   0.00000  Uiso   1.00
C97    C     0.71569   0.32484   0.44917   0.00000  Uiso   1.00
C98    C     0.56456   0.01434   0.32741   0.00000  Uiso   1.00
C99    C     0.49347   0.01311   0.30309   0.00000  Uiso   1.00
C100   C     0.48848   0.00787   0.22243   0.00000  Uiso   1.00
C101   C     0.45031   0.99994   0.09830   0.00000  Uiso   1.00
C102   C     0.63742   0.94919   0.43179   0.00000  Uiso   1.00
C103   C     0.62759   0.89315   0.49523   0.00000  Uiso   1.00
C104   C     0.68394   0.83305   0.50244   0.00000  Uiso   1.00
C105   C     0.75891   0.72395   0.54039   0.00000  Uiso   1.00
C106   C     0.70044   0.01270   0.31265   0.00000  Uiso   1.00
C107   C     0.69107   0.08717   0.35593   0.00000  Uiso   1.00
C108   C     0.73888   0.14643   0.34494   0.00000  Uiso   1.00
C109   C     0.72054   0.20977   0.39026   0.00000  Uiso   1.00
C110   C     0.62841   0.01048   0.27308   0.00000  Uiso   1.00
C111   C     0.62353   0.00524   0.19243   0.00000  Uiso   1.00
C112   C     0.55245   0.00400   0.16800   0.00000  Uiso   1.00
C113   C     0.70128   0.94532   0.37746   0.00000  Uiso   1.00
C114   C     0.75765   0.88528   0.38457   0.00000  Uiso   1.00
C115   C     0.74791   0.82917   0.44801   0.00000  Uiso   1.00
H116   H     0.53317   0.02282   0.45496   0.00000  Uiso   1.00
H117   H     0.55939   0.15727   0.49764   0.00000  Uiso   1.00
H118   H     0.44407   0.01609   0.34515   0.00000  Uiso   1.00
H119   H     0.57817   0.89616   0.53726   0.00000  Uiso   1.00
H120   H     0.61661   0.30465   0.52096   0.00000  Uiso   1.00
H121   H     0.37343   0.00694   0.19945   0.00000  Uiso   1.00
H122   H     0.65622   0.75403   0.60456   0.00000  Uiso   1.00
H123   H     0.75015   0.00969   0.27034   0.00000  Uiso   1.00
H124   H     0.78828   0.14342   0.30289   0.00000  Uiso   1.00
H125   H     0.67295   0.00224   0.15040   0.00000  Uiso   1.00
H126   H     0.80706   0.88231   0.34252   0.00000  Uiso   1.00
H127   H     0.80238   0.29341   0.36290   0.00000  Uiso   1.00
H128   H     0.55921   0.99569   0.04138   0.00000  Uiso   1.00
H129   H     0.84199   0.74279   0.44649   0.00000  Uiso   1.00
O130   O     0.73065   0.38725   0.46665   0.00000  Uiso   1.00
O131   O     0.41161   0.99665   0.04484   0.00000  Uiso   1.00
O132   O     0.78262   0.66485   0.57633   0.00000  Uiso   1.00
N133   N     0.65510   0.28364   0.47931   0.00000  Uiso   1.00
N134   N     0.42775   0.00531   0.17871   0.00000  Uiso   1.00
N135   N     0.69212   0.76886   0.55744   0.00000  Uiso   1.00
N136   N     0.75507   0.27759   0.39426   0.00000  Uiso   1.00
N137   N     0.52771   0.99926   0.09366   0.00000  Uiso   1.00
N138   N     0.79209   0.76281   0.47238   0.00000  Uiso   1.00
C139   C     0.59554   0.42288   0.98139   0.00000  Uiso   1.00
C140   C     0.59759   0.37659   0.90853   0.00000  Uiso   1.00
C141   C     0.55522   0.39582   0.84434   0.00000  Uiso   1.00
C142   C     0.56522   0.34595   0.78354   0.00000  Uiso   1.00
C143   C     0.56073   0.28423   0.66988   0.00000  Uiso   1.00
C144   C     0.67572   0.44188   0.98639   0.00000  Uiso   1.00
C145   C     0.69904   0.51602   0.98767   0.00000  Uiso   1.00
C146   C     0.77481   0.52111   0.99242   0.00000  Uiso   1.00
C147   C     0.89161   0.56077   0.99969   0.00000  Uiso   1.00
C148   C     0.57712   0.36605   0.05349   0.00000  Uiso   1.00
C149   C     0.51755   0.37643   0.11120   0.00000  Uiso   1.00
C150   C     0.51032   0.31768   0.17246   0.00000  Uiso   1.00
C151   C     0.47403   0.23958   0.28391   0.00000  Uiso   1.00
C152   C     0.68863   0.30011   0.98757   0.00000  Uiso   1.00
C153   C     0.64815   0.30990   0.91189   0.00000  Uiso   1.00
C154   C     0.65821   0.25999   0.85118   0.00000  Uiso   1.00
C155   C     0.61586   0.27914   0.78691   0.00000  Uiso   1.00
C156   C     0.72628   0.37520   0.98975   0.00000  Uiso   1.00
C157   C     0.80203   0.38018   0.99450   0.00000  Uiso   1.00
C158   C     0.82546   0.45431   0.99579   0.00000  Uiso   1.00
C159   C     0.62768   0.29936   0.05684   0.00000  Uiso   1.00
C160   C     0.62053   0.24059   0.11803   0.00000  Uiso   1.00
C161   C     0.56097   0.25087   0.17582   0.00000  Uiso   1.00
H162   H     0.55619   0.47481   0.97878   0.00000  Uiso   1.00
H163   H     0.51611   0.44744   0.84176   0.00000  Uiso   1.00
H164   H     0.65990   0.56762   0.98508   0.00000  Uiso   1.00
H165   H     0.47844   0.42804   0.10858   0.00000  Uiso   1.00
H166   H     0.49399   0.38771   0.69132   0.00000  Uiso   1.00
H167   H     0.79719   0.64110   0.99353   0.00000  Uiso   1.00
H168   H     0.41454   0.34678   0.25397   0.00000  Uiso   1.00
H169   H     0.72799   0.24819   0.99018   0.00000  Uiso   1.00
H170   H     0.69733   0.20838   0.85379   0.00000  Uiso   1.00
H171   H     0.84113   0.32857   0.99710   0.00000  Uiso   1.00
H172   H     0.65967   0.18899   0.12061   0.00000  Uiso   1.00
H173   H     0.64108   0.19368   0.70108   0.00000  Uiso   1.00
H174   H     0.94428   0.44708   0.00330   0.00000  Uiso   1.00
H175   H     0.56163   0.15276   0.26373   0.00000  Uiso   1.00
O176   O     0.54429   0.26862   0.60626   0.00000  Uiso   1.00
O177   O     0.94207   0.60106   0.00277   0.00000  Uiso   1.00
O178   O     0.44004   0.21492   0.34445   0.00000  Uiso   1.00
N179   N     0.53280   0.34750   0.71234   0.00000  Uiso   1.00
N180   N     0.81628   0.58441   0.99488   0.00000  Uiso   1.00
N181   N     0.45854   0.30925   0.23838   0.00000  Uiso   1.00
N182   N     0.61195   0.24309   0.71759   0.00000  Uiso   1.00
N183   N     0.89543   0.48001   0.00013   0.00000  Uiso   1.00
N184   N     0.53769   0.20485   0.24363   0.00000  Uiso   1.00
C185   C     0.98062   0.59079   0.42538   0.00000  Uiso   1.00
C186   C     0.91229   0.59300   0.37867   0.00000  Uiso   1.00
C187   C     0.85170   0.54890   0.39867   0.00000  Uiso   1.00
C188   C     0.79475   0.55939   0.34824   0.00000  Uiso   1.00
C189   C     0.68808   0.55483   0.28607   0.00000  Uiso   1.00
C190   C     0.98585   0.67444   0.44497   0.00000  Uiso   1.00
C191   C     0.98712   0.69881   0.52072   0.00000  Uiso   1.00
C192   C     0.99211   0.77785   0.52610   0.00000  Uiso   1.00
C193   C     0.99970   0.89971   0.56685   0.00000  Uiso   1.00
C194   C     0.04825   0.57144   0.36676   0.00000  Uiso   1.00
C195   C     0.10201   0.50922   0.37675   0.00000  Uiso   1.00
C196   C     0.15955   0.50156   0.31629   0.00000  Uiso   1.00
C197   C     0.26403   0.46350   0.23562   0.00000  Uiso   1.00
C198   C     0.98723   0.68783   0.30026   0.00000  Uiso   1.00
C199   C     0.91588   0.64571   0.31071   0.00000  Uiso   1.00
C200   C     0.85901   0.65626   0.26023   0.00000  Uiso   1.00
C201   C     0.79834   0.61219   0.28015   0.00000  Uiso   1.00
C202   C     0.98944   0.72714   0.37701   0.00000  Uiso   1.00
C203   C     0.99443   0.80616   0.38228   0.00000  Uiso   1.00
C204   C     0.99571   0.83065   0.45801   0.00000  Uiso   1.00
C205   C     0.05184   0.62415   0.29880   0.00000  Uiso   1.00
C206   C     0.10931   0.61658   0.23831   0.00000  Uiso   1.00
C207   C     0.16314   0.55436   0.24821   0.00000  Uiso   1.00
H208   H     0.97783   0.54976   0.47830   0.00000  Uiso   1.00
H209   H     0.84894   0.50813   0.45128   0.00000  Uiso   1.00
H210   H     0.98435   0.65801   0.57330   0.00000  Uiso   1.00
H211   H     0.09921   0.46845   0.42936   0.00000  Uiso   1.00
H212   H     0.70761   0.48523   0.39136   0.00000  Uiso   1.00
H213   H     0.99316   0.80125   0.64865   0.00000  Uiso   1.00
H214   H     0.23537   0.40154   0.34512   0.00000  Uiso   1.00
H215   H     0.99002   0.72886   0.24734   0.00000  Uiso   1.00
H216   H     0.86180   0.69705   0.20764   0.00000  Uiso   1.00
H217   H     0.99721   0.84693   0.32967   0.00000  Uiso   1.00
H218   H     0.11207   0.65738   0.18573   0.00000  Uiso   1.00
H219   H     0.71804   0.63857   0.19362   0.00000  Uiso   1.00
H220   H     0.00360   0.95460   0.45092   0.00000  Uiso   1.00
H221   H     0.24581   0.55488   0.14739   0.00000  Uiso   1.00
O222   O     0.62824   0.53776   0.27056   0.00000  Uiso   1.00
O223   O     0.00289   0.95237   0.60811   0.00000  Uiso   1.00
O224   O     0.32066   0.42795   0.20989   0.00000  Uiso   1.00
N225   N     0.72767   0.52567   0.35026   0.00000  Uiso   1.00
N226   N     0.99463   0.82114   0.59082   0.00000  Uiso   1.00
N227   N     0.22109   0.44745   0.30705   0.00000  Uiso   1.00
N228   N     0.73328   0.60818   0.24386   0.00000  Uiso   1.00
N229   N     0.00025   0.90365   0.48441   0.00000  Uiso   1.00
N230   N     0.22671   0.52996   0.20065   0.00000  Uiso   1.00
C231   C     0.41712   0.98019   0.58733   0.00000  Uiso   1.00
C232   C     0.37278   0.90896   0.58974   0.00000  Uiso   1.00
C233   C     0.39119   0.84570   0.54440   0.00000  Uiso   1.00
C234   C     0.34343   0.78636   0.55532   0.00000  Uiso   1.00
C235   C     0.28431   0.67516   0.55083   0.00000  Uiso   1.00
C236   C     0.43544   0.98565   0.67259   0.00000  Uiso   1.00
C237   C     0.50654   0.98689   0.69691   0.00000  Uiso   1.00
C238   C     0.51152   0.99213   0.77757   0.00000  Uiso   1.00
C239   C     0.54969   0.00006   0.90170   0.00000  Uiso   1.00
C240   C     0.36258   0.05081   0.56821   0.00000  Uiso   1.00
C241   C     0.37241   0.10685   0.50477   0.00000  Uiso   1.00
C242   C     0.31606   0.16695   0.49756   0.00000  Uiso   1.00
C243   C     0.24109   0.27605   0.45961   0.00000  Uiso   1.00
C244   C     0.29956   0.98730   0.68735   0.00000  Uiso   1.00
C245   C     0.30893   0.91283   0.64407   0.00000  Uiso   1.00
C246   C     0.26112   0.85357   0.65506   0.00000  Uiso   1.00
C247   C     0.27946   0.79023   0.60974   0.00000  Uiso   1.00
C248   C     0.37159   0.98952   0.72692   0.00000  Uiso   1.00
C249   C     0.37647   0.99476   0.80757   0.00000  Uiso   1.00
C250   C     0.44755   0.99600   0.83200   0.00000  Uiso   1.00
C251   C     0.29872   0.05468   0.62254   0.00000  Uiso   1.00
C252   C     0.24235   0.11472   0.61543   0.00000  Uiso   1.00
C253   C     0.25209   0.17083   0.55199   0.00000  Uiso   1.00
H254   H     0.46683   0.97718   0.54504   0.00000  Uiso   1.00
H255   H     0.44061   0.84273   0.50237   0.00000  Uiso   1.00
H256   H     0.55593   0.98390   0.65485   0.00000  Uiso   1.00
H257   H     0.42183   0.10384   0.46274   0.00000  Uiso   1.00
H258   H     0.38339   0.69535   0.47904   0.00000  Uiso   1.00
H259   H     0.62657   0.99306   0.80055   0.00000  Uiso   1.00
H260   H     0.34378   0.24597   0.39544   0.00000  Uiso   1.00
H261   H     0.24985   0.99031   0.72966   0.00000  Uiso   1.00
H262   H     0.21172   0.85658   0.69711   0.00000  Uiso   1.00
H263   H     0.32705   0.99776   0.84960   0.00000  Uiso   1.00
H264   H     0.19294   0.11769   0.65748   0.00000  Uiso   1.00
H265   H     0.19762   0.70659   0.63710   0.00000  Uiso   1.00
H266   H     0.44079   0.00431   0.95862   0.00000  Uiso   1.00
H267   H     0.15801   0.25721   0.55351   0.00000  Uiso   1.00
O268   O     0.26935   0.61275   0.53335   0.00000  Uiso   1.00
O269   O     0.58839   0.00335   0.95516   0.00000  Uiso   1.00
O270   O     0.21738   0.33515   0.42367   0.00000  Uiso   1.00
N271   N     0.34490   0.71636   0.52069   0.00000  Uiso   1.00
N272   N     0.57225   0.99469   0.82129   0.00000  Uiso   1.00
N273   N     0.30788   0.23114   0.44256   0.00000  Uiso   1.00
N274   N     0.24493   0.72241   0.60574   0.00000  Uiso   1.00
N275   N     0.47229   0.00074   0.90635   0.00000  Uiso   1.00
N276   N     0.20791   0.23719   0.52762   0.00000  Uiso   1.00
