data_job_03009
_audit_creation_date              2018-12-19
_audit_creation_method            'Materials Studio'
_symmetry_space_group_name_H-M    'P1'
_symmetry_Int_Tables_number       1
_symmetry_cell_setting            triclinic
loop_
_symmetry_equiv_pos_as_xyz
  x,y,z
_cell_length_a                    12.2817
_cell_length_b                    14.8228
_cell_length_c                    19.1344
_cell_angle_alpha                 90.0000
_cell_angle_beta                  122.3420
_cell_angle_gamma                 90.0000
loop_
_atom_site_label
_atom_site_type_symbol
_atom_site_fract_x
_atom_site_fract_y
_atom_site_fract_z
_atom_site_U_iso_or_equiv
_atom_site_adp_type
_atom_site_occupancy
C1     C     0.85581   0.35482   0.93109   0.00000  Uiso   1.00
C2     C     0.99584   0.32395   0.97558   0.00000  Uiso   1.00
C3     C     0.10200   0.37350   0.03378   0.00000  Uiso   1.00
C4     C     0.22206   0.33337   0.06732   0.00000  Uiso   1.00
C5     C     0.43749   0.29863   0.14000   0.00000  Uiso   1.00
C6     C     0.80375   0.34821   0.83886   0.00000  Uiso   1.00
C7     C     0.74837   0.41815   0.78211   0.00000  Uiso   1.00
C8     C     0.70672   0.39843   0.70056   0.00000  Uiso   1.00
C9     C     0.62382   0.40133   0.56098   0.00000  Uiso   1.00
C10    C     0.78460   0.28308   0.94872   0.00000  Uiso   1.00
C11    C     0.71309   0.29825   0.98432   0.00000  Uiso   1.00
C12    C     0.65529   0.22370   0.99525   0.00000  Uiso   1.00
C13    C     0.54266   0.12547   0.02624   0.00000  Uiso   1.00
C14    C     0.88027   0.19544   0.88716   0.00000  Uiso   1.00
C15    C     0.00912   0.23738   0.95172   0.00000  Uiso   1.00
C16    C     0.12906   0.19716   0.98518   0.00000  Uiso   1.00
C17    C     0.23538   0.24664   0.04343   0.00000  Uiso   1.00
C18    C     0.81703   0.26164   0.81500   0.00000  Uiso   1.00
C19    C     0.77544   0.24181   0.73352   0.00000  Uiso   1.00
C20    C     0.72002   0.31170   0.67666   0.00000  Uiso   1.00
C21    C     0.79788   0.19651   0.92486   0.00000  Uiso   1.00
C22    C     0.74017   0.12192   0.93573   0.00000  Uiso   1.00
C23    C     0.66860   0.13697   0.97135   0.00000  Uiso   1.00
H24    H     0.84546   0.42221   0.94966   0.00000  Uiso   1.00
H25    H     0.09168   0.44049   0.05222   0.00000  Uiso   1.00
H26    H     0.73810   0.48513   0.80059   0.00000  Uiso   1.00
H27    H     0.70284   0.36525   0.00278   0.00000  Uiso   1.00
H28    H     0.37052   0.42259   0.15539   0.00000  Uiso   1.00
H29    H     0.62493   0.51670   0.62481   0.00000  Uiso   1.00
H30    H     0.55057   0.26392   0.05115   0.00000  Uiso   1.00
H31    H     0.89061   0.12804   0.86859   0.00000  Uiso   1.00
H32    H     0.13931   0.13017   0.96671   0.00000  Uiso   1.00
H33    H     0.78573   0.17481   0.71508   0.00000  Uiso   1.00
H34    H     0.75046   0.05494   0.91726   0.00000  Uiso   1.00
H35    H     0.40918   0.17073   0.08598   0.00000  Uiso   1.00
H36    H     0.66358   0.26484   0.55540   0.00000  Uiso   1.00
H37    H     0.58923   0.01206   0.98175   0.00000  Uiso   1.00
O38    O     0.55264   0.30338   0.18667   0.00000  Uiso   1.00
O39    O     0.57444   0.42685   0.49057   0.00000  Uiso   1.00
O40    O     0.47688   0.09521   0.04993   0.00000  Uiso   1.00
N41    N     0.34548   0.36302   0.12560   0.00000  Uiso   1.00
N42    N     0.64842   0.45101   0.62954   0.00000  Uiso   1.00
N43    N     0.57887   0.21468   0.02812   0.00000  Uiso   1.00
N44    N     0.36629   0.22749   0.08825   0.00000  Uiso   1.00
N45    N     0.66923   0.31548   0.59220   0.00000  Uiso   1.00
N46    N     0.59967   0.07916   0.99077   0.00000  Uiso   1.00
C47    C     0.14419   0.35482   0.56891   0.00000  Uiso   1.00
C48    C     0.00416   0.32395   0.52442   0.00000  Uiso   1.00
C49    C     0.89800   0.37350   0.46622   0.00000  Uiso   1.00
C50    C     0.77794   0.33337   0.43268   0.00000  Uiso   1.00
C51    C     0.56251   0.29863   0.36000   0.00000  Uiso   1.00
C52    C     0.19625   0.34821   0.66114   0.00000  Uiso   1.00
C53    C     0.25163   0.41815   0.71789   0.00000  Uiso   1.00
C54    C     0.29328   0.39843   0.79944   0.00000  Uiso   1.00
C55    C     0.37618   0.40133   0.93902   0.00000  Uiso   1.00
C56    C     0.21540   0.28308   0.55128   0.00000  Uiso   1.00
C57    C     0.28691   0.29825   0.51568   0.00000  Uiso   1.00
C58    C     0.34471   0.22370   0.50475   0.00000  Uiso   1.00
C59    C     0.45734   0.12547   0.47376   0.00000  Uiso   1.00
C60    C     0.11973   0.19544   0.61284   0.00000  Uiso   1.00
C61    C     0.99088   0.23738   0.54828   0.00000  Uiso   1.00
C62    C     0.87094   0.19716   0.51482   0.00000  Uiso   1.00
C63    C     0.76462   0.24664   0.45657   0.00000  Uiso   1.00
C64    C     0.18297   0.26164   0.68500   0.00000  Uiso   1.00
C65    C     0.22456   0.24181   0.76648   0.00000  Uiso   1.00
C66    C     0.27998   0.31170   0.82334   0.00000  Uiso   1.00
C67    C     0.20212   0.19651   0.57514   0.00000  Uiso   1.00
C68    C     0.25983   0.12192   0.56427   0.00000  Uiso   1.00
C69    C     0.33140   0.13697   0.52865   0.00000  Uiso   1.00
H70    H     0.15454   0.42221   0.55034   0.00000  Uiso   1.00
H71    H     0.90832   0.44049   0.44778   0.00000  Uiso   1.00
H72    H     0.26190   0.48513   0.69941   0.00000  Uiso   1.00
H73    H     0.29716   0.36525   0.49722   0.00000  Uiso   1.00
H74    H     0.62948   0.42259   0.34461   0.00000  Uiso   1.00
H75    H     0.37507   0.51670   0.87519   0.00000  Uiso   1.00
H76    H     0.44943   0.26392   0.44885   0.00000  Uiso   1.00
H77    H     0.10939   0.12804   0.63141   0.00000  Uiso   1.00
H78    H     0.86069   0.13017   0.53329   0.00000  Uiso   1.00
H79    H     0.21427   0.17481   0.78492   0.00000  Uiso   1.00
H80    H     0.24954   0.05494   0.58274   0.00000  Uiso   1.00
H81    H     0.59082   0.17073   0.41402   0.00000  Uiso   1.00
H82    H     0.33642   0.26484   0.94460   0.00000  Uiso   1.00
H83    H     0.41077   0.01206   0.51825   0.00000  Uiso   1.00
O84    O     0.44736   0.30338   0.31333   0.00000  Uiso   1.00
O85    O     0.42556   0.42685   0.00943   0.00000  Uiso   1.00
O86    O     0.52312   0.09521   0.45007   0.00000  Uiso   1.00
N87    N     0.65452   0.36302   0.37440   0.00000  Uiso   1.00
N88    N     0.35158   0.45101   0.87046   0.00000  Uiso   1.00
N89    N     0.42113   0.21468   0.47188   0.00000  Uiso   1.00
N90    N     0.63371   0.22749   0.41175   0.00000  Uiso   1.00
N91    N     0.33077   0.31548   0.90780   0.00000  Uiso   1.00
N92    N     0.40033   0.07916   0.50923   0.00000  Uiso   1.00
C93    C     0.14419   0.64518   0.06891   0.00000  Uiso   1.00
C94    C     0.00416   0.67605   0.02442   0.00000  Uiso   1.00
C95    C     0.89800   0.62650   0.96622   0.00000  Uiso   1.00
C96    C     0.77794   0.66663   0.93268   0.00000  Uiso   1.00
C97    C     0.56251   0.70137   0.86000   0.00000  Uiso   1.00
C98    C     0.19625   0.65179   0.16114   0.00000  Uiso   1.00
C99    C     0.25163   0.58185   0.21789   0.00000  Uiso   1.00
C100   C     0.29328   0.60157   0.29944   0.00000  Uiso   1.00
C101   C     0.37618   0.59867   0.43902   0.00000  Uiso   1.00
C102   C     0.21540   0.71692   0.05128   0.00000  Uiso   1.00
C103   C     0.28691   0.70175   0.01568   0.00000  Uiso   1.00
C104   C     0.34471   0.77630   0.00475   0.00000  Uiso   1.00
C105   C     0.45734   0.87453   0.97376   0.00000  Uiso   1.00
C106   C     0.11973   0.80456   0.11284   0.00000  Uiso   1.00
C107   C     0.99088   0.76262   0.04828   0.00000  Uiso   1.00
C108   C     0.87094   0.80284   0.01482   0.00000  Uiso   1.00
C109   C     0.76462   0.75336   0.95657   0.00000  Uiso   1.00
C110   C     0.18297   0.73836   0.18500   0.00000  Uiso   1.00
C111   C     0.22456   0.75819   0.26648   0.00000  Uiso   1.00
C112   C     0.27998   0.68830   0.32334   0.00000  Uiso   1.00
C113   C     0.20212   0.80349   0.07514   0.00000  Uiso   1.00
C114   C     0.25983   0.87808   0.06427   0.00000  Uiso   1.00
C115   C     0.33140   0.86303   0.02865   0.00000  Uiso   1.00
H116   H     0.15454   0.57779   0.05034   0.00000  Uiso   1.00
H117   H     0.90832   0.55951   0.94778   0.00000  Uiso   1.00
H118   H     0.26190   0.51487   0.19941   0.00000  Uiso   1.00
H119   H     0.29716   0.63475   0.99722   0.00000  Uiso   1.00
H120   H     0.62948   0.57741   0.84461   0.00000  Uiso   1.00
H121   H     0.37507   0.48330   0.37519   0.00000  Uiso   1.00
H122   H     0.44943   0.73608   0.94885   0.00000  Uiso   1.00
H123   H     0.10939   0.87196   0.13141   0.00000  Uiso   1.00
H124   H     0.86069   0.86983   0.03329   0.00000  Uiso   1.00
H125   H     0.21427   0.82519   0.28492   0.00000  Uiso   1.00
H126   H     0.24954   0.94506   0.08274   0.00000  Uiso   1.00
H127   H     0.59082   0.82927   0.91402   0.00000  Uiso   1.00
H128   H     0.33642   0.73516   0.44460   0.00000  Uiso   1.00
H129   H     0.41077   0.98794   0.01825   0.00000  Uiso   1.00
O130   O     0.44736   0.69662   0.81333   0.00000  Uiso   1.00
O131   O     0.42556   0.57315   0.50943   0.00000  Uiso   1.00
O132   O     0.52312   0.90479   0.95007   0.00000  Uiso   1.00
N133   N     0.65452   0.63698   0.87440   0.00000  Uiso   1.00
N134   N     0.35158   0.54899   0.37046   0.00000  Uiso   1.00
N135   N     0.42113   0.78532   0.97188   0.00000  Uiso   1.00
N136   N     0.63371   0.77251   0.91175   0.00000  Uiso   1.00
N137   N     0.33077   0.68452   0.40780   0.00000  Uiso   1.00
N138   N     0.40033   0.92084   0.00923   0.00000  Uiso   1.00
C139   C     0.85581   0.64518   0.43109   0.00000  Uiso   1.00
C140   C     0.99584   0.67605   0.47558   0.00000  Uiso   1.00
C141   C     0.10200   0.62650   0.53378   0.00000  Uiso   1.00
C142   C     0.22206   0.66663   0.56732   0.00000  Uiso   1.00
C143   C     0.43749   0.70137   0.64000   0.00000  Uiso   1.00
C144   C     0.80375   0.65179   0.33886   0.00000  Uiso   1.00
C145   C     0.74837   0.58185   0.28211   0.00000  Uiso   1.00
C146   C     0.70672   0.60157   0.20056   0.00000  Uiso   1.00
C147   C     0.62382   0.59867   0.06098   0.00000  Uiso   1.00
C148   C     0.78460   0.71692   0.44872   0.00000  Uiso   1.00
C149   C     0.71309   0.70175   0.48432   0.00000  Uiso   1.00
C150   C     0.65529   0.77630   0.49525   0.00000  Uiso   1.00
C151   C     0.54266   0.87453   0.52624   0.00000  Uiso   1.00
C152   C     0.88027   0.80456   0.38716   0.00000  Uiso   1.00
C153   C     0.00912   0.76262   0.45172   0.00000  Uiso   1.00
C154   C     0.12906   0.80284   0.48518   0.00000  Uiso   1.00
C155   C     0.23538   0.75336   0.54343   0.00000  Uiso   1.00
C156   C     0.81703   0.73836   0.31500   0.00000  Uiso   1.00
C157   C     0.77544   0.75819   0.23352   0.00000  Uiso   1.00
C158   C     0.72002   0.68830   0.17666   0.00000  Uiso   1.00
C159   C     0.79788   0.80349   0.42486   0.00000  Uiso   1.00
C160   C     0.74017   0.87808   0.43573   0.00000  Uiso   1.00
C161   C     0.66860   0.86303   0.47135   0.00000  Uiso   1.00
H162   H     0.84546   0.57779   0.44966   0.00000  Uiso   1.00
H163   H     0.09168   0.55951   0.55222   0.00000  Uiso   1.00
H164   H     0.73810   0.51487   0.30059   0.00000  Uiso   1.00
H165   H     0.70284   0.63475   0.50278   0.00000  Uiso   1.00
H166   H     0.37052   0.57741   0.65539   0.00000  Uiso   1.00
H167   H     0.62493   0.48330   0.12481   0.00000  Uiso   1.00
H168   H     0.55057   0.73608   0.55115   0.00000  Uiso   1.00
H169   H     0.89061   0.87196   0.36859   0.00000  Uiso   1.00
H170   H     0.13931   0.86983   0.46671   0.00000  Uiso   1.00
H171   H     0.78573   0.82519   0.21508   0.00000  Uiso   1.00
H172   H     0.75046   0.94506   0.41726   0.00000  Uiso   1.00
H173   H     0.40918   0.82927   0.58598   0.00000  Uiso   1.00
H174   H     0.66358   0.73516   0.05540   0.00000  Uiso   1.00
H175   H     0.58923   0.98794   0.48175   0.00000  Uiso   1.00
O176   O     0.55264   0.69662   0.68667   0.00000  Uiso   1.00
O177   O     0.57444   0.57315   0.99057   0.00000  Uiso   1.00
O178   O     0.47688   0.90479   0.54993   0.00000  Uiso   1.00
N179   N     0.34548   0.63698   0.62560   0.00000  Uiso   1.00
N180   N     0.64842   0.54899   0.12954   0.00000  Uiso   1.00
N181   N     0.57887   0.78532   0.52812   0.00000  Uiso   1.00
N182   N     0.36629   0.77251   0.58825   0.00000  Uiso   1.00
N183   N     0.66923   0.68452   0.09220   0.00000  Uiso   1.00
N184   N     0.59967   0.92084   0.49077   0.00000  Uiso   1.00
