data_job_05505
_audit_creation_date              2018-12-19
_audit_creation_method            'Materials Studio'
_symmetry_space_group_name_H-M    'P1'
_symmetry_Int_Tables_number       1
_symmetry_cell_setting            triclinic
loop_
_symmetry_equiv_pos_as_xyz
  x,y,z
_cell_length_a                    16.6892
_cell_length_b                    23.0639
_cell_length_c                    7.7983
_cell_angle_alpha                 90.0000
_cell_angle_beta                  90.0000
_cell_angle_gamma                 90.0000
loop_
_atom_site_label
_atom_site_type_symbol
_atom_site_fract_x
_atom_site_fract_y
_atom_site_fract_z
_atom_site_U_iso_or_equiv
_atom_site_adp_type
_atom_site_occupancy
C1     C     0.93659   0.75731   0.66084   0.00000  Uiso   1.00
C2     C     0.92781   0.81340   0.55901   0.00000  Uiso   1.00
C3     C     0.88439   0.86177   0.60964   0.00000  Uiso   1.00
C4     C     0.88374   0.90876   0.49835   0.00000  Uiso   1.00
C5     C     0.86380   0.99605   0.36397   0.00000  Uiso   1.00
C6     C     0.90769   0.70892   0.54282   0.00000  Uiso   1.00
C7     C     0.84736   0.66944   0.57985   0.00000  Uiso   1.00
C8     C     0.82979   0.62847   0.45494   0.00000  Uiso   1.00
C9     C     0.77864   0.55353   0.29547   0.00000  Uiso   1.00
C10    C     0.02640   0.74784   0.68355   0.00000  Uiso   1.00
C11    C     0.06587   0.74109   0.83891   0.00000  Uiso   1.00
C12    C     0.14823   0.73288   0.83248   0.00000  Uiso   1.00
C13    C     0.28139   0.71838   0.89152   0.00000  Uiso   1.00
C14    C     0.01267   0.75473   0.37318   0.00000  Uiso   1.00
C15    C     0.96913   0.81199   0.40277   0.00000  Uiso   1.00
C16    C     0.96856   0.85892   0.29138   0.00000  Uiso   1.00
C17    C     0.92514   0.90736   0.34183   0.00000  Uiso   1.00
C18    C     0.94901   0.70751   0.38658   0.00000  Uiso   1.00
C19    C     0.93153   0.66659   0.26159   0.00000  Uiso   1.00
C20    C     0.87118   0.62707   0.29842   0.00000  Uiso   1.00
C21    C     0.06772   0.74644   0.52731   0.00000  Uiso   1.00
C22    C     0.15004   0.73824   0.52064   0.00000  Uiso   1.00
C23    C     0.18963   0.73147   0.67596   0.00000  Uiso   1.00
H24    H     0.90442   0.75840   0.78248   0.00000  Uiso   1.00
H25    H     0.85242   0.86284   0.73056   0.00000  Uiso   1.00
H26    H     0.81540   0.67053   0.70078   0.00000  Uiso   1.00
H27    H     0.03387   0.74217   0.95979   0.00000  Uiso   1.00
H28    H     0.81296   0.97800   0.60406   0.00000  Uiso   1.00
H29    H     0.73492   0.57251   0.54130   0.00000  Uiso   1.00
H30    H     0.19562   0.72357   0.08748   0.00000  Uiso   1.00
H31    H     0.04484   0.75364   0.25153   0.00000  Uiso   1.00
H32    H     0.00054   0.85782   0.17047   0.00000  Uiso   1.00
H33    H     0.96352   0.66552   0.14070   0.00000  Uiso   1.00
H34    H     0.18199   0.73716   0.39971   0.00000  Uiso   1.00
H35    H     0.93317   0.97393   0.14947   0.00000  Uiso   1.00
H36    H     0.85514   0.56844   0.08672   0.00000  Uiso   1.00
H37    H     0.31584   0.71950   0.63289   0.00000  Uiso   1.00
O38    O     0.84137   0.04458   0.33299   0.00000  Uiso   1.00
O39    O     0.73900   0.51258   0.25068   0.00000  Uiso   1.00
O40    O     0.34342   0.71078   0.96725   0.00000  Uiso   1.00
N41    N     0.84734   0.96275   0.50821   0.00000  Uiso   1.00
N42    N     0.77438   0.58364   0.44952   0.00000  Uiso   1.00
N43    N     0.20509   0.72486   0.96016   0.00000  Uiso   1.00
N44    N     0.91203   0.96056   0.26360   0.00000  Uiso   1.00
N45    N     0.83907   0.58145   0.20491   0.00000  Uiso   1.00
N46    N     0.26978   0.72267   0.71555   0.00000  Uiso   1.00
C47    C     0.06341   0.24269   0.66084   0.00000  Uiso   1.00
C48    C     0.07219   0.18660   0.55901   0.00000  Uiso   1.00
C49    C     0.11561   0.13823   0.60964   0.00000  Uiso   1.00
C50    C     0.11626   0.09124   0.49835   0.00000  Uiso   1.00
C51    C     0.13620   0.00395   0.36397   0.00000  Uiso   1.00
C52    C     0.09231   0.29108   0.54282   0.00000  Uiso   1.00
C53    C     0.15264   0.33056   0.57985   0.00000  Uiso   1.00
C54    C     0.17021   0.37153   0.45494   0.00000  Uiso   1.00
C55    C     0.22136   0.44647   0.29547   0.00000  Uiso   1.00
C56    C     0.97360   0.25216   0.68355   0.00000  Uiso   1.00
C57    C     0.93413   0.25891   0.83891   0.00000  Uiso   1.00
C58    C     0.85177   0.26712   0.83248   0.00000  Uiso   1.00
C59    C     0.71861   0.28162   0.89152   0.00000  Uiso   1.00
C60    C     0.98733   0.24527   0.37318   0.00000  Uiso   1.00
C61    C     0.03087   0.18801   0.40277   0.00000  Uiso   1.00
C62    C     0.03144   0.14108   0.29138   0.00000  Uiso   1.00
C63    C     0.07486   0.09264   0.34183   0.00000  Uiso   1.00
C64    C     0.05099   0.29249   0.38658   0.00000  Uiso   1.00
C65    C     0.06847   0.33341   0.26159   0.00000  Uiso   1.00
C66    C     0.12882   0.37293   0.29842   0.00000  Uiso   1.00
C67    C     0.93228   0.25356   0.52731   0.00000  Uiso   1.00
C68    C     0.84996   0.26176   0.52064   0.00000  Uiso   1.00
C69    C     0.81037   0.26853   0.67596   0.00000  Uiso   1.00
H70    H     0.09558   0.24160   0.78248   0.00000  Uiso   1.00
H71    H     0.14758   0.13716   0.73056   0.00000  Uiso   1.00
H72    H     0.18460   0.32947   0.70078   0.00000  Uiso   1.00
H73    H     0.96613   0.25783   0.95979   0.00000  Uiso   1.00
H74    H     0.18704   0.02200   0.60406   0.00000  Uiso   1.00
H75    H     0.26508   0.42749   0.54130   0.00000  Uiso   1.00
H76    H     0.80438   0.27643   0.08748   0.00000  Uiso   1.00
H77    H     0.95516   0.24636   0.25153   0.00000  Uiso   1.00
H78    H     0.99946   0.14218   0.17047   0.00000  Uiso   1.00
H79    H     0.03648   0.33448   0.14070   0.00000  Uiso   1.00
H80    H     0.81801   0.26284   0.39971   0.00000  Uiso   1.00
H81    H     0.06683   0.02607   0.14947   0.00000  Uiso   1.00
H82    H     0.14486   0.43156   0.08672   0.00000  Uiso   1.00
H83    H     0.68416   0.28050   0.63289   0.00000  Uiso   1.00
O84    O     0.15863   0.95542   0.33299   0.00000  Uiso   1.00
O85    O     0.26100   0.48742   0.25068   0.00000  Uiso   1.00
O86    O     0.65658   0.28922   0.96725   0.00000  Uiso   1.00
N87    N     0.15266   0.03725   0.50821   0.00000  Uiso   1.00
N88    N     0.22562   0.41636   0.44952   0.00000  Uiso   1.00
N89    N     0.79491   0.27514   0.96016   0.00000  Uiso   1.00
N90    N     0.08797   0.03944   0.26360   0.00000  Uiso   1.00
N91    N     0.16093   0.41855   0.20491   0.00000  Uiso   1.00
N92    N     0.73022   0.27733   0.71555   0.00000  Uiso   1.00
C93    C     0.56341   0.25731   0.33916   0.00000  Uiso   1.00
C94    C     0.57219   0.31340   0.44099   0.00000  Uiso   1.00
C95    C     0.61561   0.36177   0.39036   0.00000  Uiso   1.00
C96    C     0.61626   0.40876   0.50165   0.00000  Uiso   1.00
C97    C     0.63620   0.49605   0.63603   0.00000  Uiso   1.00
C98    C     0.59231   0.20892   0.45718   0.00000  Uiso   1.00
C99    C     0.65264   0.16944   0.42015   0.00000  Uiso   1.00
C100   C     0.67021   0.12847   0.54506   0.00000  Uiso   1.00
C101   C     0.72136   0.05353   0.70453   0.00000  Uiso   1.00
C102   C     0.47360   0.24784   0.31645   0.00000  Uiso   1.00
C103   C     0.43413   0.24109   0.16109   0.00000  Uiso   1.00
C104   C     0.35177   0.23288   0.16752   0.00000  Uiso   1.00
C105   C     0.21861   0.21838   0.10848   0.00000  Uiso   1.00
C106   C     0.48733   0.25473   0.62682   0.00000  Uiso   1.00
C107   C     0.53087   0.31199   0.59723   0.00000  Uiso   1.00
C108   C     0.53144   0.35892   0.70862   0.00000  Uiso   1.00
C109   C     0.57486   0.40736   0.65817   0.00000  Uiso   1.00
C110   C     0.55099   0.20751   0.61342   0.00000  Uiso   1.00
C111   C     0.56847   0.16659   0.73841   0.00000  Uiso   1.00
C112   C     0.62882   0.12707   0.70158   0.00000  Uiso   1.00
C113   C     0.43228   0.24644   0.47269   0.00000  Uiso   1.00
C114   C     0.34996   0.23824   0.47936   0.00000  Uiso   1.00
C115   C     0.31037   0.23147   0.32404   0.00000  Uiso   1.00
H116   H     0.59558   0.25840   0.21752   0.00000  Uiso   1.00
H117   H     0.64758   0.36284   0.26944   0.00000  Uiso   1.00
H118   H     0.68460   0.17053   0.29922   0.00000  Uiso   1.00
H119   H     0.46613   0.24217   0.04021   0.00000  Uiso   1.00
H120   H     0.68704   0.47800   0.39594   0.00000  Uiso   1.00
H121   H     0.76508   0.07251   0.45870   0.00000  Uiso   1.00
H122   H     0.30438   0.22357   0.91252   0.00000  Uiso   1.00
H123   H     0.45516   0.25364   0.74847   0.00000  Uiso   1.00
H124   H     0.49946   0.35782   0.82953   0.00000  Uiso   1.00
H125   H     0.53648   0.16552   0.85930   0.00000  Uiso   1.00
H126   H     0.31801   0.23716   0.60029   0.00000  Uiso   1.00
H127   H     0.56683   0.47393   0.85053   0.00000  Uiso   1.00
H128   H     0.64486   0.06844   0.91328   0.00000  Uiso   1.00
H129   H     0.18416   0.21950   0.36711   0.00000  Uiso   1.00
O130   O     0.65863   0.54458   0.66701   0.00000  Uiso   1.00
O131   O     0.76100   0.01258   0.74932   0.00000  Uiso   1.00
O132   O     0.15658   0.21078   0.03275   0.00000  Uiso   1.00
N133   N     0.65266   0.46275   0.49179   0.00000  Uiso   1.00
N134   N     0.72562   0.08364   0.55048   0.00000  Uiso   1.00
N135   N     0.29491   0.22486   0.03984   0.00000  Uiso   1.00
N136   N     0.58797   0.46056   0.73640   0.00000  Uiso   1.00
N137   N     0.66093   0.08145   0.79509   0.00000  Uiso   1.00
N138   N     0.23022   0.22267   0.28445   0.00000  Uiso   1.00
C139   C     0.43659   0.74269   0.33916   0.00000  Uiso   1.00
C140   C     0.42781   0.68660   0.44099   0.00000  Uiso   1.00
C141   C     0.38439   0.63823   0.39036   0.00000  Uiso   1.00
C142   C     0.38374   0.59124   0.50165   0.00000  Uiso   1.00
C143   C     0.36380   0.50395   0.63603   0.00000  Uiso   1.00
C144   C     0.40769   0.79108   0.45718   0.00000  Uiso   1.00
C145   C     0.34736   0.83056   0.42015   0.00000  Uiso   1.00
C146   C     0.32979   0.87153   0.54506   0.00000  Uiso   1.00
C147   C     0.27864   0.94647   0.70453   0.00000  Uiso   1.00
C148   C     0.52640   0.75216   0.31645   0.00000  Uiso   1.00
C149   C     0.56587   0.75891   0.16109   0.00000  Uiso   1.00
C150   C     0.64823   0.76712   0.16752   0.00000  Uiso   1.00
C151   C     0.78139   0.78162   0.10848   0.00000  Uiso   1.00
C152   C     0.51267   0.74527   0.62682   0.00000  Uiso   1.00
C153   C     0.46913   0.68801   0.59723   0.00000  Uiso   1.00
C154   C     0.46856   0.64108   0.70862   0.00000  Uiso   1.00
C155   C     0.42514   0.59264   0.65817   0.00000  Uiso   1.00
C156   C     0.44901   0.79249   0.61342   0.00000  Uiso   1.00
C157   C     0.43153   0.83341   0.73841   0.00000  Uiso   1.00
C158   C     0.37118   0.87293   0.70158   0.00000  Uiso   1.00
C159   C     0.56772   0.75356   0.47269   0.00000  Uiso   1.00
C160   C     0.65004   0.76176   0.47936   0.00000  Uiso   1.00
C161   C     0.68963   0.76853   0.32404   0.00000  Uiso   1.00
H162   H     0.40442   0.74160   0.21752   0.00000  Uiso   1.00
H163   H     0.35242   0.63716   0.26944   0.00000  Uiso   1.00
H164   H     0.31540   0.82947   0.29922   0.00000  Uiso   1.00
H165   H     0.53387   0.75783   0.04021   0.00000  Uiso   1.00
H166   H     0.31296   0.52200   0.39594   0.00000  Uiso   1.00
H167   H     0.23492   0.92749   0.45870   0.00000  Uiso   1.00
H168   H     0.69562   0.77643   0.91252   0.00000  Uiso   1.00
H169   H     0.54484   0.74636   0.74847   0.00000  Uiso   1.00
H170   H     0.50054   0.64218   0.82953   0.00000  Uiso   1.00
H171   H     0.46352   0.83448   0.85930   0.00000  Uiso   1.00
H172   H     0.68199   0.76284   0.60029   0.00000  Uiso   1.00
H173   H     0.43317   0.52607   0.85053   0.00000  Uiso   1.00
H174   H     0.35514   0.93156   0.91328   0.00000  Uiso   1.00
H175   H     0.81584   0.78050   0.36711   0.00000  Uiso   1.00
O176   O     0.34137   0.45542   0.66701   0.00000  Uiso   1.00
O177   O     0.23900   0.98742   0.74932   0.00000  Uiso   1.00
O178   O     0.84342   0.78922   0.03275   0.00000  Uiso   1.00
N179   N     0.34734   0.53725   0.49179   0.00000  Uiso   1.00
N180   N     0.27438   0.91636   0.55048   0.00000  Uiso   1.00
N181   N     0.70509   0.77514   0.03984   0.00000  Uiso   1.00
N182   N     0.41203   0.53944   0.73640   0.00000  Uiso   1.00
N183   N     0.33907   0.91855   0.79509   0.00000  Uiso   1.00
N184   N     0.76978   0.77733   0.28445   0.00000  Uiso   1.00
