data_job_01599
_audit_creation_date              2018-12-19
_audit_creation_method            'Materials Studio'
_symmetry_space_group_name_H-M    'P1'
_symmetry_Int_Tables_number       1
_symmetry_cell_setting            triclinic
loop_
_symmetry_equiv_pos_as_xyz
  x,y,z
_cell_length_a                    29.5021
_cell_length_b                    11.7537
_cell_length_c                    24.2778
_cell_angle_alpha                 90.0000
_cell_angle_beta                  24.0244
_cell_angle_gamma                 90.0000
loop_
_atom_site_label
_atom_site_type_symbol
_atom_site_fract_x
_atom_site_fract_y
_atom_site_fract_z
_atom_site_U_iso_or_equiv
_atom_site_adp_type
_atom_site_occupancy
C1     C     0.61305   0.28837   0.97106   0.00000  Uiso   1.00
C2     C     0.69033   0.23423   0.92766   0.00000  Uiso   1.00
C3     C     0.65789   0.18768   0.01369   0.00000  Uiso   1.00
C4     C     0.74122   0.14231   0.95419   0.00000  Uiso   1.00
C5     C     0.84424   0.05812   0.90819   0.00000  Uiso   1.00
C6     C     0.65727   0.40839   0.91246   0.00000  Uiso   1.00
C7     C     0.59702   0.50827   0.98572   0.00000  Uiso   1.00
C8     C     0.65251   0.60951   0.91342   0.00000  Uiso   1.00
C9     C     0.70417   0.79570   0.84381   0.00000  Uiso   1.00
C10    C     0.63250   0.22400   0.89579   0.00000  Uiso   1.00
C11    C     0.55142   0.16888   0.95502   0.00000  Uiso   1.00
C12    C     0.58606   0.11489   0.86867   0.00000  Uiso   1.00
C13    C     0.59926   0.01479   0.77317   0.00000  Uiso   1.00
C14    C     0.81874   0.29055   0.71240   0.00000  Uiso   1.00
C15    C     0.80206   0.23542   0.78716   0.00000  Uiso   1.00
C16    C     0.88546   0.19010   0.72751   0.00000  Uiso   1.00
C17    C     0.85314   0.14350   0.81345   0.00000  Uiso   1.00
C18    C     0.76899   0.40958   0.77197   0.00000  Uiso   1.00
C19    C     0.82459   0.51069   0.69955   0.00000  Uiso   1.00
C20    C     0.76444   0.61070   0.77267   0.00000  Uiso   1.00
C21    C     0.74423   0.22518   0.75529   0.00000  Uiso   1.00
C22    C     0.77900   0.17129   0.66884   0.00000  Uiso   1.00
C23    C     0.69799   0.11608   0.72793   0.00000  Uiso   1.00
H24    H     0.52607   0.28745   0.08044   0.00000  Uiso   1.00
H25    H     0.57142   0.18679   0.12242   0.00000  Uiso   1.00
H26    H     0.51056   0.50733   0.09444   0.00000  Uiso   1.00
H27    H     0.46498   0.16798   0.06374   0.00000  Uiso   1.00
H28    H     0.67098   0.07575   0.10700   0.00000  Uiso   1.00
H29    H     0.54263   0.75162   0.04802   0.00000  Uiso   1.00
H30    H     0.44650   0.03603   0.98328   0.00000  Uiso   1.00
H31    H     0.90572   0.29148   0.60301   0.00000  Uiso   1.00
H32    H     0.97191   0.19103   0.61879   0.00000  Uiso   1.00
H33    H     0.91104   0.51157   0.59082   0.00000  Uiso   1.00
H34    H     0.86546   0.17222   0.56012   0.00000  Uiso   1.00
H35    H     0.99603   0.07920   0.69824   0.00000  Uiso   1.00
H36    H     0.86768   0.75507   0.63926   0.00000  Uiso   1.00
H37    H     0.77155   0.03948   0.57452   0.00000  Uiso   1.00
O38    O     0.87019   0.01136   0.92162   0.00000  Uiso   1.00
O39    O     0.70180   0.89807   0.84424   0.00000  Uiso   1.00
O40    O     0.57569   0.95923   0.75931   0.00000  Uiso   1.00
N41    N     0.73839   0.09033   0.00863   0.00000  Uiso   1.00
N42    N     0.61840   0.72222   0.95349   0.00000  Uiso   1.00
N43    N     0.52852   0.05324   0.89297   0.00000  Uiso   1.00
N44    N     0.91330   0.09218   0.78868   0.00000  Uiso   1.00
N45    N     0.79331   0.72408   0.73354   0.00000  Uiso   1.00
N46    N     0.70343   0.05509   0.67302   0.00000  Uiso   1.00
C47    C     0.38695   0.28837   0.52894   0.00000  Uiso   1.00
C48    C     0.30967   0.23423   0.57234   0.00000  Uiso   1.00
C49    C     0.34211   0.18768   0.48631   0.00000  Uiso   1.00
C50    C     0.25878   0.14231   0.54581   0.00000  Uiso   1.00
C51    C     0.15576   0.05812   0.59181   0.00000  Uiso   1.00
C52    C     0.34273   0.40839   0.58754   0.00000  Uiso   1.00
C53    C     0.40298   0.50827   0.51428   0.00000  Uiso   1.00
C54    C     0.34749   0.60951   0.58658   0.00000  Uiso   1.00
C55    C     0.29583   0.79570   0.65619   0.00000  Uiso   1.00
C56    C     0.36750   0.22400   0.60421   0.00000  Uiso   1.00
C57    C     0.44858   0.16888   0.54498   0.00000  Uiso   1.00
C58    C     0.41394   0.11489   0.63133   0.00000  Uiso   1.00
C59    C     0.40074   0.01479   0.72683   0.00000  Uiso   1.00
C60    C     0.18126   0.29055   0.78760   0.00000  Uiso   1.00
C61    C     0.19794   0.23542   0.71284   0.00000  Uiso   1.00
C62    C     0.11454   0.19010   0.77249   0.00000  Uiso   1.00
C63    C     0.14686   0.14350   0.68655   0.00000  Uiso   1.00
C64    C     0.23101   0.40958   0.72803   0.00000  Uiso   1.00
C65    C     0.17541   0.51069   0.80045   0.00000  Uiso   1.00
C66    C     0.23556   0.61070   0.72733   0.00000  Uiso   1.00
C67    C     0.25577   0.22518   0.74471   0.00000  Uiso   1.00
C68    C     0.22100   0.17129   0.83116   0.00000  Uiso   1.00
C69    C     0.30201   0.11608   0.77207   0.00000  Uiso   1.00
H70    H     0.47393   0.28745   0.41956   0.00000  Uiso   1.00
H71    H     0.42858   0.18679   0.37758   0.00000  Uiso   1.00
H72    H     0.48944   0.50733   0.40556   0.00000  Uiso   1.00
H73    H     0.53502   0.16798   0.43626   0.00000  Uiso   1.00
H74    H     0.32902   0.07575   0.39300   0.00000  Uiso   1.00
H75    H     0.45737   0.75162   0.45198   0.00000  Uiso   1.00
H76    H     0.55350   0.03603   0.51672   0.00000  Uiso   1.00
H77    H     0.09428   0.29148   0.89699   0.00000  Uiso   1.00
H78    H     0.02809   0.19103   0.88121   0.00000  Uiso   1.00
H79    H     0.08896   0.51157   0.90918   0.00000  Uiso   1.00
H80    H     0.13454   0.17222   0.93988   0.00000  Uiso   1.00
H81    H     0.00397   0.07920   0.80176   0.00000  Uiso   1.00
H82    H     0.13232   0.75507   0.86074   0.00000  Uiso   1.00
H83    H     0.22845   0.03948   0.92548   0.00000  Uiso   1.00
O84    O     0.12981   0.01136   0.57838   0.00000  Uiso   1.00
O85    O     0.29820   0.89807   0.65576   0.00000  Uiso   1.00
O86    O     0.42431   0.95923   0.74069   0.00000  Uiso   1.00
N87    N     0.26161   0.09033   0.49137   0.00000  Uiso   1.00
N88    N     0.38160   0.72222   0.54651   0.00000  Uiso   1.00
N89    N     0.47148   0.05324   0.60703   0.00000  Uiso   1.00
N90    N     0.08670   0.09218   0.71132   0.00000  Uiso   1.00
N91    N     0.20669   0.72408   0.76646   0.00000  Uiso   1.00
N92    N     0.29657   0.05509   0.82698   0.00000  Uiso   1.00
C93    C     0.38695   0.71163   0.02894   0.00000  Uiso   1.00
C94    C     0.30967   0.76577   0.07234   0.00000  Uiso   1.00
C95    C     0.34211   0.81232   0.98631   0.00000  Uiso   1.00
C96    C     0.25878   0.85769   0.04581   0.00000  Uiso   1.00
C97    C     0.15576   0.94188   0.09181   0.00000  Uiso   1.00
C98    C     0.34273   0.59161   0.08754   0.00000  Uiso   1.00
C99    C     0.40298   0.49173   0.01428   0.00000  Uiso   1.00
C100   C     0.34749   0.39049   0.08658   0.00000  Uiso   1.00
C101   C     0.29583   0.20430   0.15619   0.00000  Uiso   1.00
C102   C     0.36750   0.77600   0.10421   0.00000  Uiso   1.00
C103   C     0.44858   0.83112   0.04498   0.00000  Uiso   1.00
C104   C     0.41394   0.88511   0.13133   0.00000  Uiso   1.00
C105   C     0.40074   0.98521   0.22683   0.00000  Uiso   1.00
C106   C     0.18126   0.70945   0.28760   0.00000  Uiso   1.00
C107   C     0.19794   0.76458   0.21284   0.00000  Uiso   1.00
C108   C     0.11454   0.80990   0.27249   0.00000  Uiso   1.00
C109   C     0.14686   0.85650   0.18655   0.00000  Uiso   1.00
C110   C     0.23101   0.59042   0.22803   0.00000  Uiso   1.00
C111   C     0.17541   0.48931   0.30045   0.00000  Uiso   1.00
C112   C     0.23556   0.38930   0.22733   0.00000  Uiso   1.00
C113   C     0.25577   0.77482   0.24471   0.00000  Uiso   1.00
C114   C     0.22100   0.82871   0.33116   0.00000  Uiso   1.00
C115   C     0.30201   0.88392   0.27207   0.00000  Uiso   1.00
H116   H     0.47393   0.71255   0.91956   0.00000  Uiso   1.00
H117   H     0.42858   0.81321   0.87758   0.00000  Uiso   1.00
H118   H     0.48944   0.49267   0.90556   0.00000  Uiso   1.00
H119   H     0.53502   0.83202   0.93626   0.00000  Uiso   1.00
H120   H     0.32902   0.92425   0.89300   0.00000  Uiso   1.00
H121   H     0.45737   0.24838   0.95198   0.00000  Uiso   1.00
H122   H     0.55350   0.96397   0.01672   0.00000  Uiso   1.00
H123   H     0.09428   0.70852   0.39699   0.00000  Uiso   1.00
H124   H     0.02809   0.80897   0.38121   0.00000  Uiso   1.00
H125   H     0.08896   0.48843   0.40918   0.00000  Uiso   1.00
H126   H     0.13454   0.82778   0.43988   0.00000  Uiso   1.00
H127   H     0.00397   0.92080   0.30176   0.00000  Uiso   1.00
H128   H     0.13232   0.24493   0.36074   0.00000  Uiso   1.00
H129   H     0.22845   0.96052   0.42548   0.00000  Uiso   1.00
O130   O     0.12981   0.98864   0.07838   0.00000  Uiso   1.00
O131   O     0.29820   0.10193   0.15576   0.00000  Uiso   1.00
O132   O     0.42431   0.04077   0.24069   0.00000  Uiso   1.00
N133   N     0.26161   0.90967   0.99137   0.00000  Uiso   1.00
N134   N     0.38160   0.27778   0.04651   0.00000  Uiso   1.00
N135   N     0.47148   0.94676   0.10703   0.00000  Uiso   1.00
N136   N     0.08670   0.90782   0.21132   0.00000  Uiso   1.00
N137   N     0.20669   0.27592   0.26646   0.00000  Uiso   1.00
N138   N     0.29657   0.94491   0.32698   0.00000  Uiso   1.00
C139   C     0.61305   0.71163   0.47106   0.00000  Uiso   1.00
C140   C     0.69033   0.76577   0.42766   0.00000  Uiso   1.00
C141   C     0.65789   0.81232   0.51369   0.00000  Uiso   1.00
C142   C     0.74122   0.85769   0.45419   0.00000  Uiso   1.00
C143   C     0.84424   0.94188   0.40819   0.00000  Uiso   1.00
C144   C     0.65727   0.59161   0.41246   0.00000  Uiso   1.00
C145   C     0.59702   0.49173   0.48572   0.00000  Uiso   1.00
C146   C     0.65251   0.39049   0.41342   0.00000  Uiso   1.00
C147   C     0.70417   0.20430   0.34381   0.00000  Uiso   1.00
C148   C     0.63250   0.77600   0.39579   0.00000  Uiso   1.00
C149   C     0.55142   0.83112   0.45502   0.00000  Uiso   1.00
C150   C     0.58606   0.88511   0.36867   0.00000  Uiso   1.00
C151   C     0.59926   0.98521   0.27317   0.00000  Uiso   1.00
C152   C     0.81874   0.70945   0.21240   0.00000  Uiso   1.00
C153   C     0.80206   0.76458   0.28716   0.00000  Uiso   1.00
C154   C     0.88546   0.80990   0.22751   0.00000  Uiso   1.00
C155   C     0.85314   0.85650   0.31345   0.00000  Uiso   1.00
C156   C     0.76899   0.59042   0.27197   0.00000  Uiso   1.00
C157   C     0.82459   0.48931   0.19955   0.00000  Uiso   1.00
C158   C     0.76444   0.38930   0.27267   0.00000  Uiso   1.00
C159   C     0.74423   0.77482   0.25529   0.00000  Uiso   1.00
C160   C     0.77900   0.82871   0.16884   0.00000  Uiso   1.00
C161   C     0.69799   0.88392   0.22793   0.00000  Uiso   1.00
H162   H     0.52607   0.71255   0.58044   0.00000  Uiso   1.00
H163   H     0.57142   0.81321   0.62242   0.00000  Uiso   1.00
H164   H     0.51056   0.49267   0.59444   0.00000  Uiso   1.00
H165   H     0.46498   0.83202   0.56374   0.00000  Uiso   1.00
H166   H     0.67098   0.92425   0.60700   0.00000  Uiso   1.00
H167   H     0.54263   0.24838   0.54802   0.00000  Uiso   1.00
H168   H     0.44650   0.96397   0.48328   0.00000  Uiso   1.00
H169   H     0.90572   0.70852   0.10301   0.00000  Uiso   1.00
H170   H     0.97191   0.80897   0.11879   0.00000  Uiso   1.00
H171   H     0.91104   0.48843   0.09082   0.00000  Uiso   1.00
H172   H     0.86546   0.82778   0.06012   0.00000  Uiso   1.00
H173   H     0.99603   0.92080   0.19824   0.00000  Uiso   1.00
H174   H     0.86768   0.24493   0.13926   0.00000  Uiso   1.00
H175   H     0.77155   0.96052   0.07452   0.00000  Uiso   1.00
O176   O     0.87019   0.98864   0.42162   0.00000  Uiso   1.00
O177   O     0.70180   0.10193   0.34424   0.00000  Uiso   1.00
O178   O     0.57569   0.04077   0.25931   0.00000  Uiso   1.00
N179   N     0.73839   0.90967   0.50863   0.00000  Uiso   1.00
N180   N     0.61840   0.27778   0.45349   0.00000  Uiso   1.00
N181   N     0.52852   0.94676   0.39297   0.00000  Uiso   1.00
N182   N     0.91330   0.90782   0.28868   0.00000  Uiso   1.00
N183   N     0.79331   0.27592   0.23354   0.00000  Uiso   1.00
N184   N     0.70343   0.94491   0.17302   0.00000  Uiso   1.00
