data_job_02117
_audit_creation_date              2018-12-19
_audit_creation_method            'Materials Studio'
_symmetry_space_group_name_H-M    'P1'
_symmetry_Int_Tables_number       1
_symmetry_cell_setting            triclinic
loop_
_symmetry_equiv_pos_as_xyz
  x,y,z
_cell_length_a                    13.8171
_cell_length_b                    12.1334
_cell_length_c                    14.4398
_cell_angle_alpha                 90.0000
_cell_angle_beta                  90.0000
_cell_angle_gamma                 90.0000
loop_
_atom_site_label
_atom_site_type_symbol
_atom_site_fract_x
_atom_site_fract_y
_atom_site_fract_z
_atom_site_U_iso_or_equiv
_atom_site_adp_type
_atom_site_occupancy
C1     C     0.32247   0.54485   0.26562   0.00000  Uiso   1.00
C2     C     0.23389   0.60281   0.22567   0.00000  Uiso   1.00
C3     C     0.22814   0.65158   0.13892   0.00000  Uiso   1.00
C4     C     0.14068   0.70038   0.11526   0.00000  Uiso   1.00
C5     C     0.01513   0.79042   0.04398   0.00000  Uiso   1.00
C6     C     0.34474   0.60280   0.35688   0.00000  Uiso   1.00
C7     C     0.43220   0.65155   0.38044   0.00000  Uiso   1.00
C8     C     0.43805   0.70033   0.46724   0.00000  Uiso   1.00
C9     C     0.48463   0.79029   0.59969   0.00000  Uiso   1.00
C10    C     0.28936   0.42891   0.29124   0.00000  Uiso   1.00
C11    C     0.33028   0.33146   0.25964   0.00000  Uiso   1.00
C12    C     0.28952   0.23383   0.29120   0.00000  Uiso   1.00
C13    C     0.25011   0.05380   0.32173   0.00000  Uiso   1.00
C14    C     0.17736   0.54477   0.37788   0.00000  Uiso   1.00
C15    C     0.15507   0.60276   0.28665   0.00000  Uiso   1.00
C16    C     0.06759   0.65150   0.26312   0.00000  Uiso   1.00
C17    C     0.06172   0.70034   0.17634   0.00000  Uiso   1.00
C18    C     0.26592   0.60276   0.41785   0.00000  Uiso   1.00
C19    C     0.27165   0.65146   0.50464   0.00000  Uiso   1.00
C20    C     0.35910   0.70029   0.52833   0.00000  Uiso   1.00
C21    C     0.21054   0.42886   0.35222   0.00000  Uiso   1.00
C22    C     0.16972   0.33137   0.38384   0.00000  Uiso   1.00
C23    C     0.21056   0.23379   0.35229   0.00000  Uiso   1.00
H24    H     0.38384   0.54489   0.21816   0.00000  Uiso   1.00
H25    H     0.28916   0.65161   0.09176   0.00000  Uiso   1.00
H26    H     0.49318   0.65156   0.33325   0.00000  Uiso   1.00
H27    H     0.39127   0.33152   0.21246   0.00000  Uiso   1.00
H28    H     0.14943   0.76994   0.97852   0.00000  Uiso   1.00
H29    H     0.57965   0.76982   0.48773   0.00000  Uiso   1.00
H30    H     0.36474   0.09494   0.23303   0.00000  Uiso   1.00
H31    H     0.11600   0.54474   0.42536   0.00000  Uiso   1.00
H32    H     0.00661   0.65145   0.31032   0.00000  Uiso   1.00
H33    H     0.21064   0.65141   0.55181   0.00000  Uiso   1.00
H34    H     0.10873   0.33137   0.43102   0.00000  Uiso   1.00
H35    H     0.92011   0.76982   0.15592   0.00000  Uiso   1.00
H36    H     0.35033   0.76969   0.66513   0.00000  Uiso   1.00
H37    H     0.13542   0.09482   0.41042   0.00000  Uiso   1.00
O38    O     0.96766   0.84012   0.98782   0.00000  Uiso   1.00
O39    O     0.53209   0.83993   0.65589   0.00000  Uiso   1.00
O40    O     0.25014   0.95451   0.32172   0.00000  Uiso   1.00
N41    N     0.11047   0.75525   0.03605   0.00000  Uiso   1.00
N42    N     0.51269   0.75515   0.51213   0.00000  Uiso   1.00
N43    N     0.31179   0.12420   0.27402   0.00000  Uiso   1.00
N44    N     0.98707   0.75518   0.13150   0.00000  Uiso   1.00
N45    N     0.38929   0.75508   0.60758   0.00000  Uiso   1.00
N46    N     0.18839   0.12413   0.36947   0.00000  Uiso   1.00
C47    C     0.67753   0.45515   0.76562   0.00000  Uiso   1.00
C48    C     0.76611   0.39719   0.72567   0.00000  Uiso   1.00
C49    C     0.77186   0.34842   0.63892   0.00000  Uiso   1.00
C50    C     0.85932   0.29962   0.61526   0.00000  Uiso   1.00
C51    C     0.98487   0.20958   0.54398   0.00000  Uiso   1.00
C52    C     0.65526   0.39720   0.85688   0.00000  Uiso   1.00
C53    C     0.56780   0.34845   0.88044   0.00000  Uiso   1.00
C54    C     0.56195   0.29967   0.96724   0.00000  Uiso   1.00
C55    C     0.51537   0.20971   0.09969   0.00000  Uiso   1.00
C56    C     0.71064   0.57109   0.79124   0.00000  Uiso   1.00
C57    C     0.66972   0.66854   0.75964   0.00000  Uiso   1.00
C58    C     0.71048   0.76617   0.79120   0.00000  Uiso   1.00
C59    C     0.74989   0.94620   0.82173   0.00000  Uiso   1.00
C60    C     0.82264   0.45523   0.87788   0.00000  Uiso   1.00
C61    C     0.84493   0.39724   0.78665   0.00000  Uiso   1.00
C62    C     0.93241   0.34850   0.76312   0.00000  Uiso   1.00
C63    C     0.93828   0.29966   0.67634   0.00000  Uiso   1.00
C64    C     0.73408   0.39724   0.91785   0.00000  Uiso   1.00
C65    C     0.72835   0.34854   0.00464   0.00000  Uiso   1.00
C66    C     0.64090   0.29971   0.02833   0.00000  Uiso   1.00
C67    C     0.78946   0.57114   0.85222   0.00000  Uiso   1.00
C68    C     0.83028   0.66863   0.88384   0.00000  Uiso   1.00
C69    C     0.78944   0.76621   0.85229   0.00000  Uiso   1.00
H70    H     0.61616   0.45511   0.71816   0.00000  Uiso   1.00
H71    H     0.71084   0.34839   0.59176   0.00000  Uiso   1.00
H72    H     0.50682   0.34844   0.83325   0.00000  Uiso   1.00
H73    H     0.60873   0.66848   0.71246   0.00000  Uiso   1.00
H74    H     0.85057   0.23006   0.47852   0.00000  Uiso   1.00
H75    H     0.42035   0.23018   0.98773   0.00000  Uiso   1.00
H76    H     0.63526   0.90506   0.73303   0.00000  Uiso   1.00
H77    H     0.88400   0.45526   0.92536   0.00000  Uiso   1.00
H78    H     0.99339   0.34855   0.81032   0.00000  Uiso   1.00
H79    H     0.78936   0.34859   0.05181   0.00000  Uiso   1.00
H80    H     0.89127   0.66863   0.93102   0.00000  Uiso   1.00
H81    H     0.07989   0.23018   0.65592   0.00000  Uiso   1.00
H82    H     0.64967   0.23031   0.16513   0.00000  Uiso   1.00
H83    H     0.86458   0.90518   0.91042   0.00000  Uiso   1.00
O84    O     0.03234   0.15988   0.48782   0.00000  Uiso   1.00
O85    O     0.46791   0.16007   0.15589   0.00000  Uiso   1.00
O86    O     0.74986   0.04549   0.82172   0.00000  Uiso   1.00
N87    N     0.88953   0.24475   0.53605   0.00000  Uiso   1.00
N88    N     0.48731   0.24485   0.01213   0.00000  Uiso   1.00
N89    N     0.68821   0.87580   0.77402   0.00000  Uiso   1.00
N90    N     0.01293   0.24482   0.63150   0.00000  Uiso   1.00
N91    N     0.61071   0.24492   0.10758   0.00000  Uiso   1.00
N92    N     0.81161   0.87587   0.86947   0.00000  Uiso   1.00
C93    C     0.82247   0.95515   0.26562   0.00000  Uiso   1.00
C94    C     0.73389   0.89719   0.22567   0.00000  Uiso   1.00
C95    C     0.72814   0.84842   0.13892   0.00000  Uiso   1.00
C96    C     0.64068   0.79962   0.11526   0.00000  Uiso   1.00
C97    C     0.51513   0.70958   0.04398   0.00000  Uiso   1.00
C98    C     0.84474   0.89720   0.35688   0.00000  Uiso   1.00
C99    C     0.93220   0.84845   0.38044   0.00000  Uiso   1.00
C100   C     0.93805   0.79967   0.46724   0.00000  Uiso   1.00
C101   C     0.98463   0.70971   0.59969   0.00000  Uiso   1.00
C102   C     0.78936   0.07109   0.29124   0.00000  Uiso   1.00
C103   C     0.83028   0.16854   0.25964   0.00000  Uiso   1.00
C104   C     0.78952   0.26617   0.29120   0.00000  Uiso   1.00
C105   C     0.75011   0.44620   0.32173   0.00000  Uiso   1.00
C106   C     0.67736   0.95523   0.37788   0.00000  Uiso   1.00
C107   C     0.65507   0.89724   0.28665   0.00000  Uiso   1.00
C108   C     0.56759   0.84850   0.26312   0.00000  Uiso   1.00
C109   C     0.56172   0.79966   0.17634   0.00000  Uiso   1.00
C110   C     0.76592   0.89724   0.41785   0.00000  Uiso   1.00
C111   C     0.77165   0.84854   0.50464   0.00000  Uiso   1.00
C112   C     0.85910   0.79971   0.52833   0.00000  Uiso   1.00
C113   C     0.71054   0.07114   0.35222   0.00000  Uiso   1.00
C114   C     0.66972   0.16863   0.38384   0.00000  Uiso   1.00
C115   C     0.71056   0.26621   0.35229   0.00000  Uiso   1.00
H116   H     0.88384   0.95511   0.21816   0.00000  Uiso   1.00
H117   H     0.78916   0.84839   0.09176   0.00000  Uiso   1.00
H118   H     0.99318   0.84844   0.33325   0.00000  Uiso   1.00
H119   H     0.89127   0.16848   0.21246   0.00000  Uiso   1.00
H120   H     0.64943   0.73006   0.97852   0.00000  Uiso   1.00
H121   H     0.07965   0.73018   0.48773   0.00000  Uiso   1.00
H122   H     0.86474   0.40506   0.23303   0.00000  Uiso   1.00
H123   H     0.61600   0.95526   0.42536   0.00000  Uiso   1.00
H124   H     0.50661   0.84855   0.31032   0.00000  Uiso   1.00
H125   H     0.71064   0.84859   0.55181   0.00000  Uiso   1.00
H126   H     0.60873   0.16863   0.43102   0.00000  Uiso   1.00
H127   H     0.42011   0.73018   0.15592   0.00000  Uiso   1.00
H128   H     0.85033   0.73031   0.66513   0.00000  Uiso   1.00
H129   H     0.63542   0.40518   0.41042   0.00000  Uiso   1.00
O130   O     0.46766   0.65988   0.98782   0.00000  Uiso   1.00
O131   O     0.03209   0.66007   0.65589   0.00000  Uiso   1.00
O132   O     0.75014   0.54549   0.32172   0.00000  Uiso   1.00
N133   N     0.61047   0.74475   0.03605   0.00000  Uiso   1.00
N134   N     0.01269   0.74485   0.51213   0.00000  Uiso   1.00
N135   N     0.81179   0.37580   0.27402   0.00000  Uiso   1.00
N136   N     0.48707   0.74482   0.13150   0.00000  Uiso   1.00
N137   N     0.88929   0.74492   0.60758   0.00000  Uiso   1.00
N138   N     0.68839   0.37587   0.36947   0.00000  Uiso   1.00
C139   C     0.17753   0.04485   0.76562   0.00000  Uiso   1.00
C140   C     0.26611   0.10281   0.72567   0.00000  Uiso   1.00
C141   C     0.27186   0.15158   0.63892   0.00000  Uiso   1.00
C142   C     0.35932   0.20038   0.61526   0.00000  Uiso   1.00
C143   C     0.48487   0.29042   0.54398   0.00000  Uiso   1.00
C144   C     0.15526   0.10280   0.85688   0.00000  Uiso   1.00
C145   C     0.06780   0.15155   0.88044   0.00000  Uiso   1.00
C146   C     0.06195   0.20033   0.96724   0.00000  Uiso   1.00
C147   C     0.01537   0.29029   0.09969   0.00000  Uiso   1.00
C148   C     0.21064   0.92891   0.79124   0.00000  Uiso   1.00
C149   C     0.16972   0.83146   0.75964   0.00000  Uiso   1.00
C150   C     0.21048   0.73383   0.79120   0.00000  Uiso   1.00
C151   C     0.24989   0.55380   0.82173   0.00000  Uiso   1.00
C152   C     0.32264   0.04477   0.87788   0.00000  Uiso   1.00
C153   C     0.34493   0.10276   0.78665   0.00000  Uiso   1.00
C154   C     0.43241   0.15150   0.76312   0.00000  Uiso   1.00
C155   C     0.43828   0.20034   0.67634   0.00000  Uiso   1.00
C156   C     0.23408   0.10276   0.91785   0.00000  Uiso   1.00
C157   C     0.22835   0.15146   0.00464   0.00000  Uiso   1.00
C158   C     0.14090   0.20029   0.02833   0.00000  Uiso   1.00
C159   C     0.28946   0.92886   0.85222   0.00000  Uiso   1.00
C160   C     0.33028   0.83137   0.88384   0.00000  Uiso   1.00
C161   C     0.28944   0.73379   0.85229   0.00000  Uiso   1.00
H162   H     0.11616   0.04489   0.71816   0.00000  Uiso   1.00
H163   H     0.21084   0.15161   0.59176   0.00000  Uiso   1.00
H164   H     0.00682   0.15156   0.83325   0.00000  Uiso   1.00
H165   H     0.10873   0.83152   0.71246   0.00000  Uiso   1.00
H166   H     0.35057   0.26994   0.47852   0.00000  Uiso   1.00
H167   H     0.92035   0.26982   0.98773   0.00000  Uiso   1.00
H168   H     0.13526   0.59494   0.73303   0.00000  Uiso   1.00
H169   H     0.38400   0.04474   0.92536   0.00000  Uiso   1.00
H170   H     0.49339   0.15145   0.81032   0.00000  Uiso   1.00
H171   H     0.28936   0.15141   0.05181   0.00000  Uiso   1.00
H172   H     0.39127   0.83137   0.93102   0.00000  Uiso   1.00
H173   H     0.57989   0.26982   0.65592   0.00000  Uiso   1.00
H174   H     0.14967   0.26969   0.16513   0.00000  Uiso   1.00
H175   H     0.36458   0.59482   0.91042   0.00000  Uiso   1.00
O176   O     0.53234   0.34012   0.48782   0.00000  Uiso   1.00
O177   O     0.96791   0.33993   0.15589   0.00000  Uiso   1.00
O178   O     0.24986   0.45451   0.82172   0.00000  Uiso   1.00
N179   N     0.38953   0.25525   0.53605   0.00000  Uiso   1.00
N180   N     0.98731   0.25515   0.01213   0.00000  Uiso   1.00
N181   N     0.18821   0.62420   0.77402   0.00000  Uiso   1.00
N182   N     0.51293   0.25518   0.63150   0.00000  Uiso   1.00
N183   N     0.11071   0.25508   0.10758   0.00000  Uiso   1.00
N184   N     0.31161   0.62413   0.86947   0.00000  Uiso   1.00
