data_job_00380
_audit_creation_date              2018-12-19
_audit_creation_method            'Materials Studio'
_symmetry_space_group_name_H-M    'P1'
_symmetry_Int_Tables_number       1
_symmetry_cell_setting            triclinic
loop_
_symmetry_equiv_pos_as_xyz
  x,y,z
_cell_length_a                    21.9832
_cell_length_b                    11.0549
_cell_length_c                    25.5405
_cell_angle_alpha                 90.0000
_cell_angle_beta                  90.0000
_cell_angle_gamma                 90.0000
loop_
_atom_site_label
_atom_site_type_symbol
_atom_site_fract_x
_atom_site_fract_y
_atom_site_fract_z
_atom_site_U_iso_or_equiv
_atom_site_adp_type
_atom_site_occupancy
C1     C     0.92071   0.84309   0.88599   0.00000  Uiso   1.00
C2     C     0.94500   0.79300   0.93754   0.00000  Uiso   1.00
C3     C     0.92777   0.83079   0.98719   0.00000  Uiso   1.00
C4     C     0.95529   0.77366   0.02941   0.00000  Uiso   1.00
C5     C     0.98645   0.70987   0.11056   0.00000  Uiso   1.00
C6     C     0.97620   0.88579   0.85529   0.00000  Uiso   1.00
C7     C     0.98519   0.00158   0.83578   0.00000  Uiso   1.00
C8     C     0.03897   0.02255   0.80876   0.00000  Uiso   1.00
C9     C     0.11855   0.10279   0.76218   0.00000  Uiso   1.00
C10    C     0.89543   0.73490   0.85602   0.00000  Uiso   1.00
C11    C     0.83652   0.72384   0.83710   0.00000  Uiso   1.00
C12    C     0.82230   0.61779   0.81067   0.00000  Uiso   1.00
C13    C     0.77648   0.46375   0.76521   0.00000  Uiso   1.00
C14    C     0.00023   0.67443   0.87269   0.00000  Uiso   1.00
C15    C     0.98820   0.70140   0.93032   0.00000  Uiso   1.00
C16    C     0.01575   0.64419   0.97247   0.00000  Uiso   1.00
C17    C     0.99855   0.68189   0.02217   0.00000  Uiso   1.00
C18    C     0.01939   0.79418   0.84807   0.00000  Uiso   1.00
C19    C     0.07317   0.81498   0.82106   0.00000  Uiso   1.00
C20    C     0.08224   0.93078   0.80152   0.00000  Uiso   1.00
C21    C     0.93863   0.64329   0.84879   0.00000  Uiso   1.00
C22    C     0.92450   0.53724   0.82238   0.00000  Uiso   1.00
C23    C     0.86557   0.52602   0.80343   0.00000  Uiso   1.00
H24    H     0.88709   0.91441   0.89161   0.00000  Uiso   1.00
H25    H     0.89434   0.90170   0.99277   0.00000  Uiso   1.00
H26    H     0.95175   0.07245   0.84137   0.00000  Uiso   1.00
H27    H     0.80310   0.79475   0.84269   0.00000  Uiso   1.00
H28    H     0.92145   0.84723   0.10173   0.00000  Uiso   1.00
H29    H     0.04249   0.20727   0.78249   0.00000  Uiso   1.00
H30    H     0.72904   0.62169   0.78527   0.00000  Uiso   1.00
H31    H     0.03386   0.60311   0.86706   0.00000  Uiso   1.00
H32    H     0.04917   0.57330   0.96687   0.00000  Uiso   1.00
H33    H     0.10658   0.74407   0.81548   0.00000  Uiso   1.00
H34    H     0.95793   0.46637   0.81680   0.00000  Uiso   1.00
H35    H     0.04712   0.58070   0.08071   0.00000  Uiso   1.00
H36    H     0.16816   0.94074   0.76147   0.00000  Uiso   1.00
H37    H     0.85470   0.35516   0.76426   0.00000  Uiso   1.00
O38    O     0.99172   0.70000   0.15732   0.00000  Uiso   1.00
O39    O     0.15052   0.17236   0.73849   0.00000  Uiso   1.00
O40    O     0.73927   0.40409   0.74214   0.00000  Uiso   1.00
N41    N     0.94892   0.78857   0.08308   0.00000  Uiso   1.00
N42    N     0.06209   0.12520   0.78463   0.00000  Uiso   1.00
N43    N     0.76904   0.57774   0.78721   0.00000  Uiso   1.00
N44    N     0.01654   0.64516   0.07177   0.00000  Uiso   1.00
N45    N     0.12971   0.98178   0.77332   0.00000  Uiso   1.00
N46    N     0.83666   0.43432   0.77590   0.00000  Uiso   1.00
C47    C     0.57929   0.65691   0.38599   0.00000  Uiso   1.00
C48    C     0.55500   0.70700   0.43754   0.00000  Uiso   1.00
C49    C     0.57223   0.66921   0.48719   0.00000  Uiso   1.00
C50    C     0.54471   0.72634   0.52941   0.00000  Uiso   1.00
C51    C     0.51355   0.79013   0.61056   0.00000  Uiso   1.00
C52    C     0.52380   0.61421   0.35529   0.00000  Uiso   1.00
C53    C     0.51481   0.49842   0.33578   0.00000  Uiso   1.00
C54    C     0.46103   0.47745   0.30876   0.00000  Uiso   1.00
C55    C     0.38145   0.39721   0.26218   0.00000  Uiso   1.00
C56    C     0.60457   0.76510   0.35602   0.00000  Uiso   1.00
C57    C     0.66348   0.77616   0.33710   0.00000  Uiso   1.00
C58    C     0.67770   0.88221   0.31067   0.00000  Uiso   1.00
C59    C     0.72352   0.03625   0.26521   0.00000  Uiso   1.00
C60    C     0.49977   0.82557   0.37269   0.00000  Uiso   1.00
C61    C     0.51180   0.79860   0.43032   0.00000  Uiso   1.00
C62    C     0.48425   0.85581   0.47247   0.00000  Uiso   1.00
C63    C     0.50145   0.81811   0.52217   0.00000  Uiso   1.00
C64    C     0.48061   0.70582   0.34807   0.00000  Uiso   1.00
C65    C     0.42683   0.68502   0.32106   0.00000  Uiso   1.00
C66    C     0.41776   0.56922   0.30152   0.00000  Uiso   1.00
C67    C     0.56137   0.85671   0.34879   0.00000  Uiso   1.00
C68    C     0.57550   0.96276   0.32238   0.00000  Uiso   1.00
C69    C     0.63443   0.97398   0.30343   0.00000  Uiso   1.00
H70    H     0.61291   0.58559   0.39161   0.00000  Uiso   1.00
H71    H     0.60566   0.59830   0.49277   0.00000  Uiso   1.00
H72    H     0.54825   0.42755   0.34137   0.00000  Uiso   1.00
H73    H     0.69690   0.70525   0.34269   0.00000  Uiso   1.00
H74    H     0.57855   0.65277   0.60173   0.00000  Uiso   1.00
H75    H     0.45751   0.29273   0.28249   0.00000  Uiso   1.00
H76    H     0.77096   0.87831   0.28527   0.00000  Uiso   1.00
H77    H     0.46614   0.89689   0.36706   0.00000  Uiso   1.00
H78    H     0.45083   0.92670   0.46687   0.00000  Uiso   1.00
H79    H     0.39342   0.75593   0.31548   0.00000  Uiso   1.00
H80    H     0.54207   0.03363   0.31680   0.00000  Uiso   1.00
H81    H     0.45288   0.91930   0.58071   0.00000  Uiso   1.00
H82    H     0.33184   0.55926   0.26147   0.00000  Uiso   1.00
H83    H     0.64530   0.14484   0.26426   0.00000  Uiso   1.00
O84    O     0.50828   0.80000   0.65732   0.00000  Uiso   1.00
O85    O     0.34948   0.32764   0.23849   0.00000  Uiso   1.00
O86    O     0.76073   0.09591   0.24214   0.00000  Uiso   1.00
N87    N     0.55108   0.71143   0.58308   0.00000  Uiso   1.00
N88    N     0.43791   0.37480   0.28463   0.00000  Uiso   1.00
N89    N     0.73096   0.92226   0.28721   0.00000  Uiso   1.00
N90    N     0.48346   0.85484   0.57177   0.00000  Uiso   1.00
N91    N     0.37029   0.51822   0.27332   0.00000  Uiso   1.00
N92    N     0.66334   0.06568   0.27590   0.00000  Uiso   1.00
C93    C     0.07929   0.84309   0.61401   0.00000  Uiso   1.00
C94    C     0.05500   0.79300   0.56246   0.00000  Uiso   1.00
C95    C     0.07223   0.83079   0.51281   0.00000  Uiso   1.00
C96    C     0.04471   0.77366   0.47059   0.00000  Uiso   1.00
C97    C     0.01355   0.70987   0.38944   0.00000  Uiso   1.00
C98    C     0.02380   0.88579   0.64471   0.00000  Uiso   1.00
C99    C     0.01481   0.00158   0.66422   0.00000  Uiso   1.00
C100   C     0.96103   0.02255   0.69124   0.00000  Uiso   1.00
C101   C     0.88145   0.10279   0.73782   0.00000  Uiso   1.00
C102   C     0.10457   0.73490   0.64398   0.00000  Uiso   1.00
C103   C     0.16348   0.72384   0.66290   0.00000  Uiso   1.00
C104   C     0.17770   0.61779   0.68933   0.00000  Uiso   1.00
C105   C     0.22352   0.46375   0.73479   0.00000  Uiso   1.00
C106   C     0.99977   0.67443   0.62731   0.00000  Uiso   1.00
C107   C     0.01180   0.70140   0.56968   0.00000  Uiso   1.00
C108   C     0.98425   0.64419   0.52753   0.00000  Uiso   1.00
C109   C     0.00145   0.68189   0.47783   0.00000  Uiso   1.00
C110   C     0.98061   0.79418   0.65193   0.00000  Uiso   1.00
C111   C     0.92683   0.81498   0.67894   0.00000  Uiso   1.00
C112   C     0.91776   0.93078   0.69848   0.00000  Uiso   1.00
C113   C     0.06137   0.64329   0.65121   0.00000  Uiso   1.00
C114   C     0.07550   0.53724   0.67762   0.00000  Uiso   1.00
C115   C     0.13443   0.52602   0.69657   0.00000  Uiso   1.00
H116   H     0.11291   0.91441   0.60839   0.00000  Uiso   1.00
H117   H     0.10566   0.90170   0.50723   0.00000  Uiso   1.00
H118   H     0.04825   0.07245   0.65863   0.00000  Uiso   1.00
H119   H     0.19690   0.79475   0.65731   0.00000  Uiso   1.00
H120   H     0.07855   0.84723   0.39827   0.00000  Uiso   1.00
H121   H     0.95751   0.20727   0.71751   0.00000  Uiso   1.00
H122   H     0.27096   0.62169   0.71473   0.00000  Uiso   1.00
H123   H     0.96614   0.60311   0.63294   0.00000  Uiso   1.00
H124   H     0.95083   0.57330   0.53313   0.00000  Uiso   1.00
H125   H     0.89342   0.74407   0.68452   0.00000  Uiso   1.00
H126   H     0.04207   0.46637   0.68320   0.00000  Uiso   1.00
H127   H     0.95288   0.58070   0.41929   0.00000  Uiso   1.00
H128   H     0.83184   0.94074   0.73853   0.00000  Uiso   1.00
H129   H     0.14530   0.35516   0.73574   0.00000  Uiso   1.00
O130   O     0.00828   0.70000   0.34268   0.00000  Uiso   1.00
O131   O     0.84948   0.17236   0.76151   0.00000  Uiso   1.00
O132   O     0.26073   0.40409   0.75786   0.00000  Uiso   1.00
N133   N     0.05108   0.78857   0.41692   0.00000  Uiso   1.00
N134   N     0.93791   0.12520   0.71537   0.00000  Uiso   1.00
N135   N     0.23096   0.57774   0.71279   0.00000  Uiso   1.00
N136   N     0.98346   0.64516   0.42823   0.00000  Uiso   1.00
N137   N     0.87029   0.98178   0.72668   0.00000  Uiso   1.00
N138   N     0.16334   0.43432   0.72410   0.00000  Uiso   1.00
C139   C     0.42071   0.65691   0.11401   0.00000  Uiso   1.00
C140   C     0.44500   0.70700   0.06246   0.00000  Uiso   1.00
C141   C     0.42777   0.66921   0.01281   0.00000  Uiso   1.00
C142   C     0.45529   0.72634   0.97059   0.00000  Uiso   1.00
C143   C     0.48645   0.79013   0.88944   0.00000  Uiso   1.00
C144   C     0.47620   0.61421   0.14471   0.00000  Uiso   1.00
C145   C     0.48519   0.49842   0.16422   0.00000  Uiso   1.00
C146   C     0.53897   0.47745   0.19124   0.00000  Uiso   1.00
C147   C     0.61855   0.39721   0.23782   0.00000  Uiso   1.00
C148   C     0.39543   0.76510   0.14398   0.00000  Uiso   1.00
C149   C     0.33652   0.77616   0.16290   0.00000  Uiso   1.00
C150   C     0.32230   0.88221   0.18933   0.00000  Uiso   1.00
C151   C     0.27648   0.03625   0.23479   0.00000  Uiso   1.00
C152   C     0.50023   0.82557   0.12731   0.00000  Uiso   1.00
C153   C     0.48820   0.79860   0.06968   0.00000  Uiso   1.00
C154   C     0.51575   0.85581   0.02753   0.00000  Uiso   1.00
C155   C     0.49855   0.81811   0.97783   0.00000  Uiso   1.00
C156   C     0.51939   0.70582   0.15193   0.00000  Uiso   1.00
C157   C     0.57317   0.68502   0.17894   0.00000  Uiso   1.00
C158   C     0.58224   0.56922   0.19848   0.00000  Uiso   1.00
C159   C     0.43863   0.85671   0.15121   0.00000  Uiso   1.00
C160   C     0.42450   0.96276   0.17762   0.00000  Uiso   1.00
C161   C     0.36557   0.97398   0.19657   0.00000  Uiso   1.00
H162   H     0.38709   0.58559   0.10839   0.00000  Uiso   1.00
H163   H     0.39434   0.59830   0.00723   0.00000  Uiso   1.00
H164   H     0.45175   0.42755   0.15863   0.00000  Uiso   1.00
H165   H     0.30310   0.70525   0.15731   0.00000  Uiso   1.00
H166   H     0.42145   0.65277   0.89827   0.00000  Uiso   1.00
H167   H     0.54249   0.29273   0.21751   0.00000  Uiso   1.00
H168   H     0.22904   0.87831   0.21473   0.00000  Uiso   1.00
H169   H     0.53386   0.89689   0.13294   0.00000  Uiso   1.00
H170   H     0.54917   0.92670   0.03313   0.00000  Uiso   1.00
H171   H     0.60658   0.75593   0.18452   0.00000  Uiso   1.00
H172   H     0.45793   0.03363   0.18320   0.00000  Uiso   1.00
H173   H     0.54712   0.91930   0.91929   0.00000  Uiso   1.00
H174   H     0.66816   0.55926   0.23853   0.00000  Uiso   1.00
H175   H     0.35470   0.14484   0.23574   0.00000  Uiso   1.00
O176   O     0.49172   0.80000   0.84268   0.00000  Uiso   1.00
O177   O     0.65052   0.32764   0.26151   0.00000  Uiso   1.00
O178   O     0.23927   0.09591   0.25786   0.00000  Uiso   1.00
N179   N     0.44892   0.71143   0.91692   0.00000  Uiso   1.00
N180   N     0.56209   0.37480   0.21537   0.00000  Uiso   1.00
N181   N     0.26904   0.92226   0.21279   0.00000  Uiso   1.00
N182   N     0.51654   0.85484   0.92823   0.00000  Uiso   1.00
N183   N     0.62971   0.51822   0.22668   0.00000  Uiso   1.00
N184   N     0.33666   0.06568   0.22410   0.00000  Uiso   1.00
C185   C     0.07929   0.15691   0.11401   0.00000  Uiso   1.00
C186   C     0.05500   0.20700   0.06246   0.00000  Uiso   1.00
C187   C     0.07223   0.16921   0.01281   0.00000  Uiso   1.00
C188   C     0.04471   0.22634   0.97059   0.00000  Uiso   1.00
C189   C     0.01355   0.29013   0.88944   0.00000  Uiso   1.00
C190   C     0.02380   0.11421   0.14471   0.00000  Uiso   1.00
C191   C     0.01481   0.99842   0.16422   0.00000  Uiso   1.00
C192   C     0.96103   0.97745   0.19124   0.00000  Uiso   1.00
C193   C     0.88145   0.89721   0.23782   0.00000  Uiso   1.00
C194   C     0.10457   0.26510   0.14398   0.00000  Uiso   1.00
C195   C     0.16348   0.27616   0.16290   0.00000  Uiso   1.00
C196   C     0.17770   0.38221   0.18933   0.00000  Uiso   1.00
C197   C     0.22352   0.53625   0.23479   0.00000  Uiso   1.00
C198   C     0.99977   0.32557   0.12731   0.00000  Uiso   1.00
C199   C     0.01180   0.29860   0.06968   0.00000  Uiso   1.00
C200   C     0.98425   0.35581   0.02753   0.00000  Uiso   1.00
C201   C     0.00145   0.31811   0.97783   0.00000  Uiso   1.00
C202   C     0.98061   0.20582   0.15193   0.00000  Uiso   1.00
C203   C     0.92683   0.18502   0.17894   0.00000  Uiso   1.00
C204   C     0.91776   0.06922   0.19848   0.00000  Uiso   1.00
C205   C     0.06137   0.35671   0.15121   0.00000  Uiso   1.00
C206   C     0.07550   0.46276   0.17762   0.00000  Uiso   1.00
C207   C     0.13443   0.47398   0.19657   0.00000  Uiso   1.00
H208   H     0.11291   0.08559   0.10839   0.00000  Uiso   1.00
H209   H     0.10566   0.09830   0.00723   0.00000  Uiso   1.00
H210   H     0.04825   0.92755   0.15863   0.00000  Uiso   1.00
H211   H     0.19690   0.20525   0.15731   0.00000  Uiso   1.00
H212   H     0.07855   0.15277   0.89827   0.00000  Uiso   1.00
H213   H     0.95751   0.79273   0.21751   0.00000  Uiso   1.00
H214   H     0.27096   0.37831   0.21473   0.00000  Uiso   1.00
H215   H     0.96614   0.39689   0.13294   0.00000  Uiso   1.00
H216   H     0.95083   0.42670   0.03313   0.00000  Uiso   1.00
H217   H     0.89342   0.25593   0.18452   0.00000  Uiso   1.00
H218   H     0.04207   0.53363   0.18320   0.00000  Uiso   1.00
H219   H     0.95288   0.41930   0.91929   0.00000  Uiso   1.00
H220   H     0.83184   0.05926   0.23853   0.00000  Uiso   1.00
H221   H     0.14530   0.64484   0.23574   0.00000  Uiso   1.00
O222   O     0.00828   0.30000   0.84268   0.00000  Uiso   1.00
O223   O     0.84948   0.82764   0.26151   0.00000  Uiso   1.00
O224   O     0.26073   0.59591   0.25786   0.00000  Uiso   1.00
N225   N     0.05108   0.21143   0.91692   0.00000  Uiso   1.00
N226   N     0.93791   0.87480   0.21537   0.00000  Uiso   1.00
N227   N     0.23096   0.42226   0.21279   0.00000  Uiso   1.00
N228   N     0.98346   0.35484   0.92823   0.00000  Uiso   1.00
N229   N     0.87029   0.01822   0.22668   0.00000  Uiso   1.00
N230   N     0.16334   0.56568   0.22410   0.00000  Uiso   1.00
C231   C     0.42071   0.34309   0.61401   0.00000  Uiso   1.00
C232   C     0.44500   0.29300   0.56246   0.00000  Uiso   1.00
C233   C     0.42777   0.33079   0.51281   0.00000  Uiso   1.00
C234   C     0.45529   0.27366   0.47059   0.00000  Uiso   1.00
C235   C     0.48645   0.20987   0.38944   0.00000  Uiso   1.00
C236   C     0.47620   0.38579   0.64471   0.00000  Uiso   1.00
C237   C     0.48519   0.50158   0.66422   0.00000  Uiso   1.00
C238   C     0.53897   0.52255   0.69124   0.00000  Uiso   1.00
C239   C     0.61855   0.60279   0.73782   0.00000  Uiso   1.00
C240   C     0.39543   0.23490   0.64398   0.00000  Uiso   1.00
C241   C     0.33652   0.22384   0.66290   0.00000  Uiso   1.00
C242   C     0.32230   0.11779   0.68933   0.00000  Uiso   1.00
C243   C     0.27648   0.96375   0.73479   0.00000  Uiso   1.00
C244   C     0.50023   0.17443   0.62731   0.00000  Uiso   1.00
C245   C     0.48820   0.20140   0.56968   0.00000  Uiso   1.00
C246   C     0.51575   0.14419   0.52753   0.00000  Uiso   1.00
C247   C     0.49855   0.18189   0.47783   0.00000  Uiso   1.00
C248   C     0.51939   0.29418   0.65193   0.00000  Uiso   1.00
C249   C     0.57317   0.31498   0.67894   0.00000  Uiso   1.00
C250   C     0.58224   0.43078   0.69848   0.00000  Uiso   1.00
C251   C     0.43863   0.14329   0.65121   0.00000  Uiso   1.00
C252   C     0.42450   0.03724   0.67762   0.00000  Uiso   1.00
C253   C     0.36557   0.02602   0.69657   0.00000  Uiso   1.00
H254   H     0.38709   0.41441   0.60839   0.00000  Uiso   1.00
H255   H     0.39434   0.40170   0.50723   0.00000  Uiso   1.00
H256   H     0.45175   0.57245   0.65863   0.00000  Uiso   1.00
H257   H     0.30310   0.29475   0.65731   0.00000  Uiso   1.00
H258   H     0.42145   0.34723   0.39827   0.00000  Uiso   1.00
H259   H     0.54249   0.70727   0.71751   0.00000  Uiso   1.00
H260   H     0.22904   0.12169   0.71473   0.00000  Uiso   1.00
H261   H     0.53386   0.10311   0.63294   0.00000  Uiso   1.00
H262   H     0.54917   0.07330   0.53313   0.00000  Uiso   1.00
H263   H     0.60658   0.24407   0.68452   0.00000  Uiso   1.00
H264   H     0.45793   0.96637   0.68320   0.00000  Uiso   1.00
H265   H     0.54712   0.08070   0.41929   0.00000  Uiso   1.00
H266   H     0.66816   0.44074   0.73853   0.00000  Uiso   1.00
H267   H     0.35470   0.85516   0.73574   0.00000  Uiso   1.00
O268   O     0.49172   0.20000   0.34268   0.00000  Uiso   1.00
O269   O     0.65052   0.67236   0.76151   0.00000  Uiso   1.00
O270   O     0.23927   0.90409   0.75786   0.00000  Uiso   1.00
N271   N     0.44892   0.28857   0.41692   0.00000  Uiso   1.00
N272   N     0.56209   0.62520   0.71537   0.00000  Uiso   1.00
N273   N     0.26904   0.07774   0.71279   0.00000  Uiso   1.00
N274   N     0.51654   0.14516   0.42823   0.00000  Uiso   1.00
N275   N     0.62971   0.48178   0.72668   0.00000  Uiso   1.00
N276   N     0.33666   0.93432   0.72410   0.00000  Uiso   1.00
C277   C     0.92071   0.15691   0.38599   0.00000  Uiso   1.00
C278   C     0.94500   0.20700   0.43754   0.00000  Uiso   1.00
C279   C     0.92777   0.16921   0.48719   0.00000  Uiso   1.00
C280   C     0.95529   0.22634   0.52941   0.00000  Uiso   1.00
C281   C     0.98645   0.29013   0.61056   0.00000  Uiso   1.00
C282   C     0.97620   0.11421   0.35529   0.00000  Uiso   1.00
C283   C     0.98519   0.99842   0.33578   0.00000  Uiso   1.00
C284   C     0.03897   0.97745   0.30876   0.00000  Uiso   1.00
C285   C     0.11855   0.89721   0.26218   0.00000  Uiso   1.00
C286   C     0.89543   0.26510   0.35602   0.00000  Uiso   1.00
C287   C     0.83652   0.27616   0.33710   0.00000  Uiso   1.00
C288   C     0.82230   0.38221   0.31067   0.00000  Uiso   1.00
C289   C     0.77648   0.53625   0.26521   0.00000  Uiso   1.00
C290   C     0.00023   0.32557   0.37269   0.00000  Uiso   1.00
C291   C     0.98820   0.29860   0.43032   0.00000  Uiso   1.00
C292   C     0.01575   0.35581   0.47247   0.00000  Uiso   1.00
C293   C     0.99855   0.31811   0.52217   0.00000  Uiso   1.00
C294   C     0.01939   0.20582   0.34807   0.00000  Uiso   1.00
C295   C     0.07317   0.18502   0.32106   0.00000  Uiso   1.00
C296   C     0.08224   0.06922   0.30152   0.00000  Uiso   1.00
C297   C     0.93863   0.35671   0.34879   0.00000  Uiso   1.00
C298   C     0.92450   0.46276   0.32238   0.00000  Uiso   1.00
C299   C     0.86557   0.47398   0.30343   0.00000  Uiso   1.00
H300   H     0.88709   0.08559   0.39161   0.00000  Uiso   1.00
H301   H     0.89434   0.09830   0.49277   0.00000  Uiso   1.00
H302   H     0.95175   0.92755   0.34137   0.00000  Uiso   1.00
H303   H     0.80310   0.20525   0.34269   0.00000  Uiso   1.00
H304   H     0.92145   0.15277   0.60173   0.00000  Uiso   1.00
H305   H     0.04249   0.79273   0.28249   0.00000  Uiso   1.00
H306   H     0.72904   0.37831   0.28527   0.00000  Uiso   1.00
H307   H     0.03386   0.39689   0.36706   0.00000  Uiso   1.00
H308   H     0.04917   0.42670   0.46687   0.00000  Uiso   1.00
H309   H     0.10658   0.25593   0.31548   0.00000  Uiso   1.00
H310   H     0.95793   0.53363   0.31680   0.00000  Uiso   1.00
H311   H     0.04712   0.41930   0.58071   0.00000  Uiso   1.00
H312   H     0.16816   0.05926   0.26147   0.00000  Uiso   1.00
H313   H     0.85470   0.64484   0.26426   0.00000  Uiso   1.00
O314   O     0.99172   0.30000   0.65732   0.00000  Uiso   1.00
O315   O     0.15052   0.82764   0.23849   0.00000  Uiso   1.00
O316   O     0.73927   0.59591   0.24214   0.00000  Uiso   1.00
N317   N     0.94892   0.21143   0.58308   0.00000  Uiso   1.00
N318   N     0.06209   0.87480   0.28463   0.00000  Uiso   1.00
N319   N     0.76904   0.42226   0.28721   0.00000  Uiso   1.00
N320   N     0.01654   0.35484   0.57177   0.00000  Uiso   1.00
N321   N     0.12971   0.01822   0.27332   0.00000  Uiso   1.00
N322   N     0.83666   0.56568   0.27590   0.00000  Uiso   1.00
C323   C     0.57929   0.34309   0.88599   0.00000  Uiso   1.00
C324   C     0.55500   0.29300   0.93754   0.00000  Uiso   1.00
C325   C     0.57223   0.33079   0.98719   0.00000  Uiso   1.00
C326   C     0.54471   0.27366   0.02941   0.00000  Uiso   1.00
C327   C     0.51355   0.20987   0.11056   0.00000  Uiso   1.00
C328   C     0.52380   0.38579   0.85529   0.00000  Uiso   1.00
C329   C     0.51481   0.50158   0.83578   0.00000  Uiso   1.00
C330   C     0.46103   0.52255   0.80876   0.00000  Uiso   1.00
C331   C     0.38145   0.60279   0.76218   0.00000  Uiso   1.00
C332   C     0.60457   0.23490   0.85602   0.00000  Uiso   1.00
C333   C     0.66348   0.22384   0.83710   0.00000  Uiso   1.00
C334   C     0.67770   0.11779   0.81067   0.00000  Uiso   1.00
C335   C     0.72352   0.96375   0.76521   0.00000  Uiso   1.00
C336   C     0.49977   0.17443   0.87269   0.00000  Uiso   1.00
C337   C     0.51180   0.20140   0.93032   0.00000  Uiso   1.00
C338   C     0.48425   0.14419   0.97247   0.00000  Uiso   1.00
C339   C     0.50145   0.18189   0.02217   0.00000  Uiso   1.00
C340   C     0.48061   0.29418   0.84807   0.00000  Uiso   1.00
C341   C     0.42683   0.31498   0.82106   0.00000  Uiso   1.00
C342   C     0.41776   0.43078   0.80152   0.00000  Uiso   1.00
C343   C     0.56137   0.14329   0.84879   0.00000  Uiso   1.00
C344   C     0.57550   0.03724   0.82238   0.00000  Uiso   1.00
C345   C     0.63443   0.02602   0.80343   0.00000  Uiso   1.00
H346   H     0.61291   0.41441   0.89161   0.00000  Uiso   1.00
H347   H     0.60566   0.40170   0.99277   0.00000  Uiso   1.00
H348   H     0.54825   0.57245   0.84137   0.00000  Uiso   1.00
H349   H     0.69690   0.29475   0.84269   0.00000  Uiso   1.00
H350   H     0.57855   0.34723   0.10173   0.00000  Uiso   1.00
H351   H     0.45751   0.70727   0.78249   0.00000  Uiso   1.00
H352   H     0.77096   0.12169   0.78527   0.00000  Uiso   1.00
H353   H     0.46614   0.10311   0.86706   0.00000  Uiso   1.00
H354   H     0.45083   0.07330   0.96687   0.00000  Uiso   1.00
H355   H     0.39342   0.24407   0.81548   0.00000  Uiso   1.00
H356   H     0.54207   0.96637   0.81680   0.00000  Uiso   1.00
H357   H     0.45288   0.08070   0.08071   0.00000  Uiso   1.00
H358   H     0.33184   0.44074   0.76147   0.00000  Uiso   1.00
H359   H     0.64530   0.85516   0.76426   0.00000  Uiso   1.00
O360   O     0.50828   0.20000   0.15732   0.00000  Uiso   1.00
O361   O     0.34948   0.67236   0.73849   0.00000  Uiso   1.00
O362   O     0.76073   0.90409   0.74214   0.00000  Uiso   1.00
N363   N     0.55108   0.28857   0.08308   0.00000  Uiso   1.00
N364   N     0.43791   0.62520   0.78463   0.00000  Uiso   1.00
N365   N     0.73096   0.07774   0.78721   0.00000  Uiso   1.00
N366   N     0.48346   0.14516   0.07177   0.00000  Uiso   1.00
N367   N     0.37029   0.48178   0.77332   0.00000  Uiso   1.00
N368   N     0.66334   0.93432   0.77590   0.00000  Uiso   1.00
