data_job_01132
_audit_creation_date              2018-12-19
_audit_creation_method            'Materials Studio'
_symmetry_space_group_name_H-M    'P1'
_symmetry_Int_Tables_number       1
_symmetry_cell_setting            triclinic
loop_
_symmetry_equiv_pos_as_xyz
  x,y,z
_cell_length_a                    15.2670
_cell_length_b                    7.2362
_cell_length_c                    20.8155
_cell_angle_alpha                 90.0000
_cell_angle_beta                  101.6370
_cell_angle_gamma                 90.0000
loop_
_atom_site_label
_atom_site_type_symbol
_atom_site_fract_x
_atom_site_fract_y
_atom_site_fract_z
_atom_site_U_iso_or_equiv
_atom_site_adp_type
_atom_site_occupancy
C1     C     0.57253   0.90668   0.32850   0.00000  Uiso   1.00
C2     C     0.55734   0.98817   0.25958   0.00000  Uiso   1.00
C3     C     0.54454   0.88792   0.20160   0.00000  Uiso   1.00
C4     C     0.53177   0.98816   0.14358   0.00000  Uiso   1.00
C5     C     0.50821   0.08526   0.03656   0.00000  Uiso   1.00
C6     C     0.66055   0.98797   0.36541   0.00000  Uiso   1.00
C7     C     0.73453   0.88754   0.39642   0.00000  Uiso   1.00
C8     C     0.80863   0.98762   0.42749   0.00000  Uiso   1.00
C9     C     0.94529   0.08439   0.48482   0.00000  Uiso   1.00
C10    C     0.49978   0.98808   0.36056   0.00000  Uiso   1.00
C11    C     0.43858   0.88775   0.38751   0.00000  Uiso   1.00
C12    C     0.37734   0.98792   0.41452   0.00000  Uiso   1.00
C13    C     0.26437   0.08487   0.46431   0.00000  Uiso   1.00
C14    C     0.57261   0.26299   0.32857   0.00000  Uiso   1.00
C15    C     0.55738   0.18171   0.25962   0.00000  Uiso   1.00
C16    C     0.54462   0.28213   0.20167   0.00000  Uiso   1.00
C17    C     0.53181   0.18204   0.14362   0.00000  Uiso   1.00
C18    C     0.66059   0.18149   0.36545   0.00000  Uiso   1.00
C19    C     0.73461   0.28174   0.39649   0.00000  Uiso   1.00
C20    C     0.80867   0.18150   0.42753   0.00000  Uiso   1.00
C21    C     0.49981   0.18161   0.36060   0.00000  Uiso   1.00
C22    C     0.43866   0.28196   0.38758   0.00000  Uiso   1.00
C23    C     0.37738   0.18180   0.41456   0.00000  Uiso   1.00
H24    H     0.57251   0.75602   0.32847   0.00000  Uiso   1.00
H25    H     0.54452   0.73815   0.20159   0.00000  Uiso   1.00
H26    H     0.73447   0.73778   0.39638   0.00000  Uiso   1.00
H27    H     0.43857   0.73799   0.38747   0.00000  Uiso   1.00
H28    H     0.51354   0.80369   0.06093   0.00000  Uiso   1.00
H29    H     0.91405   0.80290   0.47168   0.00000  Uiso   1.00
H30    H     0.29009   0.80334   0.45289   0.00000  Uiso   1.00
H31    H     0.57264   0.41366   0.32860   0.00000  Uiso   1.00
H32    H     0.54466   0.43189   0.20172   0.00000  Uiso   1.00
H33    H     0.73461   0.43151   0.39651   0.00000  Uiso   1.00
H34    H     0.43871   0.43172   0.38760   0.00000  Uiso   1.00
H35    H     0.51366   0.36676   0.06104   0.00000  Uiso   1.00
H36    H     0.91417   0.36596   0.47179   0.00000  Uiso   1.00
H37    H     0.29020   0.36640   0.45299   0.00000  Uiso   1.00
O38    O     0.49522   0.08535   0.97752   0.00000  Uiso   1.00
O39    O     0.02066   0.08430   0.51642   0.00000  Uiso   1.00
O40    O     0.20203   0.08488   0.49176   0.00000  Uiso   1.00
N41    N     0.51739   0.93371   0.07837   0.00000  Uiso   1.00
N42    N     0.89185   0.93296   0.46239   0.00000  Uiso   1.00
N43    N     0.30851   0.93338   0.44483   0.00000  Uiso   1.00
N44    N     0.51745   0.23669   0.07843   0.00000  Uiso   1.00
N45    N     0.89191   0.23594   0.46245   0.00000  Uiso   1.00
N46    N     0.30857   0.23636   0.44489   0.00000  Uiso   1.00
C47    C     0.42747   0.40668   0.67150   0.00000  Uiso   1.00
C48    C     0.44266   0.48817   0.74042   0.00000  Uiso   1.00
C49    C     0.45546   0.38792   0.79840   0.00000  Uiso   1.00
C50    C     0.46823   0.48816   0.85642   0.00000  Uiso   1.00
C51    C     0.49179   0.58526   0.96344   0.00000  Uiso   1.00
C52    C     0.33945   0.48797   0.63459   0.00000  Uiso   1.00
C53    C     0.26547   0.38754   0.60358   0.00000  Uiso   1.00
C54    C     0.19137   0.48762   0.57251   0.00000  Uiso   1.00
C55    C     0.05471   0.58439   0.51518   0.00000  Uiso   1.00
C56    C     0.50022   0.48808   0.63944   0.00000  Uiso   1.00
C57    C     0.56142   0.38775   0.61249   0.00000  Uiso   1.00
C58    C     0.62266   0.48792   0.58548   0.00000  Uiso   1.00
C59    C     0.73563   0.58487   0.53569   0.00000  Uiso   1.00
C60    C     0.42739   0.76299   0.67143   0.00000  Uiso   1.00
C61    C     0.44262   0.68171   0.74038   0.00000  Uiso   1.00
C62    C     0.45538   0.78213   0.79833   0.00000  Uiso   1.00
C63    C     0.46819   0.68204   0.85638   0.00000  Uiso   1.00
C64    C     0.33941   0.68149   0.63455   0.00000  Uiso   1.00
C65    C     0.26539   0.78174   0.60351   0.00000  Uiso   1.00
C66    C     0.19133   0.68150   0.57247   0.00000  Uiso   1.00
C67    C     0.50019   0.68161   0.63940   0.00000  Uiso   1.00
C68    C     0.56134   0.78196   0.61242   0.00000  Uiso   1.00
C69    C     0.62262   0.68180   0.58544   0.00000  Uiso   1.00
H70    H     0.42749   0.25602   0.67153   0.00000  Uiso   1.00
H71    H     0.45548   0.23815   0.79841   0.00000  Uiso   1.00
H72    H     0.26553   0.23778   0.60362   0.00000  Uiso   1.00
H73    H     0.56143   0.23799   0.61253   0.00000  Uiso   1.00
H74    H     0.48646   0.30369   0.93907   0.00000  Uiso   1.00
H75    H     0.08595   0.30290   0.52832   0.00000  Uiso   1.00
H76    H     0.70991   0.30334   0.54711   0.00000  Uiso   1.00
H77    H     0.42736   0.91366   0.67140   0.00000  Uiso   1.00
H78    H     0.45534   0.93189   0.79828   0.00000  Uiso   1.00
H79    H     0.26539   0.93151   0.60349   0.00000  Uiso   1.00
H80    H     0.56129   0.93172   0.61240   0.00000  Uiso   1.00
H81    H     0.48634   0.86676   0.93896   0.00000  Uiso   1.00
H82    H     0.08583   0.86596   0.52821   0.00000  Uiso   1.00
H83    H     0.70980   0.86640   0.54701   0.00000  Uiso   1.00
O84    O     0.50478   0.58535   0.02248   0.00000  Uiso   1.00
O85    O     0.97934   0.58430   0.48358   0.00000  Uiso   1.00
O86    O     0.79797   0.58488   0.50824   0.00000  Uiso   1.00
N87    N     0.48261   0.43371   0.92163   0.00000  Uiso   1.00
N88    N     0.10815   0.43296   0.53761   0.00000  Uiso   1.00
N89    N     0.69149   0.43338   0.55517   0.00000  Uiso   1.00
N90    N     0.48255   0.73669   0.92157   0.00000  Uiso   1.00
N91    N     0.10809   0.73594   0.53755   0.00000  Uiso   1.00
N92    N     0.69143   0.73636   0.55511   0.00000  Uiso   1.00
