data_job_01715
_audit_creation_date              2018-12-19
_audit_creation_method            'Materials Studio'
_symmetry_space_group_name_H-M    'P1'
_symmetry_Int_Tables_number       1
_symmetry_cell_setting            triclinic
loop_
_symmetry_equiv_pos_as_xyz
  x,y,z
_cell_length_a                    9.6649
_cell_length_b                    10.2444
_cell_length_c                    14.1008
_cell_angle_alpha                 77.2316
_cell_angle_beta                  90.8938
_cell_angle_gamma                 73.6960
loop_
_atom_site_label
_atom_site_type_symbol
_atom_site_fract_x
_atom_site_fract_y
_atom_site_fract_z
_atom_site_U_iso_or_equiv
_atom_site_adp_type
_atom_site_occupancy
C1     C     0.30337   0.49900   0.16132   0.00000  Uiso   1.00
C2     C     0.17223   0.62302   0.11765   0.00000  Uiso   1.00
C3     C     0.13019   0.67706   0.01890   0.00000  Uiso   1.00
C4     C     0.00701   0.79090   0.99377   0.00000  Uiso   1.00
C5     C     0.81532   0.97475   0.91515   0.00000  Uiso   1.00
C6     C     0.39372   0.55250   0.22480   0.00000  Uiso   1.00
C7     C     0.53792   0.54723   0.21613   0.00000  Uiso   1.00
C8     C     0.60120   0.60170   0.28121   0.00000  Uiso   1.00
C9     C     0.75341   0.67598   0.36897   0.00000  Uiso   1.00
C10    C     0.24547   0.39419   0.23126   0.00000  Uiso   1.00
C11    C     0.26506   0.25579   0.22805   0.00000  Uiso   1.00
C12    C     0.20355   0.17695   0.29859   0.00000  Uiso   1.00
C13    C     0.12559   0.00541   0.39639   0.00000  Uiso   1.00
C14    C     0.15936   0.60508   0.29230   0.00000  Uiso   1.00
C15    C     0.09401   0.68064   0.18880   0.00000  Uiso   1.00
C16    C     0.97086   0.79442   0.16382   0.00000  Uiso   1.00
C17    C     0.92864   0.84862   0.06504   0.00000  Uiso   1.00
C18    C     0.31551   0.61012   0.29594   0.00000  Uiso   1.00
C19    C     0.37859   0.66460   0.36105   0.00000  Uiso   1.00
C20    C     0.52284   0.65942   0.35248   0.00000  Uiso   1.00
C21    C     0.16725   0.45180   0.30241   0.00000  Uiso   1.00
C22    C     0.10571   0.37316   0.37297   0.00000  Uiso   1.00
C23    C     0.12519   0.23467   0.36986   0.00000  Uiso   1.00
H24    H     0.36427   0.45414   0.10593   0.00000  Uiso   1.00
H25    H     0.19076   0.63244   0.96387   0.00000  Uiso   1.00
H26    H     0.59843   0.50263   0.16108   0.00000  Uiso   1.00
H27    H     0.32559   0.21123   0.17299   0.00000  Uiso   1.00
H28    H     0.96393   0.85557   0.83773   0.00000  Uiso   1.00
H29    H     0.82353   0.58180   0.25358   0.00000  Uiso   1.00
H30    H     0.24821   0.96733   0.27871   0.00000  Uiso   1.00
H31    H     0.09846   0.64994   0.34769   0.00000  Uiso   1.00
H32    H     0.91035   0.83899   0.21889   0.00000  Uiso   1.00
H33    H     0.31802   0.70917   0.41609   0.00000  Uiso   1.00
H34    H     0.04519   0.41778   0.42801   0.00000  Uiso   1.00
H35    H     0.73634   0.02321   0.04472   0.00000  Uiso   1.00
H36    H     0.59594   0.74943   0.46057   0.00000  Uiso   1.00
H37    H     0.02062   0.13498   0.48569   0.00000  Uiso   1.00
O38    O     0.73121   0.06025   0.85213   0.00000  Uiso   1.00
O39    O     0.85898   0.70104   0.39771   0.00000  Uiso   1.00
O40    O     0.10418   0.89489   0.43068   0.00000  Uiso   1.00
N41    N     0.93616   0.86906   0.90412   0.00000  Uiso   1.00
N42    N     0.73983   0.61312   0.29290   0.00000  Uiso   1.00
N43    N     0.20199   0.03864   0.31641   0.00000  Uiso   1.00
N44    N     0.81370   0.95927   0.01550   0.00000  Uiso   1.00
N45    N     0.61737   0.70333   0.40428   0.00000  Uiso   1.00
N46    N     0.07953   0.12884   0.42779   0.00000  Uiso   1.00
C47    C     0.69663   0.50100   0.83868   0.00000  Uiso   1.00
C48    C     0.82777   0.37698   0.88235   0.00000  Uiso   1.00
C49    C     0.86981   0.32294   0.98110   0.00000  Uiso   1.00
C50    C     0.99299   0.20910   0.00623   0.00000  Uiso   1.00
C51    C     0.18468   0.02525   0.08485   0.00000  Uiso   1.00
C52    C     0.60628   0.44750   0.77520   0.00000  Uiso   1.00
C53    C     0.46208   0.45277   0.78387   0.00000  Uiso   1.00
C54    C     0.39880   0.39830   0.71879   0.00000  Uiso   1.00
C55    C     0.24659   0.32402   0.63103   0.00000  Uiso   1.00
C56    C     0.75453   0.60581   0.76874   0.00000  Uiso   1.00
C57    C     0.73494   0.74421   0.77195   0.00000  Uiso   1.00
C58    C     0.79645   0.82305   0.70141   0.00000  Uiso   1.00
C59    C     0.87441   0.99459   0.60361   0.00000  Uiso   1.00
C60    C     0.84064   0.39492   0.70770   0.00000  Uiso   1.00
C61    C     0.90599   0.31936   0.81120   0.00000  Uiso   1.00
C62    C     0.02914   0.20558   0.83618   0.00000  Uiso   1.00
C63    C     0.07136   0.15138   0.93496   0.00000  Uiso   1.00
C64    C     0.68449   0.38988   0.70406   0.00000  Uiso   1.00
C65    C     0.62141   0.33540   0.63895   0.00000  Uiso   1.00
C66    C     0.47716   0.34058   0.64752   0.00000  Uiso   1.00
C67    C     0.83275   0.54820   0.69759   0.00000  Uiso   1.00
C68    C     0.89429   0.62684   0.62703   0.00000  Uiso   1.00
C69    C     0.87481   0.76533   0.63014   0.00000  Uiso   1.00
H70    H     0.63573   0.54586   0.89407   0.00000  Uiso   1.00
H71    H     0.80924   0.36756   0.03613   0.00000  Uiso   1.00
H72    H     0.40157   0.49737   0.83892   0.00000  Uiso   1.00
H73    H     0.67441   0.78876   0.82701   0.00000  Uiso   1.00
H74    H     0.03607   0.14443   0.16227   0.00000  Uiso   1.00
H75    H     0.17647   0.41820   0.74642   0.00000  Uiso   1.00
H76    H     0.75179   0.03267   0.72129   0.00000  Uiso   1.00
H77    H     0.90154   0.35006   0.65231   0.00000  Uiso   1.00
H78    H     0.08965   0.16101   0.78111   0.00000  Uiso   1.00
H79    H     0.68198   0.29083   0.58391   0.00000  Uiso   1.00
H80    H     0.95481   0.58222   0.57199   0.00000  Uiso   1.00
H81    H     0.26366   0.97679   0.95528   0.00000  Uiso   1.00
H82    H     0.40406   0.25057   0.53943   0.00000  Uiso   1.00
H83    H     0.97938   0.86502   0.51431   0.00000  Uiso   1.00
O84    O     0.26879   0.93975   0.14787   0.00000  Uiso   1.00
O85    O     0.14102   0.29896   0.60229   0.00000  Uiso   1.00
O86    O     0.89582   0.10511   0.56932   0.00000  Uiso   1.00
N87    N     0.06384   0.13094   0.09588   0.00000  Uiso   1.00
N88    N     0.26017   0.38688   0.70710   0.00000  Uiso   1.00
N89    N     0.79801   0.96136   0.68359   0.00000  Uiso   1.00
N90    N     0.18630   0.04073   0.98450   0.00000  Uiso   1.00
N91    N     0.38263   0.29667   0.59572   0.00000  Uiso   1.00
N92    N     0.92047   0.87116   0.57221   0.00000  Uiso   1.00
