data_job_00327
_audit_creation_date              2018-12-19
_audit_creation_method            'Materials Studio'
_symmetry_space_group_name_H-M    'P1'
_symmetry_Int_Tables_number       1
_symmetry_cell_setting            triclinic
loop_
_symmetry_equiv_pos_as_xyz
  x,y,z
_cell_length_a                    22.4818
_cell_length_b                    10.9769
_cell_length_c                    12.4695
_cell_angle_alpha                 90.0000
_cell_angle_beta                  70.0688
_cell_angle_gamma                 90.0000
loop_
_atom_site_label
_atom_site_type_symbol
_atom_site_fract_x
_atom_site_fract_y
_atom_site_fract_z
_atom_site_U_iso_or_equiv
_atom_site_adp_type
_atom_site_occupancy
C1     C     0.60125   0.50659   0.58890   0.00000  Uiso   1.00
C2     C     0.58024   0.63927   0.59501   0.00000  Uiso   1.00
C3     C     0.51972   0.68240   0.65272   0.00000  Uiso   1.00
C4     C     0.51006   0.80692   0.64799   0.00000  Uiso   1.00
C5     C     0.46995   0.00099   0.66660   0.00000  Uiso   1.00
C6     C     0.62891   0.47540   0.46234   0.00000  Uiso   1.00
C7     C     0.60930   0.38075   0.40850   0.00000  Uiso   1.00
C8     C     0.64062   0.36732   0.29209   0.00000  Uiso   1.00
C9     C     0.67609   0.30692   0.10474   0.00000  Uiso   1.00
C10    C     0.65661   0.50408   0.63327   0.00000  Uiso   1.00
C11    C     0.66032   0.43352   0.72313   0.00000  Uiso   1.00
C12    C     0.71497   0.44422   0.75061   0.00000  Uiso   1.00
C13    C     0.79346   0.42837   0.82866   0.00000  Uiso   1.00
C14    C     0.69173   0.65103   0.47789   0.00000  Uiso   1.00
C15    C     0.62939   0.71772   0.53471   0.00000  Uiso   1.00
C16    C     0.61982   0.84221   0.52990   0.00000  Uiso   1.00
C17    C     0.55929   0.88552   0.58759   0.00000  Uiso   1.00
C18    C     0.67805   0.55385   0.40204   0.00000  Uiso   1.00
C19    C     0.70941   0.54055   0.28568   0.00000  Uiso   1.00
C20    C     0.68985   0.44591   0.23168   0.00000  Uiso   1.00
C21    C     0.70576   0.58254   0.57297   0.00000  Uiso   1.00
C22    C     0.76042   0.59334   0.60031   0.00000  Uiso   1.00
C23    C     0.76420   0.52281   0.69020   0.00000  Uiso   1.00
H24    H     0.56300   0.44551   0.63583   0.00000  Uiso   1.00
H25    H     0.48170   0.62166   0.69936   0.00000  Uiso   1.00
H26    H     0.57128   0.32004   0.45519   0.00000  Uiso   1.00
H27    H     0.62228   0.37283   0.76977   0.00000  Uiso   1.00
H28    H     0.41323   0.85155   0.74316   0.00000  Uiso   1.00
H29    H     0.60212   0.21555   0.22832   0.00000  Uiso   1.00
H30    H     0.70967   0.32684   0.89167   0.00000  Uiso   1.00
H31    H     0.72999   0.71211   0.43094   0.00000  Uiso   1.00
H32    H     0.65786   0.90289   0.48323   0.00000  Uiso   1.00
H33    H     0.74744   0.60127   0.23905   0.00000  Uiso   1.00
H34    H     0.79844   0.65405   0.55364   0.00000  Uiso   1.00
H35    H     0.55621   0.07981   0.56774   0.00000  Uiso   1.00
H36    H     0.74511   0.44380   0.05289   0.00000  Uiso   1.00
H37    H     0.85265   0.55510   0.71625   0.00000  Uiso   1.00
O38    O     0.43425   0.08637   0.69351   0.00000  Uiso   1.00
O39    O     0.68208   0.25194   0.01806   0.00000  Uiso   1.00
O40    O     0.82317   0.39796   0.88837   0.00000  Uiso   1.00
N41    N     0.45679   0.87909   0.69472   0.00000  Uiso   1.00
N42    N     0.63338   0.28448   0.21337   0.00000  Uiso   1.00
N43    N     0.73394   0.38850   0.83353   0.00000  Uiso   1.00
N44    N     0.53372   0.00191   0.60033   0.00000  Uiso   1.00
N45    N     0.71032   0.40730   0.11897   0.00000  Uiso   1.00
N46    N     0.81087   0.51133   0.73914   0.00000  Uiso   1.00
C47    C     0.10125   0.00659   0.58890   0.00000  Uiso   1.00
C48    C     0.08024   0.13927   0.59501   0.00000  Uiso   1.00
C49    C     0.01972   0.18240   0.65272   0.00000  Uiso   1.00
C50    C     0.01006   0.30692   0.64799   0.00000  Uiso   1.00
C51    C     0.96995   0.50099   0.66660   0.00000  Uiso   1.00
C52    C     0.12891   0.97540   0.46234   0.00000  Uiso   1.00
C53    C     0.10930   0.88075   0.40850   0.00000  Uiso   1.00
C54    C     0.14062   0.86732   0.29209   0.00000  Uiso   1.00
C55    C     0.17609   0.80692   0.10474   0.00000  Uiso   1.00
C56    C     0.15661   0.00408   0.63327   0.00000  Uiso   1.00
C57    C     0.16032   0.93352   0.72313   0.00000  Uiso   1.00
C58    C     0.21497   0.94422   0.75061   0.00000  Uiso   1.00
C59    C     0.29346   0.92837   0.82866   0.00000  Uiso   1.00
C60    C     0.19173   0.15103   0.47789   0.00000  Uiso   1.00
C61    C     0.12939   0.21772   0.53471   0.00000  Uiso   1.00
C62    C     0.11982   0.34221   0.52990   0.00000  Uiso   1.00
C63    C     0.05929   0.38552   0.58759   0.00000  Uiso   1.00
C64    C     0.17805   0.05385   0.40204   0.00000  Uiso   1.00
C65    C     0.20941   0.04055   0.28568   0.00000  Uiso   1.00
C66    C     0.18985   0.94591   0.23168   0.00000  Uiso   1.00
C67    C     0.20576   0.08254   0.57297   0.00000  Uiso   1.00
C68    C     0.26042   0.09334   0.60031   0.00000  Uiso   1.00
C69    C     0.26420   0.02281   0.69020   0.00000  Uiso   1.00
H70    H     0.06300   0.94551   0.63583   0.00000  Uiso   1.00
H71    H     0.98170   0.12166   0.69936   0.00000  Uiso   1.00
H72    H     0.07128   0.82004   0.45519   0.00000  Uiso   1.00
H73    H     0.12228   0.87283   0.76977   0.00000  Uiso   1.00
H74    H     0.91323   0.35155   0.74316   0.00000  Uiso   1.00
H75    H     0.10212   0.71555   0.22832   0.00000  Uiso   1.00
H76    H     0.20967   0.82684   0.89167   0.00000  Uiso   1.00
H77    H     0.22999   0.21211   0.43094   0.00000  Uiso   1.00
H78    H     0.15786   0.40289   0.48323   0.00000  Uiso   1.00
H79    H     0.24744   0.10127   0.23905   0.00000  Uiso   1.00
H80    H     0.29844   0.15405   0.55364   0.00000  Uiso   1.00
H81    H     0.05621   0.57981   0.56774   0.00000  Uiso   1.00
H82    H     0.24511   0.94380   0.05289   0.00000  Uiso   1.00
H83    H     0.35265   0.05510   0.71625   0.00000  Uiso   1.00
O84    O     0.93425   0.58637   0.69351   0.00000  Uiso   1.00
O85    O     0.18208   0.75194   0.01806   0.00000  Uiso   1.00
O86    O     0.32317   0.89796   0.88837   0.00000  Uiso   1.00
N87    N     0.95679   0.37909   0.69472   0.00000  Uiso   1.00
N88    N     0.13338   0.78448   0.21337   0.00000  Uiso   1.00
N89    N     0.23394   0.88850   0.83353   0.00000  Uiso   1.00
N90    N     0.03372   0.50191   0.60033   0.00000  Uiso   1.00
N91    N     0.21032   0.90730   0.11897   0.00000  Uiso   1.00
N92    N     0.31087   0.01133   0.73914   0.00000  Uiso   1.00
C93    C     0.39875   0.50659   0.41110   0.00000  Uiso   1.00
C94    C     0.41976   0.63927   0.40499   0.00000  Uiso   1.00
C95    C     0.48028   0.68240   0.34728   0.00000  Uiso   1.00
C96    C     0.48994   0.80692   0.35201   0.00000  Uiso   1.00
C97    C     0.53005   0.00099   0.33340   0.00000  Uiso   1.00
C98    C     0.37109   0.47540   0.53766   0.00000  Uiso   1.00
C99    C     0.39070   0.38075   0.59150   0.00000  Uiso   1.00
C100   C     0.35938   0.36732   0.70791   0.00000  Uiso   1.00
C101   C     0.32391   0.30692   0.89526   0.00000  Uiso   1.00
C102   C     0.34339   0.50408   0.36673   0.00000  Uiso   1.00
C103   C     0.33968   0.43352   0.27687   0.00000  Uiso   1.00
C104   C     0.28503   0.44422   0.24939   0.00000  Uiso   1.00
C105   C     0.20654   0.42837   0.17134   0.00000  Uiso   1.00
C106   C     0.30827   0.65103   0.52211   0.00000  Uiso   1.00
C107   C     0.37061   0.71772   0.46529   0.00000  Uiso   1.00
C108   C     0.38018   0.84221   0.47010   0.00000  Uiso   1.00
C109   C     0.44071   0.88552   0.41241   0.00000  Uiso   1.00
C110   C     0.32195   0.55385   0.59796   0.00000  Uiso   1.00
C111   C     0.29059   0.54055   0.71432   0.00000  Uiso   1.00
C112   C     0.31015   0.44591   0.76832   0.00000  Uiso   1.00
C113   C     0.29424   0.58254   0.42703   0.00000  Uiso   1.00
C114   C     0.23958   0.59334   0.39969   0.00000  Uiso   1.00
C115   C     0.23580   0.52281   0.30980   0.00000  Uiso   1.00
H116   H     0.43700   0.44551   0.36417   0.00000  Uiso   1.00
H117   H     0.51830   0.62166   0.30064   0.00000  Uiso   1.00
H118   H     0.42872   0.32004   0.54481   0.00000  Uiso   1.00
H119   H     0.37772   0.37283   0.23023   0.00000  Uiso   1.00
H120   H     0.58677   0.85155   0.25684   0.00000  Uiso   1.00
H121   H     0.39788   0.21555   0.77168   0.00000  Uiso   1.00
H122   H     0.29033   0.32684   0.10833   0.00000  Uiso   1.00
H123   H     0.27001   0.71211   0.56906   0.00000  Uiso   1.00
H124   H     0.34214   0.90289   0.51677   0.00000  Uiso   1.00
H125   H     0.25256   0.60127   0.76095   0.00000  Uiso   1.00
H126   H     0.20156   0.65405   0.44636   0.00000  Uiso   1.00
H127   H     0.44379   0.07981   0.43226   0.00000  Uiso   1.00
H128   H     0.25489   0.44380   0.94711   0.00000  Uiso   1.00
H129   H     0.14735   0.55510   0.28375   0.00000  Uiso   1.00
O130   O     0.56575   0.08637   0.30649   0.00000  Uiso   1.00
O131   O     0.31792   0.25194   0.98194   0.00000  Uiso   1.00
O132   O     0.17683   0.39796   0.11163   0.00000  Uiso   1.00
N133   N     0.54321   0.87909   0.30528   0.00000  Uiso   1.00
N134   N     0.36662   0.28448   0.78663   0.00000  Uiso   1.00
N135   N     0.26606   0.38850   0.16647   0.00000  Uiso   1.00
N136   N     0.46628   0.00191   0.39967   0.00000  Uiso   1.00
N137   N     0.28968   0.40730   0.88103   0.00000  Uiso   1.00
N138   N     0.18913   0.51133   0.26086   0.00000  Uiso   1.00
C139   C     0.89875   0.00659   0.41110   0.00000  Uiso   1.00
C140   C     0.91976   0.13927   0.40499   0.00000  Uiso   1.00
C141   C     0.98028   0.18240   0.34728   0.00000  Uiso   1.00
C142   C     0.98994   0.30692   0.35201   0.00000  Uiso   1.00
C143   C     0.03005   0.50099   0.33340   0.00000  Uiso   1.00
C144   C     0.87109   0.97540   0.53766   0.00000  Uiso   1.00
C145   C     0.89070   0.88075   0.59150   0.00000  Uiso   1.00
C146   C     0.85938   0.86732   0.70791   0.00000  Uiso   1.00
C147   C     0.82391   0.80692   0.89526   0.00000  Uiso   1.00
C148   C     0.84339   0.00408   0.36673   0.00000  Uiso   1.00
C149   C     0.83968   0.93352   0.27687   0.00000  Uiso   1.00
C150   C     0.78503   0.94422   0.24939   0.00000  Uiso   1.00
C151   C     0.70654   0.92837   0.17134   0.00000  Uiso   1.00
C152   C     0.80827   0.15103   0.52211   0.00000  Uiso   1.00
C153   C     0.87061   0.21772   0.46529   0.00000  Uiso   1.00
C154   C     0.88018   0.34221   0.47010   0.00000  Uiso   1.00
C155   C     0.94071   0.38552   0.41241   0.00000  Uiso   1.00
C156   C     0.82195   0.05385   0.59796   0.00000  Uiso   1.00
C157   C     0.79059   0.04055   0.71432   0.00000  Uiso   1.00
C158   C     0.81015   0.94591   0.76832   0.00000  Uiso   1.00
C159   C     0.79424   0.08254   0.42703   0.00000  Uiso   1.00
C160   C     0.73958   0.09334   0.39969   0.00000  Uiso   1.00
C161   C     0.73580   0.02281   0.30980   0.00000  Uiso   1.00
H162   H     0.93700   0.94551   0.36417   0.00000  Uiso   1.00
H163   H     0.01830   0.12166   0.30064   0.00000  Uiso   1.00
H164   H     0.92872   0.82004   0.54481   0.00000  Uiso   1.00
H165   H     0.87772   0.87283   0.23023   0.00000  Uiso   1.00
H166   H     0.08677   0.35155   0.25684   0.00000  Uiso   1.00
H167   H     0.89788   0.71555   0.77168   0.00000  Uiso   1.00
H168   H     0.79033   0.82684   0.10833   0.00000  Uiso   1.00
H169   H     0.77001   0.21211   0.56906   0.00000  Uiso   1.00
H170   H     0.84214   0.40289   0.51677   0.00000  Uiso   1.00
H171   H     0.75256   0.10127   0.76095   0.00000  Uiso   1.00
H172   H     0.70156   0.15405   0.44636   0.00000  Uiso   1.00
H173   H     0.94379   0.57981   0.43226   0.00000  Uiso   1.00
H174   H     0.75489   0.94380   0.94711   0.00000  Uiso   1.00
H175   H     0.64735   0.05510   0.28375   0.00000  Uiso   1.00
O176   O     0.06575   0.58637   0.30649   0.00000  Uiso   1.00
O177   O     0.81792   0.75194   0.98194   0.00000  Uiso   1.00
O178   O     0.67683   0.89796   0.11163   0.00000  Uiso   1.00
N179   N     0.04321   0.37909   0.30528   0.00000  Uiso   1.00
N180   N     0.86662   0.78448   0.78663   0.00000  Uiso   1.00
N181   N     0.76606   0.88850   0.16647   0.00000  Uiso   1.00
N182   N     0.96628   0.50191   0.39967   0.00000  Uiso   1.00
N183   N     0.78968   0.90730   0.88103   0.00000  Uiso   1.00
N184   N     0.68913   0.01133   0.26086   0.00000  Uiso   1.00
