data_job_05390
_audit_creation_date              2018-12-19
_audit_creation_method            'Materials Studio'
_symmetry_space_group_name_H-M    'P1'
_symmetry_Int_Tables_number       1
_symmetry_cell_setting            triclinic
loop_
_symmetry_equiv_pos_as_xyz
  x,y,z
_cell_length_a                    12.3541
_cell_length_b                    44.4361
_cell_length_c                    13.0852
_cell_angle_alpha                 90.0000
_cell_angle_beta                  90.0000
_cell_angle_gamma                 90.0000
loop_
_atom_site_label
_atom_site_type_symbol
_atom_site_fract_x
_atom_site_fract_y
_atom_site_fract_z
_atom_site_U_iso_or_equiv
_atom_site_adp_type
_atom_site_occupancy
C1     C     0.87023   0.09651   0.19690   0.00000  Uiso   1.00
C2     C     0.79241   0.07646   0.25646   0.00000  Uiso   1.00
C3     C     0.69840   0.06360   0.21822   0.00000  Uiso   1.00
C4     C     0.63823   0.04598   0.28492   0.00000  Uiso   1.00
C5     C     0.51238   0.01555   0.36201   0.00000  Uiso   1.00
C6     C     0.87863   0.12577   0.25729   0.00000  Uiso   1.00
C7     C     0.85713   0.15436   0.21974   0.00000  Uiso   1.00
C8     C     0.86956   0.17825   0.28714   0.00000  Uiso   1.00
C9     C     0.87765   0.22438   0.36549   0.00000  Uiso   1.00
C10    C     0.98097   0.08154   0.20473   0.00000  Uiso   1.00
C11    C     0.04555   0.07294   0.12299   0.00000  Uiso   1.00
C12    C     0.14416   0.05959   0.14615   0.00000  Uiso   1.00
C13    C     0.31115   0.03704   0.14290   0.00000  Uiso   1.00
C14    C     0.93054   0.08809   0.38335   0.00000  Uiso   1.00
C15    C     0.82517   0.07189   0.35773   0.00000  Uiso   1.00
C16    C     0.76513   0.05428   0.42451   0.00000  Uiso   1.00
C17    C     0.67105   0.04139   0.38637   0.00000  Uiso   1.00
C18    C     0.91139   0.12120   0.35856   0.00000  Uiso   1.00
C19    C     0.92386   0.14505   0.42603   0.00000  Uiso   1.00
C20    C     0.90238   0.17367   0.38860   0.00000  Uiso   1.00
C21    C     0.01373   0.07696   0.30600   0.00000  Uiso   1.00
C22    C     0.11227   0.06362   0.32928   0.00000  Uiso   1.00
C23    C     0.17697   0.05501   0.24760   0.00000  Uiso   1.00
H24    H     0.84472   0.10008   0.11806   0.00000  Uiso   1.00
H25    H     0.67307   0.06715   0.13984   0.00000  Uiso   1.00
H26    H     0.83179   0.15790   0.14136   0.00000  Uiso   1.00
H27    H     0.02017   0.07649   0.04464   0.00000  Uiso   1.00
H28    H     0.49719   0.02863   0.20867   0.00000  Uiso   1.00
H29    H     0.83189   0.21998   0.21187   0.00000  Uiso   1.00
H30    H     0.22913   0.04832   0.00789   0.00000  Uiso   1.00
H31    H     0.95605   0.08453   0.46220   0.00000  Uiso   1.00
H32    H     0.79050   0.05074   0.50287   0.00000  Uiso   1.00
H33    H     0.94922   0.14150   0.50439   0.00000  Uiso   1.00
H34    H     0.13759   0.06009   0.40766   0.00000  Uiso   1.00
H35    H     0.59249   0.01532   0.50332   0.00000  Uiso   1.00
H36    H     0.92720   0.20667   0.50651   0.00000  Uiso   1.00
H37    H     0.32443   0.03500   0.30254   0.00000  Uiso   1.00
O38    O     0.43391   0.00004   0.37655   0.00000  Uiso   1.00
O39    O     0.87305   0.25108   0.38073   0.00000  Uiso   1.00
O40    O     0.39421   0.02586   0.11313   0.00000  Uiso   1.00
N41    N     0.54235   0.03013   0.27243   0.00000  Uiso   1.00
N42    N     0.85526   0.20903   0.27542   0.00000  Uiso   1.00
N43    N     0.22665   0.04855   0.08472   0.00000  Uiso   1.00
N44    N     0.59363   0.02296   0.43098   0.00000  Uiso   1.00
N45    N     0.90654   0.20187   0.43397   0.00000  Uiso   1.00
N46    N     0.27794   0.04138   0.24327   0.00000  Uiso   1.00
C47    C     0.62977   0.90349   0.19690   0.00000  Uiso   1.00
C48    C     0.70759   0.92354   0.25646   0.00000  Uiso   1.00
C49    C     0.80160   0.93640   0.21822   0.00000  Uiso   1.00
C50    C     0.86177   0.95402   0.28492   0.00000  Uiso   1.00
C51    C     0.98762   0.98445   0.36201   0.00000  Uiso   1.00
C52    C     0.62137   0.87423   0.25729   0.00000  Uiso   1.00
C53    C     0.64287   0.84564   0.21974   0.00000  Uiso   1.00
C54    C     0.63044   0.82175   0.28714   0.00000  Uiso   1.00
C55    C     0.62235   0.77562   0.36549   0.00000  Uiso   1.00
C56    C     0.51903   0.91846   0.20473   0.00000  Uiso   1.00
C57    C     0.45445   0.92706   0.12299   0.00000  Uiso   1.00
C58    C     0.35584   0.94041   0.14615   0.00000  Uiso   1.00
C59    C     0.18885   0.96296   0.14290   0.00000  Uiso   1.00
C60    C     0.56946   0.91191   0.38335   0.00000  Uiso   1.00
C61    C     0.67483   0.92811   0.35773   0.00000  Uiso   1.00
C62    C     0.73487   0.94572   0.42451   0.00000  Uiso   1.00
C63    C     0.82895   0.95861   0.38637   0.00000  Uiso   1.00
C64    C     0.58861   0.87880   0.35856   0.00000  Uiso   1.00
C65    C     0.57614   0.85495   0.42603   0.00000  Uiso   1.00
C66    C     0.59762   0.82633   0.38860   0.00000  Uiso   1.00
C67    C     0.48627   0.92304   0.30600   0.00000  Uiso   1.00
C68    C     0.38773   0.93638   0.32928   0.00000  Uiso   1.00
C69    C     0.32303   0.94499   0.24760   0.00000  Uiso   1.00
H70    H     0.65528   0.89992   0.11806   0.00000  Uiso   1.00
H71    H     0.82693   0.93285   0.13984   0.00000  Uiso   1.00
H72    H     0.66821   0.84210   0.14136   0.00000  Uiso   1.00
H73    H     0.47983   0.92351   0.04464   0.00000  Uiso   1.00
H74    H     0.00281   0.97137   0.20867   0.00000  Uiso   1.00
H75    H     0.66811   0.78002   0.21187   0.00000  Uiso   1.00
H76    H     0.27087   0.95168   0.00789   0.00000  Uiso   1.00
H77    H     0.54395   0.91547   0.46220   0.00000  Uiso   1.00
H78    H     0.70950   0.94926   0.50287   0.00000  Uiso   1.00
H79    H     0.55078   0.85850   0.50439   0.00000  Uiso   1.00
H80    H     0.36241   0.93991   0.40766   0.00000  Uiso   1.00
H81    H     0.90751   0.98468   0.50332   0.00000  Uiso   1.00
H82    H     0.57280   0.79333   0.50651   0.00000  Uiso   1.00
H83    H     0.17557   0.96500   0.30254   0.00000  Uiso   1.00
O84    O     0.06609   0.99996   0.37655   0.00000  Uiso   1.00
O85    O     0.62695   0.74892   0.38073   0.00000  Uiso   1.00
O86    O     0.10579   0.97414   0.11313   0.00000  Uiso   1.00
N87    N     0.95765   0.96987   0.27243   0.00000  Uiso   1.00
N88    N     0.64474   0.79097   0.27542   0.00000  Uiso   1.00
N89    N     0.27335   0.95145   0.08472   0.00000  Uiso   1.00
N90    N     0.90637   0.97704   0.43098   0.00000  Uiso   1.00
N91    N     0.59346   0.79813   0.43397   0.00000  Uiso   1.00
N92    N     0.22206   0.95862   0.24327   0.00000  Uiso   1.00
C93    C     0.62977   0.59651   0.30310   0.00000  Uiso   1.00
C94    C     0.70759   0.57646   0.24354   0.00000  Uiso   1.00
C95    C     0.80160   0.56360   0.28178   0.00000  Uiso   1.00
C96    C     0.86177   0.54598   0.21508   0.00000  Uiso   1.00
C97    C     0.98762   0.51555   0.13799   0.00000  Uiso   1.00
C98    C     0.62137   0.62577   0.24271   0.00000  Uiso   1.00
C99    C     0.64287   0.65436   0.28026   0.00000  Uiso   1.00
C100   C     0.63044   0.67825   0.21286   0.00000  Uiso   1.00
C101   C     0.62235   0.72438   0.13451   0.00000  Uiso   1.00
C102   C     0.51903   0.58154   0.29527   0.00000  Uiso   1.00
C103   C     0.45445   0.57294   0.37701   0.00000  Uiso   1.00
C104   C     0.35584   0.55959   0.35385   0.00000  Uiso   1.00
C105   C     0.18885   0.53704   0.35710   0.00000  Uiso   1.00
C106   C     0.56946   0.58809   0.11665   0.00000  Uiso   1.00
C107   C     0.67483   0.57189   0.14227   0.00000  Uiso   1.00
C108   C     0.73487   0.55428   0.07549   0.00000  Uiso   1.00
C109   C     0.82895   0.54139   0.11363   0.00000  Uiso   1.00
C110   C     0.58861   0.62120   0.14144   0.00000  Uiso   1.00
C111   C     0.57614   0.64505   0.07397   0.00000  Uiso   1.00
C112   C     0.59762   0.67367   0.11140   0.00000  Uiso   1.00
C113   C     0.48627   0.57696   0.19400   0.00000  Uiso   1.00
C114   C     0.38773   0.56362   0.17072   0.00000  Uiso   1.00
C115   C     0.32303   0.55501   0.25240   0.00000  Uiso   1.00
H116   H     0.65528   0.60008   0.38194   0.00000  Uiso   1.00
H117   H     0.82693   0.56715   0.36016   0.00000  Uiso   1.00
H118   H     0.66821   0.65790   0.35864   0.00000  Uiso   1.00
H119   H     0.47983   0.57649   0.45536   0.00000  Uiso   1.00
H120   H     0.00281   0.52863   0.29133   0.00000  Uiso   1.00
H121   H     0.66811   0.71998   0.28813   0.00000  Uiso   1.00
H122   H     0.27087   0.54832   0.49211   0.00000  Uiso   1.00
H123   H     0.54395   0.58453   0.03780   0.00000  Uiso   1.00
H124   H     0.70950   0.55074   0.99713   0.00000  Uiso   1.00
H125   H     0.55078   0.64150   0.99561   0.00000  Uiso   1.00
H126   H     0.36241   0.56009   0.09234   0.00000  Uiso   1.00
H127   H     0.90751   0.51532   0.99668   0.00000  Uiso   1.00
H128   H     0.57280   0.70667   0.99349   0.00000  Uiso   1.00
H129   H     0.17557   0.53500   0.19746   0.00000  Uiso   1.00
O130   O     0.06609   0.50004   0.12345   0.00000  Uiso   1.00
O131   O     0.62695   0.75108   0.11927   0.00000  Uiso   1.00
O132   O     0.10579   0.52586   0.38687   0.00000  Uiso   1.00
N133   N     0.95765   0.53013   0.22757   0.00000  Uiso   1.00
N134   N     0.64474   0.70903   0.22458   0.00000  Uiso   1.00
N135   N     0.27335   0.54855   0.41528   0.00000  Uiso   1.00
N136   N     0.90637   0.52296   0.06902   0.00000  Uiso   1.00
N137   N     0.59346   0.70187   0.06603   0.00000  Uiso   1.00
N138   N     0.22206   0.54138   0.25673   0.00000  Uiso   1.00
C139   C     0.87023   0.40349   0.30310   0.00000  Uiso   1.00
C140   C     0.79241   0.42354   0.24354   0.00000  Uiso   1.00
C141   C     0.69840   0.43640   0.28178   0.00000  Uiso   1.00
C142   C     0.63823   0.45402   0.21508   0.00000  Uiso   1.00
C143   C     0.51238   0.48445   0.13799   0.00000  Uiso   1.00
C144   C     0.87863   0.37423   0.24271   0.00000  Uiso   1.00
C145   C     0.85713   0.34564   0.28026   0.00000  Uiso   1.00
C146   C     0.86956   0.32175   0.21286   0.00000  Uiso   1.00
C147   C     0.87765   0.27562   0.13451   0.00000  Uiso   1.00
C148   C     0.98097   0.41846   0.29527   0.00000  Uiso   1.00
C149   C     0.04555   0.42706   0.37701   0.00000  Uiso   1.00
C150   C     0.14416   0.44041   0.35385   0.00000  Uiso   1.00
C151   C     0.31115   0.46296   0.35710   0.00000  Uiso   1.00
C152   C     0.93054   0.41191   0.11665   0.00000  Uiso   1.00
C153   C     0.82517   0.42811   0.14227   0.00000  Uiso   1.00
C154   C     0.76513   0.44572   0.07549   0.00000  Uiso   1.00
C155   C     0.67105   0.45861   0.11363   0.00000  Uiso   1.00
C156   C     0.91139   0.37880   0.14144   0.00000  Uiso   1.00
C157   C     0.92386   0.35495   0.07397   0.00000  Uiso   1.00
C158   C     0.90238   0.32633   0.11140   0.00000  Uiso   1.00
C159   C     0.01373   0.42304   0.19400   0.00000  Uiso   1.00
C160   C     0.11227   0.43638   0.17072   0.00000  Uiso   1.00
C161   C     0.17697   0.44499   0.25240   0.00000  Uiso   1.00
H162   H     0.84472   0.39992   0.38194   0.00000  Uiso   1.00
H163   H     0.67307   0.43285   0.36016   0.00000  Uiso   1.00
H164   H     0.83179   0.34210   0.35864   0.00000  Uiso   1.00
H165   H     0.02017   0.42351   0.45536   0.00000  Uiso   1.00
H166   H     0.49719   0.47137   0.29133   0.00000  Uiso   1.00
H167   H     0.83189   0.28002   0.28813   0.00000  Uiso   1.00
H168   H     0.22913   0.45168   0.49211   0.00000  Uiso   1.00
H169   H     0.95605   0.41547   0.03780   0.00000  Uiso   1.00
H170   H     0.79050   0.44926   0.99713   0.00000  Uiso   1.00
H171   H     0.94922   0.35850   0.99561   0.00000  Uiso   1.00
H172   H     0.13759   0.43991   0.09234   0.00000  Uiso   1.00
H173   H     0.59249   0.48468   0.99668   0.00000  Uiso   1.00
H174   H     0.92720   0.29333   0.99349   0.00000  Uiso   1.00
H175   H     0.32443   0.46500   0.19746   0.00000  Uiso   1.00
O176   O     0.43391   0.49996   0.12345   0.00000  Uiso   1.00
O177   O     0.87305   0.24892   0.11927   0.00000  Uiso   1.00
O178   O     0.39421   0.47414   0.38687   0.00000  Uiso   1.00
N179   N     0.54235   0.46987   0.22757   0.00000  Uiso   1.00
N180   N     0.85526   0.29097   0.22458   0.00000  Uiso   1.00
N181   N     0.22665   0.45145   0.41528   0.00000  Uiso   1.00
N182   N     0.59363   0.47704   0.06902   0.00000  Uiso   1.00
N183   N     0.90654   0.29813   0.06603   0.00000  Uiso   1.00
N184   N     0.27794   0.45862   0.25673   0.00000  Uiso   1.00
C185   C     0.12977   0.90349   0.80310   0.00000  Uiso   1.00
C186   C     0.20759   0.92354   0.74354   0.00000  Uiso   1.00
C187   C     0.30160   0.93640   0.78178   0.00000  Uiso   1.00
C188   C     0.36177   0.95402   0.71508   0.00000  Uiso   1.00
C189   C     0.48762   0.98445   0.63799   0.00000  Uiso   1.00
C190   C     0.12137   0.87423   0.74271   0.00000  Uiso   1.00
C191   C     0.14287   0.84564   0.78026   0.00000  Uiso   1.00
C192   C     0.13044   0.82175   0.71286   0.00000  Uiso   1.00
C193   C     0.12235   0.77562   0.63451   0.00000  Uiso   1.00
C194   C     0.01903   0.91846   0.79527   0.00000  Uiso   1.00
C195   C     0.95445   0.92706   0.87701   0.00000  Uiso   1.00
C196   C     0.85584   0.94041   0.85385   0.00000  Uiso   1.00
C197   C     0.68885   0.96296   0.85710   0.00000  Uiso   1.00
C198   C     0.06946   0.91191   0.61665   0.00000  Uiso   1.00
C199   C     0.17483   0.92811   0.64227   0.00000  Uiso   1.00
C200   C     0.23487   0.94572   0.57549   0.00000  Uiso   1.00
C201   C     0.32895   0.95861   0.61363   0.00000  Uiso   1.00
C202   C     0.08861   0.87880   0.64144   0.00000  Uiso   1.00
C203   C     0.07614   0.85495   0.57397   0.00000  Uiso   1.00
C204   C     0.09762   0.82633   0.61140   0.00000  Uiso   1.00
C205   C     0.98627   0.92304   0.69400   0.00000  Uiso   1.00
C206   C     0.88773   0.93638   0.67072   0.00000  Uiso   1.00
C207   C     0.82303   0.94499   0.75240   0.00000  Uiso   1.00
H208   H     0.15528   0.89992   0.88194   0.00000  Uiso   1.00
H209   H     0.32693   0.93285   0.86016   0.00000  Uiso   1.00
H210   H     0.16821   0.84210   0.85864   0.00000  Uiso   1.00
H211   H     0.97983   0.92351   0.95536   0.00000  Uiso   1.00
H212   H     0.50281   0.97137   0.79133   0.00000  Uiso   1.00
H213   H     0.16811   0.78002   0.78813   0.00000  Uiso   1.00
H214   H     0.77087   0.95168   0.99211   0.00000  Uiso   1.00
H215   H     0.04395   0.91547   0.53780   0.00000  Uiso   1.00
H216   H     0.20950   0.94926   0.49713   0.00000  Uiso   1.00
H217   H     0.05078   0.85850   0.49561   0.00000  Uiso   1.00
H218   H     0.86241   0.93991   0.59234   0.00000  Uiso   1.00
H219   H     0.40751   0.98468   0.49668   0.00000  Uiso   1.00
H220   H     0.07280   0.79333   0.49349   0.00000  Uiso   1.00
H221   H     0.67557   0.96500   0.69746   0.00000  Uiso   1.00
O222   O     0.56609   0.99996   0.62345   0.00000  Uiso   1.00
O223   O     0.12695   0.74892   0.61927   0.00000  Uiso   1.00
O224   O     0.60579   0.97414   0.88687   0.00000  Uiso   1.00
N225   N     0.45765   0.96987   0.72757   0.00000  Uiso   1.00
N226   N     0.14474   0.79097   0.72458   0.00000  Uiso   1.00
N227   N     0.77335   0.95145   0.91528   0.00000  Uiso   1.00
N228   N     0.40637   0.97704   0.56902   0.00000  Uiso   1.00
N229   N     0.09346   0.79813   0.56603   0.00000  Uiso   1.00
N230   N     0.72206   0.95862   0.75673   0.00000  Uiso   1.00
C231   C     0.37023   0.09651   0.80310   0.00000  Uiso   1.00
C232   C     0.29241   0.07646   0.74354   0.00000  Uiso   1.00
C233   C     0.19840   0.06360   0.78178   0.00000  Uiso   1.00
C234   C     0.13823   0.04598   0.71508   0.00000  Uiso   1.00
C235   C     0.01238   0.01555   0.63799   0.00000  Uiso   1.00
C236   C     0.37863   0.12577   0.74271   0.00000  Uiso   1.00
C237   C     0.35713   0.15436   0.78026   0.00000  Uiso   1.00
C238   C     0.36956   0.17825   0.71286   0.00000  Uiso   1.00
C239   C     0.37765   0.22438   0.63451   0.00000  Uiso   1.00
C240   C     0.48097   0.08154   0.79527   0.00000  Uiso   1.00
C241   C     0.54555   0.07294   0.87701   0.00000  Uiso   1.00
C242   C     0.64416   0.05959   0.85385   0.00000  Uiso   1.00
C243   C     0.81115   0.03704   0.85710   0.00000  Uiso   1.00
C244   C     0.43054   0.08809   0.61665   0.00000  Uiso   1.00
C245   C     0.32517   0.07189   0.64227   0.00000  Uiso   1.00
C246   C     0.26513   0.05428   0.57549   0.00000  Uiso   1.00
C247   C     0.17105   0.04139   0.61363   0.00000  Uiso   1.00
C248   C     0.41139   0.12120   0.64144   0.00000  Uiso   1.00
C249   C     0.42386   0.14505   0.57397   0.00000  Uiso   1.00
C250   C     0.40238   0.17367   0.61140   0.00000  Uiso   1.00
C251   C     0.51373   0.07696   0.69400   0.00000  Uiso   1.00
C252   C     0.61227   0.06362   0.67072   0.00000  Uiso   1.00
C253   C     0.67697   0.05501   0.75240   0.00000  Uiso   1.00
H254   H     0.34472   0.10008   0.88194   0.00000  Uiso   1.00
H255   H     0.17307   0.06715   0.86016   0.00000  Uiso   1.00
H256   H     0.33179   0.15790   0.85864   0.00000  Uiso   1.00
H257   H     0.52017   0.07649   0.95536   0.00000  Uiso   1.00
H258   H     0.99719   0.02863   0.79133   0.00000  Uiso   1.00
H259   H     0.33189   0.21998   0.78813   0.00000  Uiso   1.00
H260   H     0.72913   0.04832   0.99211   0.00000  Uiso   1.00
H261   H     0.45605   0.08453   0.53780   0.00000  Uiso   1.00
H262   H     0.29050   0.05074   0.49713   0.00000  Uiso   1.00
H263   H     0.44922   0.14150   0.49561   0.00000  Uiso   1.00
H264   H     0.63759   0.06009   0.59234   0.00000  Uiso   1.00
H265   H     0.09249   0.01532   0.49668   0.00000  Uiso   1.00
H266   H     0.42720   0.20667   0.49349   0.00000  Uiso   1.00
H267   H     0.82443   0.03500   0.69746   0.00000  Uiso   1.00
O268   O     0.93391   0.00004   0.62345   0.00000  Uiso   1.00
O269   O     0.37305   0.25108   0.61927   0.00000  Uiso   1.00
O270   O     0.89421   0.02586   0.88687   0.00000  Uiso   1.00
N271   N     0.04235   0.03013   0.72757   0.00000  Uiso   1.00
N272   N     0.35526   0.20903   0.72458   0.00000  Uiso   1.00
N273   N     0.72665   0.04855   0.91528   0.00000  Uiso   1.00
N274   N     0.09363   0.02296   0.56902   0.00000  Uiso   1.00
N275   N     0.40654   0.20187   0.56603   0.00000  Uiso   1.00
N276   N     0.77794   0.04138   0.75673   0.00000  Uiso   1.00
C277   C     0.37023   0.40349   0.69690   0.00000  Uiso   1.00
C278   C     0.29241   0.42354   0.75646   0.00000  Uiso   1.00
C279   C     0.19840   0.43640   0.71822   0.00000  Uiso   1.00
C280   C     0.13823   0.45402   0.78492   0.00000  Uiso   1.00
C281   C     0.01238   0.48445   0.86201   0.00000  Uiso   1.00
C282   C     0.37863   0.37423   0.75729   0.00000  Uiso   1.00
C283   C     0.35713   0.34564   0.71974   0.00000  Uiso   1.00
C284   C     0.36956   0.32175   0.78714   0.00000  Uiso   1.00
C285   C     0.37765   0.27562   0.86549   0.00000  Uiso   1.00
C286   C     0.48097   0.41846   0.70473   0.00000  Uiso   1.00
C287   C     0.54555   0.42706   0.62299   0.00000  Uiso   1.00
C288   C     0.64416   0.44041   0.64615   0.00000  Uiso   1.00
C289   C     0.81115   0.46296   0.64290   0.00000  Uiso   1.00
C290   C     0.43054   0.41191   0.88335   0.00000  Uiso   1.00
C291   C     0.32517   0.42811   0.85773   0.00000  Uiso   1.00
C292   C     0.26513   0.44572   0.92451   0.00000  Uiso   1.00
C293   C     0.17105   0.45861   0.88637   0.00000  Uiso   1.00
C294   C     0.41139   0.37880   0.85856   0.00000  Uiso   1.00
C295   C     0.42386   0.35495   0.92603   0.00000  Uiso   1.00
C296   C     0.40238   0.32633   0.88860   0.00000  Uiso   1.00
C297   C     0.51373   0.42304   0.80600   0.00000  Uiso   1.00
C298   C     0.61227   0.43638   0.82928   0.00000  Uiso   1.00
C299   C     0.67697   0.44499   0.74760   0.00000  Uiso   1.00
H300   H     0.34472   0.39992   0.61806   0.00000  Uiso   1.00
H301   H     0.17307   0.43285   0.63984   0.00000  Uiso   1.00
H302   H     0.33179   0.34210   0.64136   0.00000  Uiso   1.00
H303   H     0.52017   0.42351   0.54464   0.00000  Uiso   1.00
H304   H     0.99719   0.47137   0.70867   0.00000  Uiso   1.00
H305   H     0.33189   0.28002   0.71187   0.00000  Uiso   1.00
H306   H     0.72913   0.45168   0.50789   0.00000  Uiso   1.00
H307   H     0.45605   0.41547   0.96220   0.00000  Uiso   1.00
H308   H     0.29050   0.44926   0.00287   0.00000  Uiso   1.00
H309   H     0.44922   0.35850   0.00439   0.00000  Uiso   1.00
H310   H     0.63759   0.43991   0.90766   0.00000  Uiso   1.00
H311   H     0.09249   0.48468   0.00332   0.00000  Uiso   1.00
H312   H     0.42720   0.29333   0.00651   0.00000  Uiso   1.00
H313   H     0.82443   0.46500   0.80254   0.00000  Uiso   1.00
O314   O     0.93391   0.49996   0.87655   0.00000  Uiso   1.00
O315   O     0.37305   0.24892   0.88073   0.00000  Uiso   1.00
O316   O     0.89421   0.47414   0.61313   0.00000  Uiso   1.00
N317   N     0.04235   0.46987   0.77243   0.00000  Uiso   1.00
N318   N     0.35526   0.29097   0.77542   0.00000  Uiso   1.00
N319   N     0.72665   0.45145   0.58472   0.00000  Uiso   1.00
N320   N     0.09363   0.47704   0.93098   0.00000  Uiso   1.00
N321   N     0.40654   0.29813   0.93397   0.00000  Uiso   1.00
N322   N     0.77794   0.45862   0.74327   0.00000  Uiso   1.00
C323   C     0.12977   0.59651   0.69690   0.00000  Uiso   1.00
C324   C     0.20759   0.57646   0.75646   0.00000  Uiso   1.00
C325   C     0.30160   0.56360   0.71822   0.00000  Uiso   1.00
C326   C     0.36177   0.54598   0.78492   0.00000  Uiso   1.00
C327   C     0.48762   0.51555   0.86201   0.00000  Uiso   1.00
C328   C     0.12137   0.62577   0.75729   0.00000  Uiso   1.00
C329   C     0.14287   0.65436   0.71974   0.00000  Uiso   1.00
C330   C     0.13044   0.67825   0.78714   0.00000  Uiso   1.00
C331   C     0.12235   0.72438   0.86549   0.00000  Uiso   1.00
C332   C     0.01903   0.58154   0.70473   0.00000  Uiso   1.00
C333   C     0.95445   0.57294   0.62299   0.00000  Uiso   1.00
C334   C     0.85584   0.55959   0.64615   0.00000  Uiso   1.00
C335   C     0.68885   0.53704   0.64290   0.00000  Uiso   1.00
C336   C     0.06946   0.58809   0.88335   0.00000  Uiso   1.00
C337   C     0.17483   0.57189   0.85773   0.00000  Uiso   1.00
C338   C     0.23487   0.55428   0.92451   0.00000  Uiso   1.00
C339   C     0.32895   0.54139   0.88637   0.00000  Uiso   1.00
C340   C     0.08861   0.62120   0.85856   0.00000  Uiso   1.00
C341   C     0.07614   0.64505   0.92603   0.00000  Uiso   1.00
C342   C     0.09762   0.67367   0.88860   0.00000  Uiso   1.00
C343   C     0.98627   0.57696   0.80600   0.00000  Uiso   1.00
C344   C     0.88773   0.56362   0.82928   0.00000  Uiso   1.00
C345   C     0.82303   0.55501   0.74760   0.00000  Uiso   1.00
H346   H     0.15528   0.60008   0.61806   0.00000  Uiso   1.00
H347   H     0.32693   0.56715   0.63984   0.00000  Uiso   1.00
H348   H     0.16821   0.65790   0.64136   0.00000  Uiso   1.00
H349   H     0.97983   0.57649   0.54464   0.00000  Uiso   1.00
H350   H     0.50281   0.52863   0.70867   0.00000  Uiso   1.00
H351   H     0.16811   0.71998   0.71187   0.00000  Uiso   1.00
H352   H     0.77087   0.54832   0.50789   0.00000  Uiso   1.00
H353   H     0.04395   0.58453   0.96220   0.00000  Uiso   1.00
H354   H     0.20950   0.55074   0.00287   0.00000  Uiso   1.00
H355   H     0.05078   0.64150   0.00439   0.00000  Uiso   1.00
H356   H     0.86241   0.56009   0.90766   0.00000  Uiso   1.00
H357   H     0.40751   0.51532   0.00332   0.00000  Uiso   1.00
H358   H     0.07280   0.70667   0.00651   0.00000  Uiso   1.00
H359   H     0.67557   0.53500   0.80254   0.00000  Uiso   1.00
O360   O     0.56609   0.50004   0.87655   0.00000  Uiso   1.00
O361   O     0.12695   0.75108   0.88073   0.00000  Uiso   1.00
O362   O     0.60579   0.52586   0.61313   0.00000  Uiso   1.00
N363   N     0.45765   0.53013   0.77243   0.00000  Uiso   1.00
N364   N     0.14474   0.70903   0.77542   0.00000  Uiso   1.00
N365   N     0.77335   0.54855   0.58472   0.00000  Uiso   1.00
N366   N     0.40637   0.52296   0.93098   0.00000  Uiso   1.00
N367   N     0.09346   0.70187   0.93397   0.00000  Uiso   1.00
N368   N     0.72206   0.54138   0.74327   0.00000  Uiso   1.00
