data_job_00014
_audit_creation_date              2018-12-19
_audit_creation_method            'Materials Studio'
_symmetry_space_group_name_H-M    'P1'
_symmetry_Int_Tables_number       1
_symmetry_cell_setting            triclinic
loop_
_symmetry_equiv_pos_as_xyz
  x,y,z
_cell_length_a                    7.3760
_cell_length_b                    12.3050
_cell_length_c                    13.8278
_cell_angle_alpha                 95.0406
_cell_angle_beta                  74.5727
_cell_angle_gamma                 72.5670
loop_
_atom_site_label
_atom_site_type_symbol
_atom_site_fract_x
_atom_site_fract_y
_atom_site_fract_z
_atom_site_U_iso_or_equiv
_atom_site_adp_type
_atom_site_occupancy
C1     C     0.80925   0.26260   0.26957   0.00000  Uiso   1.00
C2     C     0.86204   0.36193   0.22441   0.00000  Uiso   1.00
C3     C     0.74094   0.44539   0.18631   0.00000  Uiso   1.00
C4     C     0.81641   0.52901   0.14829   0.00000  Uiso   1.00
C5     C     0.86955   0.68321   0.07810   0.00000  Uiso   1.00
C6     C     0.97537   0.15182   0.20794   0.00000  Uiso   1.00
C7     C     0.94955   0.05861   0.15601   0.00000  Uiso   1.00
C8     C     0.12044   0.96536   0.10415   0.00000  Uiso   1.00
C9     C     0.34951   0.79331   0.00845   0.00000  Uiso   1.00
C10    C     0.82979   0.27411   0.37652   0.00000  Uiso   1.00
C11    C     0.68158   0.28369   0.46633   0.00000  Uiso   1.00
C12    C     0.72991   0.29337   0.55639   0.00000  Uiso   1.00
C13    C     0.73294   0.31120   0.72244   0.00000  Uiso   1.00
C14    C     0.15864   0.26269   0.26981   0.00000  Uiso   1.00
C15    C     0.05182   0.36198   0.22454   0.00000  Uiso   1.00
C16    C     0.12750   0.44550   0.18658   0.00000  Uiso   1.00
C17    C     0.00653   0.52907   0.14843   0.00000  Uiso   1.00
C18    C     0.16514   0.15187   0.20807   0.00000  Uiso   1.00
C19    C     0.33611   0.05872   0.15628   0.00000  Uiso   1.00
C20    C     0.31056   0.96541   0.10428   0.00000  Uiso   1.00
C21    C     0.01956   0.27416   0.37665   0.00000  Uiso   1.00
C22    C     0.06814   0.28381   0.46659   0.00000  Uiso   1.00
C23    C     0.92003   0.29342   0.55652   0.00000  Uiso   1.00
H24    H     0.66151   0.26255   0.26947   0.00000  Uiso   1.00
H25    H     0.59409   0.44531   0.18621   0.00000  Uiso   1.00
H26    H     0.80267   0.05860   0.15593   0.00000  Uiso   1.00
H27    H     0.53474   0.28365   0.46620   0.00000  Uiso   1.00
H28    H     0.60306   0.64794   0.09394   0.00000  Uiso   1.00
H29    H     0.04286   0.83251   0.03011   0.00000  Uiso   1.00
H30    H     0.47787   0.30707   0.68437   0.00000  Uiso   1.00
H31    H     0.30640   0.26273   0.26991   0.00000  Uiso   1.00
H32    H     0.27436   0.44551   0.18669   0.00000  Uiso   1.00
H33    H     0.48294   0.05879   0.15640   0.00000  Uiso   1.00
H34    H     0.21501   0.28384   0.46667   0.00000  Uiso   1.00
H35    H     0.15520   0.64810   0.09431   0.00000  Uiso   1.00
H36    H     0.59499   0.83266   0.03049   0.00000  Uiso   1.00
H37    H     0.03001   0.30723   0.68475   0.00000  Uiso   1.00
O38    O     0.84644   0.76823   0.03934   0.00000  Uiso   1.00
O39    O     0.42343   0.69841   0.95562   0.00000  Uiso   1.00
O40    O     0.68218   0.32103   0.81399   0.00000  Uiso   1.00
N41    N     0.73739   0.62291   0.10547   0.00000  Uiso   1.00
N42    N     0.14858   0.86053   0.04578   0.00000  Uiso   1.00
N43    N     0.62037   0.30418   0.65746   0.00000  Uiso   1.00
N44    N     0.03448   0.62299   0.10567   0.00000  Uiso   1.00
N45    N     0.44567   0.86062   0.04598   0.00000  Uiso   1.00
N46    N     0.91747   0.30427   0.65766   0.00000  Uiso   1.00
C47    C     0.19075   0.73740   0.73043   0.00000  Uiso   1.00
C48    C     0.13796   0.63807   0.77559   0.00000  Uiso   1.00
C49    C     0.25906   0.55461   0.81369   0.00000  Uiso   1.00
C50    C     0.18359   0.47099   0.85171   0.00000  Uiso   1.00
C51    C     0.13045   0.31679   0.92190   0.00000  Uiso   1.00
C52    C     0.02463   0.84818   0.79206   0.00000  Uiso   1.00
C53    C     0.05045   0.94139   0.84399   0.00000  Uiso   1.00
C54    C     0.87956   0.03464   0.89585   0.00000  Uiso   1.00
C55    C     0.65049   0.20669   0.99155   0.00000  Uiso   1.00
C56    C     0.17021   0.72589   0.62348   0.00000  Uiso   1.00
C57    C     0.31842   0.71631   0.53367   0.00000  Uiso   1.00
C58    C     0.27009   0.70663   0.44361   0.00000  Uiso   1.00
C59    C     0.26706   0.68880   0.27756   0.00000  Uiso   1.00
C60    C     0.84136   0.73731   0.73019   0.00000  Uiso   1.00
C61    C     0.94818   0.63802   0.77546   0.00000  Uiso   1.00
C62    C     0.87250   0.55450   0.81342   0.00000  Uiso   1.00
C63    C     0.99347   0.47093   0.85157   0.00000  Uiso   1.00
C64    C     0.83486   0.84813   0.79193   0.00000  Uiso   1.00
C65    C     0.66389   0.94128   0.84372   0.00000  Uiso   1.00
C66    C     0.68944   0.03459   0.89572   0.00000  Uiso   1.00
C67    C     0.98044   0.72584   0.62335   0.00000  Uiso   1.00
C68    C     0.93186   0.71619   0.53341   0.00000  Uiso   1.00
C69    C     0.07997   0.70658   0.44348   0.00000  Uiso   1.00
H70    H     0.33849   0.73745   0.73053   0.00000  Uiso   1.00
H71    H     0.40591   0.55469   0.81379   0.00000  Uiso   1.00
H72    H     0.19733   0.94140   0.84407   0.00000  Uiso   1.00
H73    H     0.46526   0.71635   0.53380   0.00000  Uiso   1.00
H74    H     0.39694   0.35206   0.90606   0.00000  Uiso   1.00
H75    H     0.95714   0.16749   0.96989   0.00000  Uiso   1.00
H76    H     0.52213   0.69293   0.31563   0.00000  Uiso   1.00
H77    H     0.69360   0.73727   0.73009   0.00000  Uiso   1.00
H78    H     0.72564   0.55449   0.81331   0.00000  Uiso   1.00
H79    H     0.51706   0.94121   0.84360   0.00000  Uiso   1.00
H80    H     0.78499   0.71616   0.53333   0.00000  Uiso   1.00
H81    H     0.84480   0.35190   0.90569   0.00000  Uiso   1.00
H82    H     0.40501   0.16734   0.96951   0.00000  Uiso   1.00
H83    H     0.96999   0.69277   0.31525   0.00000  Uiso   1.00
O84    O     0.15356   0.23177   0.96066   0.00000  Uiso   1.00
O85    O     0.57657   0.30159   0.04438   0.00000  Uiso   1.00
O86    O     0.31782   0.67897   0.18601   0.00000  Uiso   1.00
N87    N     0.26261   0.37709   0.89453   0.00000  Uiso   1.00
N88    N     0.85142   0.13947   0.95422   0.00000  Uiso   1.00
N89    N     0.37963   0.69582   0.34254   0.00000  Uiso   1.00
N90    N     0.96552   0.37701   0.89433   0.00000  Uiso   1.00
N91    N     0.55433   0.13938   0.95402   0.00000  Uiso   1.00
N92    N     0.08253   0.69573   0.34234   0.00000  Uiso   1.00
