data_job_03523
_audit_creation_date              2018-12-19
_audit_creation_method            'Materials Studio'
_symmetry_space_group_name_H-M    'P1'
_symmetry_Int_Tables_number       1
_symmetry_cell_setting            triclinic
loop_
_symmetry_equiv_pos_as_xyz
  x,y,z
_cell_length_a                    12.9457
_cell_length_b                    20.4980
_cell_length_c                    12.3549
_cell_angle_alpha                 90.0000
_cell_angle_beta                  73.6167
_cell_angle_gamma                 90.0000
loop_
_atom_site_label
_atom_site_type_symbol
_atom_site_fract_x
_atom_site_fract_y
_atom_site_fract_z
_atom_site_U_iso_or_equiv
_atom_site_adp_type
_atom_site_occupancy
C1     C     0.95664   0.92725   0.91654   0.00000  Uiso   1.00
C2     C     0.97481   0.85397   0.92198   0.00000  Uiso   1.00
C3     C     0.98202   0.81966   0.01641   0.00000  Uiso   1.00
C4     C     0.99885   0.75284   0.00414   0.00000  Uiso   1.00
C5     C     0.02571   0.64382   0.02824   0.00000  Uiso   1.00
C6     C     0.05038   0.95304   0.82157   0.00000  Uiso   1.00
C7     C     0.12110   0.00204   0.83158   0.00000  Uiso   1.00
C8     C     0.20153   0.01862   0.73477   0.00000  Uiso   1.00
C9     C     0.34565   0.06344   0.60297   0.00000  Uiso   1.00
C10    C     0.85646   0.93524   0.87605   0.00000  Uiso   1.00
C11    C     0.76414   0.96930   0.93186   0.00000  Uiso   1.00
C12    C     0.68131   0.97092   0.88091   0.00000  Uiso   1.00
C13    C     0.52434   0.98811   0.83371   0.00000  Uiso   1.00
C14    C     0.97372   0.86960   0.72681   0.00000  Uiso   1.00
C15    C     0.98409   0.82265   0.81892   0.00000  Uiso   1.00
C16    C     0.00091   0.75587   0.80650   0.00000  Uiso   1.00
C17    C     0.00814   0.72147   0.90091   0.00000  Uiso   1.00
C18    C     0.05965   0.92173   0.71852   0.00000  Uiso   1.00
C19    C     0.13999   0.93825   0.62167   0.00000  Uiso   1.00
C20    C     0.21082   0.98725   0.63153   0.00000  Uiso   1.00
C21    C     0.86573   0.90393   0.77300   0.00000  Uiso   1.00
C22    C     0.78303   0.90550   0.72195   0.00000  Uiso   1.00
C23    C     0.69060   0.93955   0.77767   0.00000  Uiso   1.00
H24    H     0.94943   0.95163   0.99676   0.00000  Uiso   1.00
H25    H     0.97485   0.84391   0.09615   0.00000  Uiso   1.00
H26    H     0.11390   0.02626   0.91133   0.00000  Uiso   1.00
H27    H     0.75699   0.99352   0.01160   0.00000  Uiso   1.00
H28    H     0.00716   0.71067   0.16087   0.00000  Uiso   1.00
H29    H     0.30033   0.09519   0.77118   0.00000  Uiso   1.00
H30    H     0.54772   0.02615   0.98261   0.00000  Uiso   1.00
H31    H     0.98094   0.84522   0.64658   0.00000  Uiso   1.00
H32    H     0.00809   0.73165   0.72675   0.00000  Uiso   1.00
H33    H     0.14714   0.91401   0.54194   0.00000  Uiso   1.00
H34    H     0.79024   0.88127   0.64221   0.00000  Uiso   1.00
H35    H     0.03414   0.61956   0.86105   0.00000  Uiso   1.00
H36    H     0.32732   0.00408   0.47136   0.00000  Uiso   1.00
H37    H     0.57471   0.93504   0.68280   0.00000  Uiso   1.00
O38    O     0.03797   0.59233   0.07000   0.00000  Uiso   1.00
O39    O     0.42259   0.09681   0.55874   0.00000  Uiso   1.00
O40    O     0.43519   0.00623   0.83615   0.00000  Uiso   1.00
N41    N     0.00976   0.70481   0.07931   0.00000  Uiso   1.00
N42    N     0.28387   0.06431   0.71498   0.00000  Uiso   1.00
N43    N     0.58026   0.99978   0.91264   0.00000  Uiso   1.00
N44    N     0.02428   0.65578   0.91798   0.00000  Uiso   1.00
N45    N     0.29839   0.01528   0.55365   0.00000  Uiso   1.00
N46    N     0.59477   0.95075   0.75131   0.00000  Uiso   1.00
C47    C     0.45664   0.42725   0.91654   0.00000  Uiso   1.00
C48    C     0.47481   0.35397   0.92198   0.00000  Uiso   1.00
C49    C     0.48202   0.31966   0.01641   0.00000  Uiso   1.00
C50    C     0.49885   0.25284   0.00414   0.00000  Uiso   1.00
C51    C     0.52571   0.14382   0.02824   0.00000  Uiso   1.00
C52    C     0.55038   0.45304   0.82157   0.00000  Uiso   1.00
C53    C     0.62110   0.50204   0.83158   0.00000  Uiso   1.00
C54    C     0.70153   0.51862   0.73477   0.00000  Uiso   1.00
C55    C     0.84565   0.56344   0.60297   0.00000  Uiso   1.00
C56    C     0.35646   0.43524   0.87605   0.00000  Uiso   1.00
C57    C     0.26414   0.46930   0.93186   0.00000  Uiso   1.00
C58    C     0.18131   0.47092   0.88091   0.00000  Uiso   1.00
C59    C     0.02434   0.48811   0.83371   0.00000  Uiso   1.00
C60    C     0.47372   0.36960   0.72681   0.00000  Uiso   1.00
C61    C     0.48409   0.32265   0.81892   0.00000  Uiso   1.00
C62    C     0.50091   0.25587   0.80650   0.00000  Uiso   1.00
C63    C     0.50814   0.22147   0.90091   0.00000  Uiso   1.00
C64    C     0.55965   0.42173   0.71852   0.00000  Uiso   1.00
C65    C     0.63999   0.43825   0.62167   0.00000  Uiso   1.00
C66    C     0.71082   0.48725   0.63153   0.00000  Uiso   1.00
C67    C     0.36573   0.40393   0.77300   0.00000  Uiso   1.00
C68    C     0.28303   0.40550   0.72195   0.00000  Uiso   1.00
C69    C     0.19060   0.43955   0.77767   0.00000  Uiso   1.00
H70    H     0.44943   0.45163   0.99676   0.00000  Uiso   1.00
H71    H     0.47485   0.34391   0.09615   0.00000  Uiso   1.00
H72    H     0.61390   0.52626   0.91133   0.00000  Uiso   1.00
H73    H     0.25699   0.49352   0.01160   0.00000  Uiso   1.00
H74    H     0.50716   0.21067   0.16087   0.00000  Uiso   1.00
H75    H     0.80033   0.59519   0.77118   0.00000  Uiso   1.00
H76    H     0.04772   0.52615   0.98261   0.00000  Uiso   1.00
H77    H     0.48094   0.34522   0.64658   0.00000  Uiso   1.00
H78    H     0.50809   0.23165   0.72675   0.00000  Uiso   1.00
H79    H     0.64714   0.41401   0.54194   0.00000  Uiso   1.00
H80    H     0.29024   0.38127   0.64221   0.00000  Uiso   1.00
H81    H     0.53414   0.11956   0.86105   0.00000  Uiso   1.00
H82    H     0.82732   0.50408   0.47136   0.00000  Uiso   1.00
H83    H     0.07471   0.43504   0.68280   0.00000  Uiso   1.00
O84    O     0.53797   0.09233   0.07000   0.00000  Uiso   1.00
O85    O     0.92259   0.59681   0.55874   0.00000  Uiso   1.00
O86    O     0.93519   0.50623   0.83615   0.00000  Uiso   1.00
N87    N     0.50976   0.20481   0.07931   0.00000  Uiso   1.00
N88    N     0.78387   0.56431   0.71498   0.00000  Uiso   1.00
N89    N     0.08026   0.49978   0.91264   0.00000  Uiso   1.00
N90    N     0.52428   0.15578   0.91798   0.00000  Uiso   1.00
N91    N     0.79839   0.51528   0.55365   0.00000  Uiso   1.00
N92    N     0.09477   0.45075   0.75131   0.00000  Uiso   1.00
C93    C     0.95664   0.07275   0.41654   0.00000  Uiso   1.00
C94    C     0.97481   0.14603   0.42198   0.00000  Uiso   1.00
C95    C     0.98202   0.18034   0.51641   0.00000  Uiso   1.00
C96    C     0.99885   0.24716   0.50414   0.00000  Uiso   1.00
C97    C     0.02571   0.35618   0.52824   0.00000  Uiso   1.00
C98    C     0.05038   0.04696   0.32157   0.00000  Uiso   1.00
C99    C     0.12110   0.99796   0.33158   0.00000  Uiso   1.00
C100   C     0.20153   0.98138   0.23477   0.00000  Uiso   1.00
C101   C     0.34565   0.93656   0.10297   0.00000  Uiso   1.00
C102   C     0.85646   0.06476   0.37605   0.00000  Uiso   1.00
C103   C     0.76414   0.03070   0.43186   0.00000  Uiso   1.00
C104   C     0.68131   0.02908   0.38091   0.00000  Uiso   1.00
C105   C     0.52434   0.01189   0.33371   0.00000  Uiso   1.00
C106   C     0.97372   0.13040   0.22681   0.00000  Uiso   1.00
C107   C     0.98409   0.17735   0.31892   0.00000  Uiso   1.00
C108   C     0.00091   0.24413   0.30650   0.00000  Uiso   1.00
C109   C     0.00814   0.27853   0.40091   0.00000  Uiso   1.00
C110   C     0.05965   0.07827   0.21852   0.00000  Uiso   1.00
C111   C     0.13999   0.06175   0.12167   0.00000  Uiso   1.00
C112   C     0.21082   0.01275   0.13153   0.00000  Uiso   1.00
C113   C     0.86573   0.09607   0.27300   0.00000  Uiso   1.00
C114   C     0.78303   0.09450   0.22195   0.00000  Uiso   1.00
C115   C     0.69060   0.06045   0.27767   0.00000  Uiso   1.00
H116   H     0.94943   0.04837   0.49676   0.00000  Uiso   1.00
H117   H     0.97485   0.15609   0.59615   0.00000  Uiso   1.00
H118   H     0.11390   0.97374   0.41133   0.00000  Uiso   1.00
H119   H     0.75699   0.00648   0.51160   0.00000  Uiso   1.00
H120   H     0.00716   0.28933   0.66087   0.00000  Uiso   1.00
H121   H     0.30033   0.90481   0.27118   0.00000  Uiso   1.00
H122   H     0.54772   0.97385   0.48261   0.00000  Uiso   1.00
H123   H     0.98094   0.15478   0.14658   0.00000  Uiso   1.00
H124   H     0.00809   0.26835   0.22675   0.00000  Uiso   1.00
H125   H     0.14714   0.08599   0.04194   0.00000  Uiso   1.00
H126   H     0.79024   0.11873   0.14221   0.00000  Uiso   1.00
H127   H     0.03414   0.38044   0.36105   0.00000  Uiso   1.00
H128   H     0.32732   0.99592   0.97136   0.00000  Uiso   1.00
H129   H     0.57471   0.06496   0.18280   0.00000  Uiso   1.00
O130   O     0.03797   0.40767   0.57000   0.00000  Uiso   1.00
O131   O     0.42259   0.90319   0.05874   0.00000  Uiso   1.00
O132   O     0.43519   0.99377   0.33615   0.00000  Uiso   1.00
N133   N     0.00976   0.29519   0.57931   0.00000  Uiso   1.00
N134   N     0.28387   0.93569   0.21498   0.00000  Uiso   1.00
N135   N     0.58026   0.00022   0.41264   0.00000  Uiso   1.00
N136   N     0.02428   0.34422   0.41798   0.00000  Uiso   1.00
N137   N     0.29839   0.98472   0.05365   0.00000  Uiso   1.00
N138   N     0.59477   0.04925   0.25131   0.00000  Uiso   1.00
C139   C     0.45664   0.57275   0.41654   0.00000  Uiso   1.00
C140   C     0.47481   0.64603   0.42198   0.00000  Uiso   1.00
C141   C     0.48202   0.68034   0.51641   0.00000  Uiso   1.00
C142   C     0.49885   0.74716   0.50414   0.00000  Uiso   1.00
C143   C     0.52571   0.85618   0.52824   0.00000  Uiso   1.00
C144   C     0.55038   0.54696   0.32157   0.00000  Uiso   1.00
C145   C     0.62110   0.49796   0.33158   0.00000  Uiso   1.00
C146   C     0.70153   0.48138   0.23477   0.00000  Uiso   1.00
C147   C     0.84565   0.43656   0.10297   0.00000  Uiso   1.00
C148   C     0.35646   0.56476   0.37605   0.00000  Uiso   1.00
C149   C     0.26414   0.53070   0.43186   0.00000  Uiso   1.00
C150   C     0.18131   0.52908   0.38091   0.00000  Uiso   1.00
C151   C     0.02434   0.51189   0.33371   0.00000  Uiso   1.00
C152   C     0.47372   0.63040   0.22681   0.00000  Uiso   1.00
C153   C     0.48409   0.67735   0.31892   0.00000  Uiso   1.00
C154   C     0.50091   0.74413   0.30650   0.00000  Uiso   1.00
C155   C     0.50814   0.77853   0.40091   0.00000  Uiso   1.00
C156   C     0.55965   0.57827   0.21852   0.00000  Uiso   1.00
C157   C     0.63999   0.56175   0.12167   0.00000  Uiso   1.00
C158   C     0.71082   0.51275   0.13153   0.00000  Uiso   1.00
C159   C     0.36573   0.59607   0.27300   0.00000  Uiso   1.00
C160   C     0.28303   0.59450   0.22195   0.00000  Uiso   1.00
C161   C     0.19060   0.56045   0.27767   0.00000  Uiso   1.00
H162   H     0.44943   0.54837   0.49676   0.00000  Uiso   1.00
H163   H     0.47485   0.65609   0.59615   0.00000  Uiso   1.00
H164   H     0.61390   0.47374   0.41133   0.00000  Uiso   1.00
H165   H     0.25699   0.50648   0.51160   0.00000  Uiso   1.00
H166   H     0.50716   0.78933   0.66087   0.00000  Uiso   1.00
H167   H     0.80033   0.40481   0.27118   0.00000  Uiso   1.00
H168   H     0.04772   0.47385   0.48261   0.00000  Uiso   1.00
H169   H     0.48094   0.65478   0.14658   0.00000  Uiso   1.00
H170   H     0.50809   0.76835   0.22675   0.00000  Uiso   1.00
H171   H     0.64714   0.58599   0.04194   0.00000  Uiso   1.00
H172   H     0.29024   0.61873   0.14221   0.00000  Uiso   1.00
H173   H     0.53414   0.88044   0.36105   0.00000  Uiso   1.00
H174   H     0.82732   0.49592   0.97136   0.00000  Uiso   1.00
H175   H     0.07471   0.56496   0.18280   0.00000  Uiso   1.00
O176   O     0.53797   0.90767   0.57000   0.00000  Uiso   1.00
O177   O     0.92259   0.40319   0.05874   0.00000  Uiso   1.00
O178   O     0.93519   0.49377   0.33615   0.00000  Uiso   1.00
N179   N     0.50976   0.79519   0.57931   0.00000  Uiso   1.00
N180   N     0.78387   0.43569   0.21498   0.00000  Uiso   1.00
N181   N     0.08026   0.50022   0.41264   0.00000  Uiso   1.00
N182   N     0.52428   0.84422   0.41798   0.00000  Uiso   1.00
N183   N     0.79839   0.48472   0.05365   0.00000  Uiso   1.00
N184   N     0.09477   0.54925   0.25131   0.00000  Uiso   1.00
