data_job_00423
_audit_creation_date              2018-12-19
_audit_creation_method            'Materials Studio'
_symmetry_space_group_name_H-M    'P1'
_symmetry_Int_Tables_number       1
_symmetry_cell_setting            triclinic
loop_
_symmetry_equiv_pos_as_xyz
  x,y,z
_cell_length_a                    10.0522
_cell_length_b                    11.4746
_cell_length_c                    12.4549
_cell_angle_alpha                 103.6475
_cell_angle_beta                  94.8099
_cell_angle_gamma                 81.8112
loop_
_atom_site_label
_atom_site_type_symbol
_atom_site_fract_x
_atom_site_fract_y
_atom_site_fract_z
_atom_site_U_iso_or_equiv
_atom_site_adp_type
_atom_site_occupancy
C1     C     0.13231   0.59463   0.78627   0.00000  Uiso   1.00
C2     C     0.23142   0.63935   0.88160   0.00000  Uiso   1.00
C3     C     0.27881   0.58075   0.96543   0.00000  Uiso   1.00
C4     C     0.36897   0.63644   0.04500   0.00000  Uiso   1.00
C5     C     0.51656   0.68912   0.19369   0.00000  Uiso   1.00
C6     C     0.01531   0.69588   0.79140   0.00000  Uiso   1.00
C7     C     0.88100   0.68481   0.79937   0.00000  Uiso   1.00
C8     C     0.78924   0.78809   0.80300   0.00000  Uiso   1.00
C9     C     0.60130   0.92852   0.81156   0.00000  Uiso   1.00
C10    C     0.20215   0.58786   0.68051   0.00000  Uiso   1.00
C11    C     0.22491   0.48596   0.59523   0.00000  Uiso   1.00
C12    C     0.29042   0.49831   0.50549   0.00000  Uiso   1.00
C13    C     0.39258   0.47101   0.34190   0.00000  Uiso   1.00
C14    C     0.20816   0.79774   0.77852   0.00000  Uiso   1.00
C15    C     0.27261   0.74967   0.87739   0.00000  Uiso   1.00
C16    C     0.36274   0.80547   0.95686   0.00000  Uiso   1.00
C17    C     0.41026   0.74696   0.04079   0.00000  Uiso   1.00
C18    C     0.05651   0.80620   0.78719   0.00000  Uiso   1.00
C19    C     0.96492   0.90952   0.79080   0.00000  Uiso   1.00
C20    C     0.83051   0.89861   0.79878   0.00000  Uiso   1.00
C21    C     0.24335   0.69818   0.67630   0.00000  Uiso   1.00
C22    C     0.30883   0.71068   0.58667   0.00000  Uiso   1.00
C23    C     0.33169   0.60883   0.50128   0.00000  Uiso   1.00
H24    H     0.10022   0.50875   0.78954   0.00000  Uiso   1.00
H25    H     0.24689   0.49538   0.96866   0.00000  Uiso   1.00
H26    H     0.84915   0.59942   0.80261   0.00000  Uiso   1.00
H27    H     0.19301   0.40061   0.59852   0.00000  Uiso   1.00
H28    H     0.42764   0.52923   0.16541   0.00000  Uiso   1.00
H29    H     0.58897   0.74860   0.81525   0.00000  Uiso   1.00
H30    H     0.31406   0.32936   0.38488   0.00000  Uiso   1.00
H31    H     0.24023   0.88364   0.77524   0.00000  Uiso   1.00
H32    H     0.39460   0.89084   0.95358   0.00000  Uiso   1.00
H33    H     0.99684   0.99488   0.78753   0.00000  Uiso   1.00
H34    H     0.34070   0.79607   0.58344   0.00000  Uiso   1.00
H35    H     0.54752   0.85021   0.15317   0.00000  Uiso   1.00
H36    H     0.70883   0.06957   0.80301   0.00000  Uiso   1.00
H37    H     0.43393   0.65034   0.37264   0.00000  Uiso   1.00
O38    O     0.58657   0.68772   0.27688   0.00000  Uiso   1.00
O39    O     0.48625   0.97550   0.81747   0.00000  Uiso   1.00
O40    O     0.43756   0.42548   0.25283   0.00000  Uiso   1.00
N41    N     0.43469   0.60377   0.13804   0.00000  Uiso   1.00
N42    N     0.65058   0.80887   0.81069   0.00000  Uiso   1.00
N43    N     0.32845   0.41693   0.40831   0.00000  Uiso   1.00
N44    N     0.49920   0.77649   0.13146   0.00000  Uiso   1.00
N45    N     0.71508   0.98158   0.80410   0.00000  Uiso   1.00
N46    N     0.39295   0.58964   0.40172   0.00000  Uiso   1.00
C47    C     0.86769   0.40537   0.21373   0.00000  Uiso   1.00
C48    C     0.76858   0.36065   0.11840   0.00000  Uiso   1.00
C49    C     0.72119   0.41925   0.03457   0.00000  Uiso   1.00
C50    C     0.63103   0.36356   0.95500   0.00000  Uiso   1.00
C51    C     0.48344   0.31088   0.80631   0.00000  Uiso   1.00
C52    C     0.98469   0.30412   0.20860   0.00000  Uiso   1.00
C53    C     0.11900   0.31519   0.20063   0.00000  Uiso   1.00
C54    C     0.21076   0.21191   0.19700   0.00000  Uiso   1.00
C55    C     0.39870   0.07148   0.18844   0.00000  Uiso   1.00
C56    C     0.79785   0.41214   0.31949   0.00000  Uiso   1.00
C57    C     0.77509   0.51404   0.40477   0.00000  Uiso   1.00
C58    C     0.70958   0.50169   0.49451   0.00000  Uiso   1.00
C59    C     0.60742   0.52899   0.65810   0.00000  Uiso   1.00
C60    C     0.79184   0.20226   0.22148   0.00000  Uiso   1.00
C61    C     0.72739   0.25033   0.12261   0.00000  Uiso   1.00
C62    C     0.63726   0.19453   0.04314   0.00000  Uiso   1.00
C63    C     0.58974   0.25304   0.95921   0.00000  Uiso   1.00
C64    C     0.94349   0.19380   0.21281   0.00000  Uiso   1.00
C65    C     0.03508   0.09048   0.20920   0.00000  Uiso   1.00
C66    C     0.16949   0.10139   0.20122   0.00000  Uiso   1.00
C67    C     0.75665   0.30182   0.32370   0.00000  Uiso   1.00
C68    C     0.69117   0.28932   0.41333   0.00000  Uiso   1.00
C69    C     0.66831   0.39117   0.49872   0.00000  Uiso   1.00
H70    H     0.89978   0.49125   0.21046   0.00000  Uiso   1.00
H71    H     0.75311   0.50462   0.03134   0.00000  Uiso   1.00
H72    H     0.15085   0.40058   0.19739   0.00000  Uiso   1.00
H73    H     0.80699   0.59939   0.40148   0.00000  Uiso   1.00
H74    H     0.57236   0.47077   0.83459   0.00000  Uiso   1.00
H75    H     0.41103   0.25140   0.18475   0.00000  Uiso   1.00
H76    H     0.68594   0.67064   0.61512   0.00000  Uiso   1.00
H77    H     0.75977   0.11636   0.22476   0.00000  Uiso   1.00
H78    H     0.60540   0.10916   0.04642   0.00000  Uiso   1.00
H79    H     0.00316   0.00512   0.21247   0.00000  Uiso   1.00
H80    H     0.65930   0.20393   0.41656   0.00000  Uiso   1.00
H81    H     0.45248   0.14979   0.84683   0.00000  Uiso   1.00
H82    H     0.29117   0.93043   0.19699   0.00000  Uiso   1.00
H83    H     0.56607   0.34966   0.62736   0.00000  Uiso   1.00
O84    O     0.41343   0.31228   0.72312   0.00000  Uiso   1.00
O85    O     0.51375   0.02450   0.18253   0.00000  Uiso   1.00
O86    O     0.56244   0.57452   0.74717   0.00000  Uiso   1.00
N87    N     0.56531   0.39623   0.86196   0.00000  Uiso   1.00
N88    N     0.34942   0.19113   0.18931   0.00000  Uiso   1.00
N89    N     0.67155   0.58307   0.59169   0.00000  Uiso   1.00
N90    N     0.50080   0.22351   0.86854   0.00000  Uiso   1.00
N91    N     0.28492   0.01842   0.19590   0.00000  Uiso   1.00
N92    N     0.60705   0.41036   0.59828   0.00000  Uiso   1.00
