data_job_05636
_audit_creation_date              2018-12-19
_audit_creation_method            'Materials Studio'
_symmetry_space_group_name_H-M    'P1'
_symmetry_Int_Tables_number       1
_symmetry_cell_setting            triclinic
loop_
_symmetry_equiv_pos_as_xyz
  x,y,z
_cell_length_a                    15.3582
_cell_length_b                    13.6677
_cell_length_c                    26.6196
_cell_angle_alpha                 90.0000
_cell_angle_beta                  131.3884
_cell_angle_gamma                 90.0000
loop_
_atom_site_label
_atom_site_type_symbol
_atom_site_fract_x
_atom_site_fract_y
_atom_site_fract_z
_atom_site_U_iso_or_equiv
_atom_site_adp_type
_atom_site_occupancy
C1     C     0.41907   0.44541   0.33763   0.00000  Uiso   1.00
C2     C     0.33509   0.40753   0.26583   0.00000  Uiso   1.00
C3     C     0.26093   0.46452   0.20871   0.00000  Uiso   1.00
C4     C     0.19088   0.41597   0.14765   0.00000  Uiso   1.00
C5     C     0.05982   0.37264   0.03672   0.00000  Uiso   1.00
C6     C     0.38840   0.39168   0.37435   0.00000  Uiso   1.00
C7     C     0.35907   0.43535   0.40849   0.00000  Uiso   1.00
C8     C     0.33391   0.37345   0.43879   0.00000  Uiso   1.00
C9     C     0.28570   0.30551   0.49639   0.00000  Uiso   1.00
C10    C     0.53884   0.40849   0.36801   0.00000  Uiso   1.00
C11    C     0.63602   0.46629   0.39684   0.00000  Uiso   1.00
C12    C     0.73753   0.41854   0.42181   0.00000  Uiso   1.00
C13    C     0.92289   0.37670   0.46957   0.00000  Uiso   1.00
C14    C     0.42655   0.25783   0.33076   0.00000  Uiso   1.00
C15    C     0.33916   0.30564   0.26209   0.00000  Uiso   1.00
C16    C     0.26920   0.25699   0.20110   0.00000  Uiso   1.00
C17    C     0.19495   0.31390   0.14390   0.00000  Uiso   1.00
C18    C     0.39246   0.28979   0.37062   0.00000  Uiso   1.00
C19    C     0.36735   0.22781   0.40088   0.00000  Uiso   1.00
C20    C     0.33798   0.27138   0.43505   0.00000  Uiso   1.00
C21    C     0.54290   0.30660   0.36427   0.00000  Uiso   1.00
C22    C     0.64429   0.25875   0.38922   0.00000  Uiso   1.00
C23    C     0.74160   0.31646   0.41807   0.00000  Uiso   1.00
H24    H     0.41591   0.52473   0.34055   0.00000  Uiso   1.00
H25    H     0.25780   0.54337   0.21162   0.00000  Uiso   1.00
H26    H     0.35595   0.51420   0.41138   0.00000  Uiso   1.00
H27    H     0.63284   0.54513   0.39972   0.00000  Uiso   1.00
H28    H     0.08428   0.51910   0.06704   0.00000  Uiso   1.00
H29    H     0.29125   0.45759   0.48825   0.00000  Uiso   1.00
H30    H     0.87514   0.52281   0.46367   0.00000  Uiso   1.00
H31    H     0.42972   0.17850   0.32785   0.00000  Uiso   1.00
H32    H     0.27237   0.17814   0.19822   0.00000  Uiso   1.00
H33    H     0.37051   0.14897   0.39798   0.00000  Uiso   1.00
H34    H     0.64740   0.17990   0.38632   0.00000  Uiso   1.00
H35    H     0.09609   0.22266   0.05617   0.00000  Uiso   1.00
H36    H     0.30308   0.16115   0.47738   0.00000  Uiso   1.00
H37    H     0.88696   0.22638   0.45280   0.00000  Uiso   1.00
O38    O     0.98640   0.37688   0.97656   0.00000  Uiso   1.00
O39    O     0.25797   0.29619   0.52918   0.00000  Uiso   1.00
O40    O     0.02401   0.38176   0.49693   0.00000  Uiso   1.00
N41    N     0.10867   0.44938   0.08227   0.00000  Uiso   1.00
N42    N     0.30216   0.39187   0.47607   0.00000  Uiso   1.00
N43    N     0.84806   0.45285   0.45311   0.00000  Uiso   1.00
N44    N     0.11503   0.28987   0.07642   0.00000  Uiso   1.00
N45    N     0.30852   0.23236   0.47021   0.00000  Uiso   1.00
N46    N     0.85442   0.29334   0.44725   0.00000  Uiso   1.00
C47    C     0.58093   0.94541   0.16237   0.00000  Uiso   1.00
C48    C     0.66491   0.90753   0.23417   0.00000  Uiso   1.00
C49    C     0.73907   0.96452   0.29129   0.00000  Uiso   1.00
C50    C     0.80912   0.91597   0.35235   0.00000  Uiso   1.00
C51    C     0.94018   0.87264   0.46328   0.00000  Uiso   1.00
C52    C     0.61160   0.89168   0.12565   0.00000  Uiso   1.00
C53    C     0.64093   0.93535   0.09151   0.00000  Uiso   1.00
C54    C     0.66609   0.87345   0.06121   0.00000  Uiso   1.00
C55    C     0.71430   0.80551   0.00361   0.00000  Uiso   1.00
C56    C     0.46116   0.90849   0.13199   0.00000  Uiso   1.00
C57    C     0.36398   0.96629   0.10316   0.00000  Uiso   1.00
C58    C     0.26247   0.91854   0.07819   0.00000  Uiso   1.00
C59    C     0.07711   0.87670   0.03043   0.00000  Uiso   1.00
C60    C     0.57345   0.75783   0.16924   0.00000  Uiso   1.00
C61    C     0.66084   0.80564   0.23791   0.00000  Uiso   1.00
C62    C     0.73080   0.75699   0.29890   0.00000  Uiso   1.00
C63    C     0.80505   0.81390   0.35610   0.00000  Uiso   1.00
C64    C     0.60754   0.78979   0.12938   0.00000  Uiso   1.00
C65    C     0.63265   0.72781   0.09912   0.00000  Uiso   1.00
C66    C     0.66202   0.77138   0.06495   0.00000  Uiso   1.00
C67    C     0.45710   0.80660   0.13573   0.00000  Uiso   1.00
C68    C     0.35571   0.75875   0.11078   0.00000  Uiso   1.00
C69    C     0.25840   0.81646   0.08193   0.00000  Uiso   1.00
H70    H     0.58409   0.02473   0.15945   0.00000  Uiso   1.00
H71    H     0.74220   0.04337   0.28838   0.00000  Uiso   1.00
H72    H     0.64405   0.01420   0.08862   0.00000  Uiso   1.00
H73    H     0.36716   0.04513   0.10028   0.00000  Uiso   1.00
H74    H     0.91572   0.01910   0.43296   0.00000  Uiso   1.00
H75    H     0.70875   0.95759   0.01175   0.00000  Uiso   1.00
H76    H     0.12486   0.02281   0.03633   0.00000  Uiso   1.00
H77    H     0.57028   0.67850   0.17215   0.00000  Uiso   1.00
H78    H     0.72763   0.67814   0.30178   0.00000  Uiso   1.00
H79    H     0.62949   0.64897   0.10202   0.00000  Uiso   1.00
H80    H     0.35260   0.67990   0.11368   0.00000  Uiso   1.00
H81    H     0.90391   0.72266   0.44383   0.00000  Uiso   1.00
H82    H     0.69692   0.66115   0.02262   0.00000  Uiso   1.00
H83    H     0.11304   0.72638   0.04720   0.00000  Uiso   1.00
O84    O     0.01360   0.87688   0.52344   0.00000  Uiso   1.00
O85    O     0.74203   0.79619   0.97082   0.00000  Uiso   1.00
O86    O     0.97599   0.88176   0.00307   0.00000  Uiso   1.00
N87    N     0.89133   0.94938   0.41773   0.00000  Uiso   1.00
N88    N     0.69784   0.89187   0.02393   0.00000  Uiso   1.00
N89    N     0.15194   0.95285   0.04689   0.00000  Uiso   1.00
N90    N     0.88497   0.78987   0.42358   0.00000  Uiso   1.00
N91    N     0.69148   0.73236   0.02979   0.00000  Uiso   1.00
N92    N     0.14558   0.79334   0.05275   0.00000  Uiso   1.00
C93    C     0.58093   0.55459   0.66237   0.00000  Uiso   1.00
C94    C     0.66491   0.59247   0.73417   0.00000  Uiso   1.00
C95    C     0.73907   0.53548   0.79129   0.00000  Uiso   1.00
C96    C     0.80912   0.58403   0.85235   0.00000  Uiso   1.00
C97    C     0.94018   0.62736   0.96328   0.00000  Uiso   1.00
C98    C     0.61160   0.60832   0.62565   0.00000  Uiso   1.00
C99    C     0.64093   0.56465   0.59151   0.00000  Uiso   1.00
C100   C     0.66609   0.62655   0.56121   0.00000  Uiso   1.00
C101   C     0.71430   0.69449   0.50361   0.00000  Uiso   1.00
C102   C     0.46116   0.59151   0.63199   0.00000  Uiso   1.00
C103   C     0.36398   0.53371   0.60316   0.00000  Uiso   1.00
C104   C     0.26247   0.58146   0.57819   0.00000  Uiso   1.00
C105   C     0.07711   0.62330   0.53043   0.00000  Uiso   1.00
C106   C     0.57345   0.74217   0.66924   0.00000  Uiso   1.00
C107   C     0.66084   0.69436   0.73791   0.00000  Uiso   1.00
C108   C     0.73080   0.74301   0.79890   0.00000  Uiso   1.00
C109   C     0.80505   0.68610   0.85610   0.00000  Uiso   1.00
C110   C     0.60754   0.71021   0.62938   0.00000  Uiso   1.00
C111   C     0.63265   0.77219   0.59912   0.00000  Uiso   1.00
C112   C     0.66202   0.72862   0.56495   0.00000  Uiso   1.00
C113   C     0.45710   0.69340   0.63573   0.00000  Uiso   1.00
C114   C     0.35571   0.74125   0.61078   0.00000  Uiso   1.00
C115   C     0.25840   0.68354   0.58193   0.00000  Uiso   1.00
H116   H     0.58409   0.47527   0.65945   0.00000  Uiso   1.00
H117   H     0.74220   0.45663   0.78838   0.00000  Uiso   1.00
H118   H     0.64405   0.48580   0.58862   0.00000  Uiso   1.00
H119   H     0.36716   0.45487   0.60028   0.00000  Uiso   1.00
H120   H     0.91572   0.48090   0.93296   0.00000  Uiso   1.00
H121   H     0.70875   0.54241   0.51175   0.00000  Uiso   1.00
H122   H     0.12486   0.47719   0.53633   0.00000  Uiso   1.00
H123   H     0.57028   0.82150   0.67215   0.00000  Uiso   1.00
H124   H     0.72763   0.82186   0.80178   0.00000  Uiso   1.00
H125   H     0.62949   0.85103   0.60202   0.00000  Uiso   1.00
H126   H     0.35260   0.82010   0.61368   0.00000  Uiso   1.00
H127   H     0.90391   0.77734   0.94383   0.00000  Uiso   1.00
H128   H     0.69692   0.83885   0.52262   0.00000  Uiso   1.00
H129   H     0.11304   0.77362   0.54720   0.00000  Uiso   1.00
O130   O     0.01360   0.62312   0.02344   0.00000  Uiso   1.00
O131   O     0.74203   0.70381   0.47082   0.00000  Uiso   1.00
O132   O     0.97599   0.61824   0.50307   0.00000  Uiso   1.00
N133   N     0.89133   0.55062   0.91773   0.00000  Uiso   1.00
N134   N     0.69784   0.60813   0.52393   0.00000  Uiso   1.00
N135   N     0.15194   0.54715   0.54689   0.00000  Uiso   1.00
N136   N     0.88497   0.71013   0.92358   0.00000  Uiso   1.00
N137   N     0.69148   0.76764   0.52979   0.00000  Uiso   1.00
N138   N     0.14558   0.70666   0.55275   0.00000  Uiso   1.00
C139   C     0.41907   0.05459   0.83763   0.00000  Uiso   1.00
C140   C     0.33509   0.09247   0.76583   0.00000  Uiso   1.00
C141   C     0.26093   0.03548   0.70871   0.00000  Uiso   1.00
C142   C     0.19088   0.08403   0.64765   0.00000  Uiso   1.00
C143   C     0.05982   0.12736   0.53672   0.00000  Uiso   1.00
C144   C     0.38840   0.10832   0.87435   0.00000  Uiso   1.00
C145   C     0.35907   0.06465   0.90849   0.00000  Uiso   1.00
C146   C     0.33391   0.12655   0.93879   0.00000  Uiso   1.00
C147   C     0.28570   0.19449   0.99639   0.00000  Uiso   1.00
C148   C     0.53884   0.09151   0.86801   0.00000  Uiso   1.00
C149   C     0.63602   0.03371   0.89684   0.00000  Uiso   1.00
C150   C     0.73753   0.08146   0.92181   0.00000  Uiso   1.00
C151   C     0.92289   0.12330   0.96957   0.00000  Uiso   1.00
C152   C     0.42655   0.24217   0.83076   0.00000  Uiso   1.00
C153   C     0.33916   0.19436   0.76209   0.00000  Uiso   1.00
C154   C     0.26920   0.24301   0.70110   0.00000  Uiso   1.00
C155   C     0.19495   0.18610   0.64390   0.00000  Uiso   1.00
C156   C     0.39246   0.21021   0.87062   0.00000  Uiso   1.00
C157   C     0.36735   0.27219   0.90088   0.00000  Uiso   1.00
C158   C     0.33798   0.22862   0.93505   0.00000  Uiso   1.00
C159   C     0.54290   0.19340   0.86427   0.00000  Uiso   1.00
C160   C     0.64429   0.24125   0.88922   0.00000  Uiso   1.00
C161   C     0.74160   0.18354   0.91807   0.00000  Uiso   1.00
H162   H     0.41591   0.97527   0.84055   0.00000  Uiso   1.00
H163   H     0.25780   0.95663   0.71162   0.00000  Uiso   1.00
H164   H     0.35595   0.98580   0.91138   0.00000  Uiso   1.00
H165   H     0.63284   0.95487   0.89972   0.00000  Uiso   1.00
H166   H     0.08428   0.98090   0.56704   0.00000  Uiso   1.00
H167   H     0.29125   0.04241   0.98825   0.00000  Uiso   1.00
H168   H     0.87514   0.97719   0.96367   0.00000  Uiso   1.00
H169   H     0.42972   0.32150   0.82785   0.00000  Uiso   1.00
H170   H     0.27237   0.32186   0.69822   0.00000  Uiso   1.00
H171   H     0.37051   0.35103   0.89798   0.00000  Uiso   1.00
H172   H     0.64740   0.32010   0.88632   0.00000  Uiso   1.00
H173   H     0.09609   0.27734   0.55617   0.00000  Uiso   1.00
H174   H     0.30308   0.33885   0.97738   0.00000  Uiso   1.00
H175   H     0.88696   0.27362   0.95280   0.00000  Uiso   1.00
O176   O     0.98640   0.12312   0.47656   0.00000  Uiso   1.00
O177   O     0.25797   0.20381   0.02918   0.00000  Uiso   1.00
O178   O     0.02401   0.11824   0.99693   0.00000  Uiso   1.00
N179   N     0.10867   0.05062   0.58227   0.00000  Uiso   1.00
N180   N     0.30216   0.10813   0.97607   0.00000  Uiso   1.00
N181   N     0.84806   0.04715   0.95311   0.00000  Uiso   1.00
N182   N     0.11503   0.21013   0.57642   0.00000  Uiso   1.00
N183   N     0.30852   0.26764   0.97021   0.00000  Uiso   1.00
N184   N     0.85442   0.20666   0.94725   0.00000  Uiso   1.00
