data_job_05484
_audit_creation_date              2018-12-19
_audit_creation_method            'Materials Studio'
_symmetry_space_group_name_H-M    'P1'
_symmetry_Int_Tables_number       1
_symmetry_cell_setting            triclinic
loop_
_symmetry_equiv_pos_as_xyz
  x,y,z
_cell_length_a                    22.7723
_cell_length_b                    22.7723
_cell_length_c                    12.4561
_cell_angle_alpha                 90.0000
_cell_angle_beta                  90.0000
_cell_angle_gamma                 120.0000
loop_
_atom_site_label
_atom_site_type_symbol
_atom_site_fract_x
_atom_site_fract_y
_atom_site_fract_z
_atom_site_U_iso_or_equiv
_atom_site_adp_type
_atom_site_occupancy
C1     C     0.63755   0.86890   0.03089   0.00000  Uiso   1.00
C2     C     0.60673   0.79222   0.02313   0.00000  Uiso   1.00
C3     C     0.53946   0.74431   0.04288   0.00000  Uiso   1.00
C4     C     0.52127   0.67665   0.03145   0.00000  Uiso   1.00
C5     C     0.46621   0.56048   0.02403   0.00000  Uiso   1.00
C6     C     0.69633   0.89333   0.10990   0.00000  Uiso   1.00
C7     C     0.70441   0.93045   0.20260   0.00000  Uiso   1.00
C8     C     0.76166   0.94792   0.26419   0.00000  Uiso   1.00
C9     C     0.84574   0.98877   0.39144   0.00000  Uiso   1.00
C10    C     0.66941   0.89717   0.92165   0.00000  Uiso   1.00
C11    C     0.65487   0.93753   0.85608   0.00000  Uiso   1.00
C12    C     0.68946   0.95824   0.75919   0.00000  Uiso   1.00
C13    C     0.73174   0.00505   0.59417   0.00000  Uiso   1.00
C14    C     0.72485   0.83392   0.97544   0.00000  Uiso   1.00
C15    C     0.65415   0.77322   0.99302   0.00000  Uiso   1.00
C16    C     0.63605   0.70562   0.98154   0.00000  Uiso   1.00
C17    C     0.56877   0.65762   0.00127   0.00000  Uiso   1.00
C18    C     0.74375   0.87434   0.07979   0.00000  Uiso   1.00
C19    C     0.80100   0.89175   0.14125   0.00000  Uiso   1.00
C20    C     0.80917   0.92889   0.23402   0.00000  Uiso   1.00
C21    C     0.71683   0.87817   0.89153   0.00000  Uiso   1.00
C22    C     0.75146   0.89883   0.79474   0.00000  Uiso   1.00
C23    C     0.73697   0.93921   0.72903   0.00000  Uiso   1.00
H24    H     0.60063   0.88369   0.05434   0.00000  Uiso   1.00
H25    H     0.50278   0.75904   0.06620   0.00000  Uiso   1.00
H26    H     0.66771   0.94515   0.22587   0.00000  Uiso   1.00
H27    H     0.61817   0.95222   0.87941   0.00000  Uiso   1.00
H28    H     0.41521   0.61246   0.06610   0.00000  Uiso   1.00
H29    H     0.76299   0.00491   0.40277   0.00000  Uiso   1.00
H30    H     0.65852   0.01983   0.67219   0.00000  Uiso   1.00
H31    H     0.76177   0.81913   0.95200   0.00000  Uiso   1.00
H32    H     0.67276   0.69093   0.95823   0.00000  Uiso   1.00
H33    H     0.83769   0.87705   0.11792   0.00000  Uiso   1.00
H34    H     0.78815   0.88412   0.77146   0.00000  Uiso   1.00
H35    H     0.55318   0.55718   0.97848   0.00000  Uiso   1.00
H36    H     0.90095   0.94964   0.31515   0.00000  Uiso   1.00
H37    H     0.79649   0.96455   0.58457   0.00000  Uiso   1.00
O38    O     0.42274   0.50165   0.02828   0.00000  Uiso   1.00
O39    O     0.87901   0.01655   0.46996   0.00000  Uiso   1.00
O40    O     0.74195   0.03611   0.51146   0.00000  Uiso   1.00
N41    N     0.45989   0.61704   0.04460   0.00000  Uiso   1.00
N42    N     0.78504   0.98395   0.35938   0.00000  Uiso   1.00
N43    N     0.68739   0.99791   0.67636   0.00000  Uiso   1.00
N44    N     0.53413   0.58730   0.99745   0.00000  Uiso   1.00
N45    N     0.85928   0.95421   0.31223   0.00000  Uiso   1.00
N46    N     0.76162   0.96817   0.62921   0.00000  Uiso   1.00
C47    C     0.13110   0.76865   0.03089   0.00000  Uiso   1.00
C48    C     0.20778   0.81451   0.02313   0.00000  Uiso   1.00
C49    C     0.25569   0.79515   0.04288   0.00000  Uiso   1.00
C50    C     0.32335   0.84461   0.03145   0.00000  Uiso   1.00
C51    C     0.43952   0.90573   0.02403   0.00000  Uiso   1.00
C52    C     0.10667   0.80300   0.10990   0.00000  Uiso   1.00
C53    C     0.06955   0.77396   0.20260   0.00000  Uiso   1.00
C54    C     0.05208   0.81374   0.26419   0.00000  Uiso   1.00
C55    C     0.01123   0.85697   0.39144   0.00000  Uiso   1.00
C56    C     0.10283   0.77224   0.92165   0.00000  Uiso   1.00
C57    C     0.06247   0.71734   0.85608   0.00000  Uiso   1.00
C58    C     0.04176   0.73122   0.75919   0.00000  Uiso   1.00
C59    C     0.99495   0.72669   0.59417   0.00000  Uiso   1.00
C60    C     0.16608   0.89093   0.97544   0.00000  Uiso   1.00
C61    C     0.22678   0.88093   0.99302   0.00000  Uiso   1.00
C62    C     0.29438   0.93044   0.98154   0.00000  Uiso   1.00
C63    C     0.34238   0.91115   0.00127   0.00000  Uiso   1.00
C64    C     0.12566   0.86942   0.07979   0.00000  Uiso   1.00
C65    C     0.10825   0.90925   0.14125   0.00000  Uiso   1.00
C66    C     0.07111   0.88028   0.23402   0.00000  Uiso   1.00
C67    C     0.12183   0.83866   0.89153   0.00000  Uiso   1.00
C68    C     0.10117   0.85263   0.79474   0.00000  Uiso   1.00
C69    C     0.06079   0.79776   0.72903   0.00000  Uiso   1.00
H70    H     0.11631   0.71694   0.05434   0.00000  Uiso   1.00
H71    H     0.24096   0.74374   0.06620   0.00000  Uiso   1.00
H72    H     0.05485   0.72256   0.22587   0.00000  Uiso   1.00
H73    H     0.04778   0.66595   0.87941   0.00000  Uiso   1.00
H74    H     0.38754   0.80275   0.06610   0.00000  Uiso   1.00
H75    H     0.99509   0.75808   0.40277   0.00000  Uiso   1.00
H76    H     0.98017   0.63870   0.67219   0.00000  Uiso   1.00
H77    H     0.18087   0.94264   0.95200   0.00000  Uiso   1.00
H78    H     0.30907   0.98183   0.95823   0.00000  Uiso   1.00
H79    H     0.12295   0.96065   0.11792   0.00000  Uiso   1.00
H80    H     0.11588   0.90403   0.77146   0.00000  Uiso   1.00
H81    H     0.44282   0.99600   0.97848   0.00000  Uiso   1.00
H82    H     0.05036   0.95132   0.31515   0.00000  Uiso   1.00
H83    H     0.03545   0.83194   0.58457   0.00000  Uiso   1.00
O84    O     0.49835   0.92109   0.02828   0.00000  Uiso   1.00
O85    O     0.98345   0.86246   0.46996   0.00000  Uiso   1.00
O86    O     0.96389   0.70584   0.51146   0.00000  Uiso   1.00
N87    N     0.38296   0.84285   0.04460   0.00000  Uiso   1.00
N88    N     0.01605   0.80108   0.35938   0.00000  Uiso   1.00
N89    N     0.00209   0.68947   0.67636   0.00000  Uiso   1.00
N90    N     0.41270   0.94683   0.99745   0.00000  Uiso   1.00
N91    N     0.04579   0.90507   0.31223   0.00000  Uiso   1.00
N92    N     0.03183   0.79345   0.62921   0.00000  Uiso   1.00
C93    C     0.23135   0.36245   0.03089   0.00000  Uiso   1.00
C94    C     0.18549   0.39327   0.02313   0.00000  Uiso   1.00
C95    C     0.20485   0.46054   0.04288   0.00000  Uiso   1.00
C96    C     0.15539   0.47873   0.03145   0.00000  Uiso   1.00
C97    C     0.09427   0.53379   0.02403   0.00000  Uiso   1.00
C98    C     0.19700   0.30367   0.10990   0.00000  Uiso   1.00
C99    C     0.22604   0.29559   0.20260   0.00000  Uiso   1.00
C100   C     0.18626   0.23834   0.26419   0.00000  Uiso   1.00
C101   C     0.14303   0.15426   0.39144   0.00000  Uiso   1.00
C102   C     0.22776   0.33059   0.92165   0.00000  Uiso   1.00
C103   C     0.28266   0.34513   0.85608   0.00000  Uiso   1.00
C104   C     0.26878   0.31054   0.75919   0.00000  Uiso   1.00
C105   C     0.27331   0.26826   0.59417   0.00000  Uiso   1.00
C106   C     0.10907   0.27515   0.97544   0.00000  Uiso   1.00
C107   C     0.11907   0.34585   0.99302   0.00000  Uiso   1.00
C108   C     0.06956   0.36395   0.98154   0.00000  Uiso   1.00
C109   C     0.08885   0.43123   0.00127   0.00000  Uiso   1.00
C110   C     0.13058   0.25625   0.07979   0.00000  Uiso   1.00
C111   C     0.09075   0.19900   0.14125   0.00000  Uiso   1.00
C112   C     0.11972   0.19083   0.23402   0.00000  Uiso   1.00
C113   C     0.16134   0.28317   0.89153   0.00000  Uiso   1.00
C114   C     0.14737   0.24854   0.79474   0.00000  Uiso   1.00
C115   C     0.20224   0.26303   0.72903   0.00000  Uiso   1.00
H116   H     0.28306   0.39937   0.05434   0.00000  Uiso   1.00
H117   H     0.25626   0.49722   0.06620   0.00000  Uiso   1.00
H118   H     0.27744   0.33229   0.22587   0.00000  Uiso   1.00
H119   H     0.33405   0.38183   0.87941   0.00000  Uiso   1.00
H120   H     0.19725   0.58479   0.06610   0.00000  Uiso   1.00
H121   H     0.24192   0.23701   0.40277   0.00000  Uiso   1.00
H122   H     0.36130   0.34148   0.67219   0.00000  Uiso   1.00
H123   H     0.05736   0.23823   0.95200   0.00000  Uiso   1.00
H124   H     0.01817   0.32724   0.95823   0.00000  Uiso   1.00
H125   H     0.03935   0.16231   0.11792   0.00000  Uiso   1.00
H126   H     0.09597   0.21185   0.77146   0.00000  Uiso   1.00
H127   H     0.00400   0.44682   0.97848   0.00000  Uiso   1.00
H128   H     0.04868   0.09905   0.31515   0.00000  Uiso   1.00
H129   H     0.16806   0.20351   0.58457   0.00000  Uiso   1.00
O130   O     0.07891   0.57726   0.02828   0.00000  Uiso   1.00
O131   O     0.13754   0.12099   0.46996   0.00000  Uiso   1.00
O132   O     0.29416   0.25805   0.51146   0.00000  Uiso   1.00
N133   N     0.15715   0.54011   0.04460   0.00000  Uiso   1.00
N134   N     0.19892   0.21496   0.35938   0.00000  Uiso   1.00
N135   N     0.31053   0.31261   0.67636   0.00000  Uiso   1.00
N136   N     0.05317   0.46587   0.99745   0.00000  Uiso   1.00
N137   N     0.09493   0.14072   0.31223   0.00000  Uiso   1.00
N138   N     0.20655   0.23838   0.62921   0.00000  Uiso   1.00
C139   C     0.36245   0.13110   0.96911   0.00000  Uiso   1.00
C140   C     0.39327   0.20778   0.97687   0.00000  Uiso   1.00
C141   C     0.46054   0.25569   0.95712   0.00000  Uiso   1.00
C142   C     0.47873   0.32335   0.96855   0.00000  Uiso   1.00
C143   C     0.53379   0.43952   0.97597   0.00000  Uiso   1.00
C144   C     0.30367   0.10667   0.89010   0.00000  Uiso   1.00
C145   C     0.29559   0.06955   0.79740   0.00000  Uiso   1.00
C146   C     0.23834   0.05208   0.73581   0.00000  Uiso   1.00
C147   C     0.15426   0.01123   0.60856   0.00000  Uiso   1.00
C148   C     0.33059   0.10283   0.07835   0.00000  Uiso   1.00
C149   C     0.34513   0.06247   0.14392   0.00000  Uiso   1.00
C150   C     0.31054   0.04176   0.24081   0.00000  Uiso   1.00
C151   C     0.26826   0.99495   0.40583   0.00000  Uiso   1.00
C152   C     0.27515   0.16608   0.02456   0.00000  Uiso   1.00
C153   C     0.34585   0.22678   0.00698   0.00000  Uiso   1.00
C154   C     0.36395   0.29438   0.01846   0.00000  Uiso   1.00
C155   C     0.43123   0.34238   0.99873   0.00000  Uiso   1.00
C156   C     0.25625   0.12566   0.92021   0.00000  Uiso   1.00
C157   C     0.19900   0.10825   0.85875   0.00000  Uiso   1.00
C158   C     0.19083   0.07111   0.76598   0.00000  Uiso   1.00
C159   C     0.28317   0.12183   0.10847   0.00000  Uiso   1.00
C160   C     0.24854   0.10117   0.20526   0.00000  Uiso   1.00
C161   C     0.26303   0.06079   0.27097   0.00000  Uiso   1.00
H162   H     0.39937   0.11631   0.94566   0.00000  Uiso   1.00
H163   H     0.49722   0.24096   0.93380   0.00000  Uiso   1.00
H164   H     0.33229   0.05485   0.77413   0.00000  Uiso   1.00
H165   H     0.38183   0.04778   0.12059   0.00000  Uiso   1.00
H166   H     0.58479   0.38754   0.93390   0.00000  Uiso   1.00
H167   H     0.23701   0.99509   0.59723   0.00000  Uiso   1.00
H168   H     0.34148   0.98017   0.32781   0.00000  Uiso   1.00
H169   H     0.23823   0.18087   0.04800   0.00000  Uiso   1.00
H170   H     0.32724   0.30907   0.04177   0.00000  Uiso   1.00
H171   H     0.16231   0.12295   0.88208   0.00000  Uiso   1.00
H172   H     0.21185   0.11588   0.22854   0.00000  Uiso   1.00
H173   H     0.44682   0.44282   0.02152   0.00000  Uiso   1.00
H174   H     0.09905   0.05036   0.68485   0.00000  Uiso   1.00
H175   H     0.20351   0.03545   0.41543   0.00000  Uiso   1.00
O176   O     0.57726   0.49835   0.97172   0.00000  Uiso   1.00
O177   O     0.12099   0.98345   0.53004   0.00000  Uiso   1.00
O178   O     0.25805   0.96389   0.48854   0.00000  Uiso   1.00
N179   N     0.54011   0.38296   0.95540   0.00000  Uiso   1.00
N180   N     0.21496   0.01605   0.64062   0.00000  Uiso   1.00
N181   N     0.31261   0.00209   0.32364   0.00000  Uiso   1.00
N182   N     0.46587   0.41270   0.00255   0.00000  Uiso   1.00
N183   N     0.14072   0.04579   0.68777   0.00000  Uiso   1.00
N184   N     0.23838   0.03183   0.37079   0.00000  Uiso   1.00
C185   C     0.86890   0.23135   0.96911   0.00000  Uiso   1.00
C186   C     0.79222   0.18549   0.97687   0.00000  Uiso   1.00
C187   C     0.74431   0.20485   0.95712   0.00000  Uiso   1.00
C188   C     0.67665   0.15539   0.96855   0.00000  Uiso   1.00
C189   C     0.56048   0.09427   0.97597   0.00000  Uiso   1.00
C190   C     0.89333   0.19700   0.89010   0.00000  Uiso   1.00
C191   C     0.93045   0.22604   0.79740   0.00000  Uiso   1.00
C192   C     0.94792   0.18626   0.73581   0.00000  Uiso   1.00
C193   C     0.98877   0.14303   0.60856   0.00000  Uiso   1.00
C194   C     0.89717   0.22776   0.07835   0.00000  Uiso   1.00
C195   C     0.93753   0.28266   0.14392   0.00000  Uiso   1.00
C196   C     0.95824   0.26878   0.24081   0.00000  Uiso   1.00
C197   C     0.00505   0.27331   0.40583   0.00000  Uiso   1.00
C198   C     0.83392   0.10907   0.02456   0.00000  Uiso   1.00
C199   C     0.77322   0.11907   0.00698   0.00000  Uiso   1.00
C200   C     0.70562   0.06956   0.01846   0.00000  Uiso   1.00
C201   C     0.65762   0.08885   0.99873   0.00000  Uiso   1.00
C202   C     0.87434   0.13058   0.92021   0.00000  Uiso   1.00
C203   C     0.89175   0.09075   0.85875   0.00000  Uiso   1.00
C204   C     0.92889   0.11972   0.76598   0.00000  Uiso   1.00
C205   C     0.87817   0.16134   0.10847   0.00000  Uiso   1.00
C206   C     0.89883   0.14737   0.20526   0.00000  Uiso   1.00
C207   C     0.93921   0.20224   0.27097   0.00000  Uiso   1.00
H208   H     0.88369   0.28306   0.94566   0.00000  Uiso   1.00
H209   H     0.75904   0.25626   0.93380   0.00000  Uiso   1.00
H210   H     0.94515   0.27744   0.77413   0.00000  Uiso   1.00
H211   H     0.95222   0.33405   0.12059   0.00000  Uiso   1.00
H212   H     0.61246   0.19725   0.93390   0.00000  Uiso   1.00
H213   H     0.00491   0.24192   0.59723   0.00000  Uiso   1.00
H214   H     0.01983   0.36130   0.32781   0.00000  Uiso   1.00
H215   H     0.81913   0.05736   0.04800   0.00000  Uiso   1.00
H216   H     0.69093   0.01817   0.04177   0.00000  Uiso   1.00
H217   H     0.87705   0.03935   0.88208   0.00000  Uiso   1.00
H218   H     0.88412   0.09597   0.22854   0.00000  Uiso   1.00
H219   H     0.55718   0.00400   0.02152   0.00000  Uiso   1.00
H220   H     0.94964   0.04868   0.68485   0.00000  Uiso   1.00
H221   H     0.96455   0.16806   0.41543   0.00000  Uiso   1.00
O222   O     0.50165   0.07891   0.97172   0.00000  Uiso   1.00
O223   O     0.01655   0.13754   0.53004   0.00000  Uiso   1.00
O224   O     0.03611   0.29416   0.48854   0.00000  Uiso   1.00
N225   N     0.61704   0.15715   0.95540   0.00000  Uiso   1.00
N226   N     0.98395   0.19892   0.64062   0.00000  Uiso   1.00
N227   N     0.99791   0.31053   0.32364   0.00000  Uiso   1.00
N228   N     0.58730   0.05317   0.00255   0.00000  Uiso   1.00
N229   N     0.95421   0.09493   0.68777   0.00000  Uiso   1.00
N230   N     0.96817   0.20655   0.37079   0.00000  Uiso   1.00
C231   C     0.76865   0.63755   0.96911   0.00000  Uiso   1.00
C232   C     0.81451   0.60673   0.97687   0.00000  Uiso   1.00
C233   C     0.79515   0.53946   0.95712   0.00000  Uiso   1.00
C234   C     0.84461   0.52127   0.96855   0.00000  Uiso   1.00
C235   C     0.90573   0.46621   0.97597   0.00000  Uiso   1.00
C236   C     0.80300   0.69633   0.89010   0.00000  Uiso   1.00
C237   C     0.77396   0.70441   0.79740   0.00000  Uiso   1.00
C238   C     0.81374   0.76166   0.73581   0.00000  Uiso   1.00
C239   C     0.85697   0.84574   0.60856   0.00000  Uiso   1.00
C240   C     0.77224   0.66941   0.07835   0.00000  Uiso   1.00
C241   C     0.71734   0.65487   0.14392   0.00000  Uiso   1.00
C242   C     0.73122   0.68946   0.24081   0.00000  Uiso   1.00
C243   C     0.72669   0.73174   0.40583   0.00000  Uiso   1.00
C244   C     0.89093   0.72485   0.02456   0.00000  Uiso   1.00
C245   C     0.88093   0.65415   0.00698   0.00000  Uiso   1.00
C246   C     0.93044   0.63605   0.01846   0.00000  Uiso   1.00
C247   C     0.91115   0.56877   0.99873   0.00000  Uiso   1.00
C248   C     0.86942   0.74375   0.92021   0.00000  Uiso   1.00
C249   C     0.90925   0.80100   0.85875   0.00000  Uiso   1.00
C250   C     0.88028   0.80917   0.76598   0.00000  Uiso   1.00
C251   C     0.83866   0.71683   0.10847   0.00000  Uiso   1.00
C252   C     0.85263   0.75146   0.20526   0.00000  Uiso   1.00
C253   C     0.79776   0.73697   0.27097   0.00000  Uiso   1.00
H254   H     0.71694   0.60063   0.94566   0.00000  Uiso   1.00
H255   H     0.74374   0.50278   0.93380   0.00000  Uiso   1.00
H256   H     0.72256   0.66771   0.77413   0.00000  Uiso   1.00
H257   H     0.66595   0.61817   0.12059   0.00000  Uiso   1.00
H258   H     0.80275   0.41521   0.93390   0.00000  Uiso   1.00
H259   H     0.75808   0.76299   0.59723   0.00000  Uiso   1.00
H260   H     0.63870   0.65852   0.32781   0.00000  Uiso   1.00
H261   H     0.94264   0.76177   0.04800   0.00000  Uiso   1.00
H262   H     0.98183   0.67276   0.04177   0.00000  Uiso   1.00
H263   H     0.96065   0.83769   0.88208   0.00000  Uiso   1.00
H264   H     0.90403   0.78815   0.22854   0.00000  Uiso   1.00
H265   H     0.99600   0.55318   0.02152   0.00000  Uiso   1.00
H266   H     0.95132   0.90095   0.68485   0.00000  Uiso   1.00
H267   H     0.83194   0.79649   0.41543   0.00000  Uiso   1.00
O268   O     0.92109   0.42274   0.97172   0.00000  Uiso   1.00
O269   O     0.86246   0.87901   0.53004   0.00000  Uiso   1.00
O270   O     0.70584   0.74195   0.48854   0.00000  Uiso   1.00
N271   N     0.84285   0.45989   0.95540   0.00000  Uiso   1.00
N272   N     0.80108   0.78504   0.64062   0.00000  Uiso   1.00
N273   N     0.68947   0.68739   0.32364   0.00000  Uiso   1.00
N274   N     0.94683   0.53413   0.00255   0.00000  Uiso   1.00
N275   N     0.90507   0.85928   0.68777   0.00000  Uiso   1.00
N276   N     0.79345   0.76162   0.37079   0.00000  Uiso   1.00
