data_job_03832
_audit_creation_date              2018-12-19
_audit_creation_method            'Materials Studio'
_symmetry_space_group_name_H-M    'P1'
_symmetry_Int_Tables_number       1
_symmetry_cell_setting            triclinic
loop_
_symmetry_equiv_pos_as_xyz
  x,y,z
_cell_length_a                    20.6799
_cell_length_b                    14.0697
_cell_length_c                    32.0324
_cell_angle_alpha                 90.0000
_cell_angle_beta                  90.0000
_cell_angle_gamma                 90.0000
loop_
_atom_site_label
_atom_site_type_symbol
_atom_site_fract_x
_atom_site_fract_y
_atom_site_fract_z
_atom_site_U_iso_or_equiv
_atom_site_adp_type
_atom_site_occupancy
C1     C     0.68790   0.13032   0.60173   0.00000  Uiso   1.00
C2     C     0.72362   0.07580   0.63581   0.00000  Uiso   1.00
C3     C     0.75381   0.98840   0.63099   0.00000  Uiso   1.00
C4     C     0.78387   0.95030   0.66595   0.00000  Uiso   1.00
C5     C     0.83939   0.85843   0.71301   0.00000  Uiso   1.00
C6     C     0.72002   0.22773   0.59940   0.00000  Uiso   1.00
C7     C     0.74717   0.26808   0.56396   0.00000  Uiso   1.00
C8     C     0.77419   0.35789   0.56827   0.00000  Uiso   1.00
C9     C     0.82407   0.50192   0.55880   0.00000  Uiso   1.00
C10    C     0.61984   0.14756   0.61841   0.00000  Uiso   1.00
C11    C     0.56276   0.12052   0.59896   0.00000  Uiso   1.00
C12    C     0.50543   0.14285   0.61927   0.00000  Uiso   1.00
C13    C     0.39978   0.16240   0.63933   0.00000  Uiso   1.00
C14    C     0.68757   0.21808   0.67239   0.00000  Uiso   1.00
C15    C     0.72344   0.12347   0.67419   0.00000  Uiso   1.00
C16    C     0.75345   0.08549   0.70916   0.00000  Uiso   1.00
C17    C     0.78369   0.99805   0.70440   0.00000  Uiso   1.00
C18    C     0.71984   0.27540   0.63777   0.00000  Uiso   1.00
C19    C     0.74681   0.36517   0.64214   0.00000  Uiso   1.00
C20    C     0.77401   0.40564   0.60672   0.00000  Uiso   1.00
C21    C     0.61966   0.19523   0.65679   0.00000  Uiso   1.00
C22    C     0.56240   0.21761   0.67714   0.00000  Uiso   1.00
C23    C     0.50525   0.19061   0.65772   0.00000  Uiso   1.00
H24    H     0.68804   0.09321   0.57185   0.00000  Uiso   1.00
H25    H     0.75395   0.95154   0.60128   0.00000  Uiso   1.00
H26    H     0.74730   0.23118   0.53426   0.00000  Uiso   1.00
H27    H     0.56292   0.08364   0.56926   0.00000  Uiso   1.00
H28    H     0.82696   0.81551   0.65083   0.00000  Uiso   1.00
H29    H     0.81293   0.40516   0.50952   0.00000  Uiso   1.00
H30    H     0.42413   0.09404   0.58331   0.00000  Uiso   1.00
H31    H     0.68743   0.25519   0.70227   0.00000  Uiso   1.00
H32    H     0.75331   0.12240   0.73886   0.00000  Uiso   1.00
H33    H     0.74666   0.40204   0.67184   0.00000  Uiso   1.00
H34    H     0.56228   0.25450   0.70684   0.00000  Uiso   1.00
H35    H     0.82644   0.95419   0.76249   0.00000  Uiso   1.00
H36    H     0.81241   0.54384   0.62118   0.00000  Uiso   1.00
H37    H     0.42361   0.23272   0.69498   0.00000  Uiso   1.00
O38    O     0.87007   0.79459   0.72837   0.00000  Uiso   1.00
O39    O     0.85165   0.56819   0.54298   0.00000  Uiso   1.00
O40    O     0.34155   0.16001   0.63979   0.00000  Uiso   1.00
N41    N     0.81779   0.86636   0.67209   0.00000  Uiso   1.00
N42    N     0.80468   0.41764   0.53997   0.00000  Uiso   1.00
N43    N     0.44118   0.12679   0.60896   0.00000  Uiso   1.00
N44    N     0.81751   0.94098   0.73217   0.00000  Uiso   1.00
N45    N     0.80440   0.49226   0.60006   0.00000  Uiso   1.00
N46    N     0.44090   0.20142   0.66904   0.00000  Uiso   1.00
C47    C     0.18790   0.63032   0.60173   0.00000  Uiso   1.00
C48    C     0.22362   0.57580   0.63581   0.00000  Uiso   1.00
C49    C     0.25381   0.48840   0.63099   0.00000  Uiso   1.00
C50    C     0.28387   0.45030   0.66595   0.00000  Uiso   1.00
C51    C     0.33939   0.35843   0.71301   0.00000  Uiso   1.00
C52    C     0.22002   0.72773   0.59940   0.00000  Uiso   1.00
C53    C     0.24717   0.76808   0.56396   0.00000  Uiso   1.00
C54    C     0.27419   0.85789   0.56827   0.00000  Uiso   1.00
C55    C     0.32407   0.00192   0.55880   0.00000  Uiso   1.00
C56    C     0.11984   0.64756   0.61841   0.00000  Uiso   1.00
C57    C     0.06276   0.62052   0.59896   0.00000  Uiso   1.00
C58    C     0.00543   0.64285   0.61927   0.00000  Uiso   1.00
C59    C     0.89978   0.66240   0.63933   0.00000  Uiso   1.00
C60    C     0.18757   0.71808   0.67239   0.00000  Uiso   1.00
C61    C     0.22344   0.62347   0.67419   0.00000  Uiso   1.00
C62    C     0.25345   0.58549   0.70916   0.00000  Uiso   1.00
C63    C     0.28369   0.49805   0.70440   0.00000  Uiso   1.00
C64    C     0.21984   0.77540   0.63777   0.00000  Uiso   1.00
C65    C     0.24681   0.86517   0.64214   0.00000  Uiso   1.00
C66    C     0.27401   0.90564   0.60672   0.00000  Uiso   1.00
C67    C     0.11966   0.69523   0.65679   0.00000  Uiso   1.00
C68    C     0.06240   0.71761   0.67714   0.00000  Uiso   1.00
C69    C     0.00525   0.69061   0.65772   0.00000  Uiso   1.00
H70    H     0.18804   0.59321   0.57185   0.00000  Uiso   1.00
H71    H     0.25395   0.45154   0.60128   0.00000  Uiso   1.00
H72    H     0.24730   0.73118   0.53426   0.00000  Uiso   1.00
H73    H     0.06292   0.58364   0.56926   0.00000  Uiso   1.00
H74    H     0.32696   0.31551   0.65083   0.00000  Uiso   1.00
H75    H     0.31293   0.90516   0.50952   0.00000  Uiso   1.00
H76    H     0.92413   0.59404   0.58331   0.00000  Uiso   1.00
H77    H     0.18743   0.75519   0.70227   0.00000  Uiso   1.00
H78    H     0.25331   0.62240   0.73886   0.00000  Uiso   1.00
H79    H     0.24666   0.90204   0.67184   0.00000  Uiso   1.00
H80    H     0.06228   0.75450   0.70684   0.00000  Uiso   1.00
H81    H     0.32644   0.45419   0.76249   0.00000  Uiso   1.00
H82    H     0.31241   0.04384   0.62118   0.00000  Uiso   1.00
H83    H     0.92361   0.73272   0.69498   0.00000  Uiso   1.00
O84    O     0.37007   0.29459   0.72837   0.00000  Uiso   1.00
O85    O     0.35165   0.06819   0.54298   0.00000  Uiso   1.00
O86    O     0.84155   0.66001   0.63979   0.00000  Uiso   1.00
N87    N     0.31779   0.36636   0.67209   0.00000  Uiso   1.00
N88    N     0.30468   0.91764   0.53997   0.00000  Uiso   1.00
N89    N     0.94118   0.62679   0.60896   0.00000  Uiso   1.00
N90    N     0.31751   0.44098   0.73217   0.00000  Uiso   1.00
N91    N     0.30440   0.99226   0.60006   0.00000  Uiso   1.00
N92    N     0.94090   0.70142   0.66904   0.00000  Uiso   1.00
C93    C     0.31210   0.86968   0.10173   0.00000  Uiso   1.00
C94    C     0.27638   0.92420   0.13581   0.00000  Uiso   1.00
C95    C     0.24619   0.01160   0.13099   0.00000  Uiso   1.00
C96    C     0.21613   0.04970   0.16595   0.00000  Uiso   1.00
C97    C     0.16061   0.14157   0.21301   0.00000  Uiso   1.00
C98    C     0.27998   0.77227   0.09940   0.00000  Uiso   1.00
C99    C     0.25283   0.73192   0.06396   0.00000  Uiso   1.00
C100   C     0.22581   0.64211   0.06827   0.00000  Uiso   1.00
C101   C     0.17593   0.49808   0.05880   0.00000  Uiso   1.00
C102   C     0.38016   0.85244   0.11841   0.00000  Uiso   1.00
C103   C     0.43724   0.87948   0.09896   0.00000  Uiso   1.00
C104   C     0.49457   0.85715   0.11927   0.00000  Uiso   1.00
C105   C     0.60022   0.83760   0.13933   0.00000  Uiso   1.00
C106   C     0.31243   0.78192   0.17239   0.00000  Uiso   1.00
C107   C     0.27656   0.87653   0.17419   0.00000  Uiso   1.00
C108   C     0.24655   0.91451   0.20916   0.00000  Uiso   1.00
C109   C     0.21631   0.00195   0.20440   0.00000  Uiso   1.00
C110   C     0.28016   0.72460   0.13777   0.00000  Uiso   1.00
C111   C     0.25319   0.63483   0.14214   0.00000  Uiso   1.00
C112   C     0.22599   0.59436   0.10672   0.00000  Uiso   1.00
C113   C     0.38034   0.80477   0.15679   0.00000  Uiso   1.00
C114   C     0.43760   0.78239   0.17714   0.00000  Uiso   1.00
C115   C     0.49475   0.80939   0.15772   0.00000  Uiso   1.00
H116   H     0.31196   0.90679   0.07185   0.00000  Uiso   1.00
H117   H     0.24605   0.04846   0.10128   0.00000  Uiso   1.00
H118   H     0.25270   0.76882   0.03426   0.00000  Uiso   1.00
H119   H     0.43708   0.91636   0.06926   0.00000  Uiso   1.00
H120   H     0.17304   0.18449   0.15083   0.00000  Uiso   1.00
H121   H     0.18707   0.59484   0.00952   0.00000  Uiso   1.00
H122   H     0.57587   0.90596   0.08331   0.00000  Uiso   1.00
H123   H     0.31257   0.74481   0.20227   0.00000  Uiso   1.00
H124   H     0.24669   0.87760   0.23886   0.00000  Uiso   1.00
H125   H     0.25334   0.59796   0.17184   0.00000  Uiso   1.00
H126   H     0.43772   0.74550   0.20684   0.00000  Uiso   1.00
H127   H     0.17356   0.04581   0.26249   0.00000  Uiso   1.00
H128   H     0.18759   0.45616   0.12118   0.00000  Uiso   1.00
H129   H     0.57639   0.76728   0.19498   0.00000  Uiso   1.00
O130   O     0.12993   0.20541   0.22837   0.00000  Uiso   1.00
O131   O     0.14835   0.43181   0.04298   0.00000  Uiso   1.00
O132   O     0.65845   0.83999   0.13979   0.00000  Uiso   1.00
N133   N     0.18221   0.13364   0.17209   0.00000  Uiso   1.00
N134   N     0.19532   0.58236   0.03997   0.00000  Uiso   1.00
N135   N     0.55882   0.87321   0.10896   0.00000  Uiso   1.00
N136   N     0.18249   0.05902   0.23217   0.00000  Uiso   1.00
N137   N     0.19560   0.50774   0.10006   0.00000  Uiso   1.00
N138   N     0.55910   0.79858   0.16904   0.00000  Uiso   1.00
C139   C     0.81210   0.36968   0.10173   0.00000  Uiso   1.00
C140   C     0.77638   0.42420   0.13581   0.00000  Uiso   1.00
C141   C     0.74619   0.51160   0.13099   0.00000  Uiso   1.00
C142   C     0.71613   0.54970   0.16595   0.00000  Uiso   1.00
C143   C     0.66061   0.64157   0.21301   0.00000  Uiso   1.00
C144   C     0.77998   0.27227   0.09940   0.00000  Uiso   1.00
C145   C     0.75283   0.23192   0.06396   0.00000  Uiso   1.00
C146   C     0.72581   0.14211   0.06827   0.00000  Uiso   1.00
C147   C     0.67593   0.99808   0.05880   0.00000  Uiso   1.00
C148   C     0.88016   0.35244   0.11841   0.00000  Uiso   1.00
C149   C     0.93724   0.37948   0.09896   0.00000  Uiso   1.00
C150   C     0.99457   0.35715   0.11927   0.00000  Uiso   1.00
C151   C     0.10022   0.33760   0.13933   0.00000  Uiso   1.00
C152   C     0.81243   0.28192   0.17239   0.00000  Uiso   1.00
C153   C     0.77656   0.37653   0.17419   0.00000  Uiso   1.00
C154   C     0.74655   0.41451   0.20916   0.00000  Uiso   1.00
C155   C     0.71631   0.50195   0.20440   0.00000  Uiso   1.00
C156   C     0.78016   0.22460   0.13777   0.00000  Uiso   1.00
C157   C     0.75319   0.13483   0.14214   0.00000  Uiso   1.00
C158   C     0.72599   0.09436   0.10672   0.00000  Uiso   1.00
C159   C     0.88034   0.30477   0.15679   0.00000  Uiso   1.00
C160   C     0.93760   0.28239   0.17714   0.00000  Uiso   1.00
C161   C     0.99475   0.30939   0.15772   0.00000  Uiso   1.00
H162   H     0.81196   0.40679   0.07185   0.00000  Uiso   1.00
H163   H     0.74605   0.54846   0.10128   0.00000  Uiso   1.00
H164   H     0.75270   0.26882   0.03426   0.00000  Uiso   1.00
H165   H     0.93708   0.41636   0.06926   0.00000  Uiso   1.00
H166   H     0.67304   0.68449   0.15083   0.00000  Uiso   1.00
H167   H     0.68707   0.09484   0.00952   0.00000  Uiso   1.00
H168   H     0.07587   0.40596   0.08331   0.00000  Uiso   1.00
H169   H     0.81257   0.24481   0.20227   0.00000  Uiso   1.00
H170   H     0.74669   0.37760   0.23886   0.00000  Uiso   1.00
H171   H     0.75334   0.09796   0.17184   0.00000  Uiso   1.00
H172   H     0.93772   0.24550   0.20684   0.00000  Uiso   1.00
H173   H     0.67356   0.54581   0.26249   0.00000  Uiso   1.00
H174   H     0.68759   0.95616   0.12118   0.00000  Uiso   1.00
H175   H     0.07639   0.26728   0.19498   0.00000  Uiso   1.00
O176   O     0.62993   0.70541   0.22837   0.00000  Uiso   1.00
O177   O     0.64835   0.93181   0.04298   0.00000  Uiso   1.00
O178   O     0.15845   0.33999   0.13979   0.00000  Uiso   1.00
N179   N     0.68221   0.63364   0.17209   0.00000  Uiso   1.00
N180   N     0.69532   0.08236   0.03997   0.00000  Uiso   1.00
N181   N     0.05882   0.37321   0.10896   0.00000  Uiso   1.00
N182   N     0.68249   0.55902   0.23217   0.00000  Uiso   1.00
N183   N     0.69560   0.00774   0.10006   0.00000  Uiso   1.00
N184   N     0.05910   0.29858   0.16904   0.00000  Uiso   1.00
C185   C     0.31210   0.13032   0.89827   0.00000  Uiso   1.00
C186   C     0.27638   0.07580   0.86419   0.00000  Uiso   1.00
C187   C     0.24619   0.98840   0.86901   0.00000  Uiso   1.00
C188   C     0.21613   0.95030   0.83405   0.00000  Uiso   1.00
C189   C     0.16061   0.85843   0.78699   0.00000  Uiso   1.00
C190   C     0.27998   0.22773   0.90060   0.00000  Uiso   1.00
C191   C     0.25283   0.26808   0.93604   0.00000  Uiso   1.00
C192   C     0.22581   0.35789   0.93173   0.00000  Uiso   1.00
C193   C     0.17593   0.50192   0.94120   0.00000  Uiso   1.00
C194   C     0.38016   0.14756   0.88159   0.00000  Uiso   1.00
C195   C     0.43724   0.12052   0.90104   0.00000  Uiso   1.00
C196   C     0.49457   0.14285   0.88073   0.00000  Uiso   1.00
C197   C     0.60022   0.16240   0.86067   0.00000  Uiso   1.00
C198   C     0.31243   0.21808   0.82761   0.00000  Uiso   1.00
C199   C     0.27656   0.12347   0.82581   0.00000  Uiso   1.00
C200   C     0.24655   0.08549   0.79084   0.00000  Uiso   1.00
C201   C     0.21631   0.99805   0.79560   0.00000  Uiso   1.00
C202   C     0.28016   0.27540   0.86223   0.00000  Uiso   1.00
C203   C     0.25319   0.36517   0.85786   0.00000  Uiso   1.00
C204   C     0.22599   0.40564   0.89328   0.00000  Uiso   1.00
C205   C     0.38034   0.19523   0.84321   0.00000  Uiso   1.00
C206   C     0.43760   0.21761   0.82286   0.00000  Uiso   1.00
C207   C     0.49475   0.19061   0.84228   0.00000  Uiso   1.00
H208   H     0.31196   0.09321   0.92815   0.00000  Uiso   1.00
H209   H     0.24605   0.95154   0.89872   0.00000  Uiso   1.00
H210   H     0.25270   0.23118   0.96574   0.00000  Uiso   1.00
H211   H     0.43708   0.08364   0.93074   0.00000  Uiso   1.00
H212   H     0.17304   0.81551   0.84917   0.00000  Uiso   1.00
H213   H     0.18707   0.40516   0.99048   0.00000  Uiso   1.00
H214   H     0.57587   0.09404   0.91669   0.00000  Uiso   1.00
H215   H     0.31257   0.25519   0.79773   0.00000  Uiso   1.00
H216   H     0.24669   0.12240   0.76114   0.00000  Uiso   1.00
H217   H     0.25334   0.40204   0.82816   0.00000  Uiso   1.00
H218   H     0.43772   0.25450   0.79316   0.00000  Uiso   1.00
H219   H     0.17356   0.95419   0.73751   0.00000  Uiso   1.00
H220   H     0.18759   0.54384   0.87882   0.00000  Uiso   1.00
H221   H     0.57639   0.23272   0.80502   0.00000  Uiso   1.00
O222   O     0.12993   0.79459   0.77163   0.00000  Uiso   1.00
O223   O     0.14835   0.56819   0.95702   0.00000  Uiso   1.00
O224   O     0.65845   0.16001   0.86021   0.00000  Uiso   1.00
N225   N     0.18221   0.86636   0.82791   0.00000  Uiso   1.00
N226   N     0.19532   0.41764   0.96003   0.00000  Uiso   1.00
N227   N     0.55882   0.12679   0.89104   0.00000  Uiso   1.00
N228   N     0.18249   0.94098   0.76783   0.00000  Uiso   1.00
N229   N     0.19560   0.49226   0.89994   0.00000  Uiso   1.00
N230   N     0.55910   0.20142   0.83096   0.00000  Uiso   1.00
C231   C     0.81210   0.63032   0.89827   0.00000  Uiso   1.00
C232   C     0.77638   0.57580   0.86419   0.00000  Uiso   1.00
C233   C     0.74619   0.48840   0.86901   0.00000  Uiso   1.00
C234   C     0.71613   0.45030   0.83405   0.00000  Uiso   1.00
C235   C     0.66061   0.35843   0.78699   0.00000  Uiso   1.00
C236   C     0.77998   0.72773   0.90060   0.00000  Uiso   1.00
C237   C     0.75283   0.76808   0.93604   0.00000  Uiso   1.00
C238   C     0.72581   0.85789   0.93173   0.00000  Uiso   1.00
C239   C     0.67593   0.00192   0.94120   0.00000  Uiso   1.00
C240   C     0.88016   0.64756   0.88159   0.00000  Uiso   1.00
C241   C     0.93724   0.62052   0.90104   0.00000  Uiso   1.00
C242   C     0.99457   0.64285   0.88073   0.00000  Uiso   1.00
C243   C     0.10022   0.66240   0.86067   0.00000  Uiso   1.00
C244   C     0.81243   0.71808   0.82761   0.00000  Uiso   1.00
C245   C     0.77656   0.62347   0.82581   0.00000  Uiso   1.00
C246   C     0.74655   0.58549   0.79084   0.00000  Uiso   1.00
C247   C     0.71631   0.49805   0.79560   0.00000  Uiso   1.00
C248   C     0.78016   0.77540   0.86223   0.00000  Uiso   1.00
C249   C     0.75319   0.86517   0.85786   0.00000  Uiso   1.00
C250   C     0.72599   0.90564   0.89328   0.00000  Uiso   1.00
C251   C     0.88034   0.69523   0.84321   0.00000  Uiso   1.00
C252   C     0.93760   0.71761   0.82286   0.00000  Uiso   1.00
C253   C     0.99475   0.69061   0.84228   0.00000  Uiso   1.00
H254   H     0.81196   0.59321   0.92815   0.00000  Uiso   1.00
H255   H     0.74605   0.45154   0.89872   0.00000  Uiso   1.00
H256   H     0.75270   0.73118   0.96574   0.00000  Uiso   1.00
H257   H     0.93708   0.58364   0.93074   0.00000  Uiso   1.00
H258   H     0.67304   0.31551   0.84917   0.00000  Uiso   1.00
H259   H     0.68707   0.90516   0.99048   0.00000  Uiso   1.00
H260   H     0.07587   0.59404   0.91669   0.00000  Uiso   1.00
H261   H     0.81257   0.75519   0.79773   0.00000  Uiso   1.00
H262   H     0.74669   0.62240   0.76114   0.00000  Uiso   1.00
H263   H     0.75334   0.90204   0.82816   0.00000  Uiso   1.00
H264   H     0.93772   0.75450   0.79316   0.00000  Uiso   1.00
H265   H     0.67356   0.45419   0.73751   0.00000  Uiso   1.00
H266   H     0.68759   0.04384   0.87882   0.00000  Uiso   1.00
H267   H     0.07639   0.73272   0.80502   0.00000  Uiso   1.00
O268   O     0.62993   0.29459   0.77163   0.00000  Uiso   1.00
O269   O     0.64835   0.06819   0.95702   0.00000  Uiso   1.00
O270   O     0.15845   0.66001   0.86021   0.00000  Uiso   1.00
N271   N     0.68221   0.36636   0.82791   0.00000  Uiso   1.00
N272   N     0.69532   0.91764   0.96003   0.00000  Uiso   1.00
N273   N     0.05882   0.62679   0.89104   0.00000  Uiso   1.00
N274   N     0.68249   0.44098   0.76783   0.00000  Uiso   1.00
N275   N     0.69560   0.99226   0.89994   0.00000  Uiso   1.00
N276   N     0.05910   0.70142   0.83096   0.00000  Uiso   1.00
C277   C     0.68790   0.86968   0.39827   0.00000  Uiso   1.00
C278   C     0.72362   0.92420   0.36419   0.00000  Uiso   1.00
C279   C     0.75381   0.01160   0.36901   0.00000  Uiso   1.00
C280   C     0.78387   0.04970   0.33405   0.00000  Uiso   1.00
C281   C     0.83939   0.14157   0.28699   0.00000  Uiso   1.00
C282   C     0.72002   0.77227   0.40060   0.00000  Uiso   1.00
C283   C     0.74717   0.73192   0.43604   0.00000  Uiso   1.00
C284   C     0.77419   0.64211   0.43173   0.00000  Uiso   1.00
C285   C     0.82407   0.49808   0.44120   0.00000  Uiso   1.00
C286   C     0.61984   0.85244   0.38159   0.00000  Uiso   1.00
C287   C     0.56276   0.87948   0.40104   0.00000  Uiso   1.00
C288   C     0.50543   0.85715   0.38073   0.00000  Uiso   1.00
C289   C     0.39978   0.83760   0.36067   0.00000  Uiso   1.00
C290   C     0.68757   0.78192   0.32761   0.00000  Uiso   1.00
C291   C     0.72344   0.87653   0.32581   0.00000  Uiso   1.00
C292   C     0.75345   0.91451   0.29084   0.00000  Uiso   1.00
C293   C     0.78369   0.00195   0.29560   0.00000  Uiso   1.00
C294   C     0.71984   0.72460   0.36223   0.00000  Uiso   1.00
C295   C     0.74681   0.63483   0.35786   0.00000  Uiso   1.00
C296   C     0.77401   0.59436   0.39328   0.00000  Uiso   1.00
C297   C     0.61966   0.80477   0.34321   0.00000  Uiso   1.00
C298   C     0.56240   0.78239   0.32286   0.00000  Uiso   1.00
C299   C     0.50525   0.80939   0.34228   0.00000  Uiso   1.00
H300   H     0.68804   0.90679   0.42815   0.00000  Uiso   1.00
H301   H     0.75395   0.04846   0.39872   0.00000  Uiso   1.00
H302   H     0.74730   0.76882   0.46574   0.00000  Uiso   1.00
H303   H     0.56292   0.91636   0.43074   0.00000  Uiso   1.00
H304   H     0.82696   0.18449   0.34917   0.00000  Uiso   1.00
H305   H     0.81293   0.59484   0.49048   0.00000  Uiso   1.00
H306   H     0.42413   0.90596   0.41669   0.00000  Uiso   1.00
H307   H     0.68743   0.74481   0.29773   0.00000  Uiso   1.00
H308   H     0.75331   0.87760   0.26114   0.00000  Uiso   1.00
H309   H     0.74666   0.59796   0.32816   0.00000  Uiso   1.00
H310   H     0.56228   0.74550   0.29316   0.00000  Uiso   1.00
H311   H     0.82644   0.04581   0.23751   0.00000  Uiso   1.00
H312   H     0.81241   0.45616   0.37882   0.00000  Uiso   1.00
H313   H     0.42361   0.76728   0.30502   0.00000  Uiso   1.00
O314   O     0.87007   0.20541   0.27163   0.00000  Uiso   1.00
O315   O     0.85165   0.43181   0.45702   0.00000  Uiso   1.00
O316   O     0.34155   0.83999   0.36021   0.00000  Uiso   1.00
N317   N     0.81779   0.13364   0.32791   0.00000  Uiso   1.00
N318   N     0.80468   0.58236   0.46003   0.00000  Uiso   1.00
N319   N     0.44118   0.87321   0.39104   0.00000  Uiso   1.00
N320   N     0.81751   0.05902   0.26783   0.00000  Uiso   1.00
N321   N     0.80440   0.50774   0.39994   0.00000  Uiso   1.00
N322   N     0.44090   0.79858   0.33096   0.00000  Uiso   1.00
C323   C     0.18790   0.36968   0.39827   0.00000  Uiso   1.00
C324   C     0.22362   0.42420   0.36419   0.00000  Uiso   1.00
C325   C     0.25381   0.51160   0.36901   0.00000  Uiso   1.00
C326   C     0.28387   0.54970   0.33405   0.00000  Uiso   1.00
C327   C     0.33939   0.64157   0.28699   0.00000  Uiso   1.00
C328   C     0.22002   0.27227   0.40060   0.00000  Uiso   1.00
C329   C     0.24717   0.23192   0.43604   0.00000  Uiso   1.00
C330   C     0.27419   0.14211   0.43173   0.00000  Uiso   1.00
C331   C     0.32407   0.99808   0.44120   0.00000  Uiso   1.00
C332   C     0.11984   0.35244   0.38159   0.00000  Uiso   1.00
C333   C     0.06276   0.37948   0.40104   0.00000  Uiso   1.00
C334   C     0.00543   0.35715   0.38073   0.00000  Uiso   1.00
C335   C     0.89978   0.33760   0.36067   0.00000  Uiso   1.00
C336   C     0.18757   0.28192   0.32761   0.00000  Uiso   1.00
C337   C     0.22344   0.37653   0.32581   0.00000  Uiso   1.00
C338   C     0.25345   0.41451   0.29084   0.00000  Uiso   1.00
C339   C     0.28369   0.50195   0.29560   0.00000  Uiso   1.00
C340   C     0.21984   0.22460   0.36223   0.00000  Uiso   1.00
C341   C     0.24681   0.13483   0.35786   0.00000  Uiso   1.00
C342   C     0.27401   0.09436   0.39328   0.00000  Uiso   1.00
C343   C     0.11966   0.30477   0.34321   0.00000  Uiso   1.00
C344   C     0.06240   0.28239   0.32286   0.00000  Uiso   1.00
C345   C     0.00525   0.30939   0.34228   0.00000  Uiso   1.00
H346   H     0.18804   0.40679   0.42815   0.00000  Uiso   1.00
H347   H     0.25395   0.54846   0.39872   0.00000  Uiso   1.00
H348   H     0.24730   0.26882   0.46574   0.00000  Uiso   1.00
H349   H     0.06292   0.41636   0.43074   0.00000  Uiso   1.00
H350   H     0.32696   0.68449   0.34917   0.00000  Uiso   1.00
H351   H     0.31293   0.09484   0.49048   0.00000  Uiso   1.00
H352   H     0.92413   0.40596   0.41669   0.00000  Uiso   1.00
H353   H     0.18743   0.24481   0.29773   0.00000  Uiso   1.00
H354   H     0.25331   0.37760   0.26114   0.00000  Uiso   1.00
H355   H     0.24666   0.09796   0.32816   0.00000  Uiso   1.00
H356   H     0.06228   0.24550   0.29316   0.00000  Uiso   1.00
H357   H     0.32644   0.54581   0.23751   0.00000  Uiso   1.00
H358   H     0.31241   0.95616   0.37882   0.00000  Uiso   1.00
H359   H     0.92361   0.26728   0.30502   0.00000  Uiso   1.00
O360   O     0.37007   0.70541   0.27163   0.00000  Uiso   1.00
O361   O     0.35165   0.93181   0.45702   0.00000  Uiso   1.00
O362   O     0.84155   0.33999   0.36021   0.00000  Uiso   1.00
N363   N     0.31779   0.63364   0.32791   0.00000  Uiso   1.00
N364   N     0.30468   0.08236   0.46003   0.00000  Uiso   1.00
N365   N     0.94118   0.37321   0.39104   0.00000  Uiso   1.00
N366   N     0.31751   0.55902   0.26783   0.00000  Uiso   1.00
N367   N     0.30440   0.00774   0.39994   0.00000  Uiso   1.00
N368   N     0.94090   0.29858   0.33096   0.00000  Uiso   1.00
