data_job_00761
_audit_creation_date              2018-12-19
_audit_creation_method            'Materials Studio'
_symmetry_space_group_name_H-M    'P1'
_symmetry_Int_Tables_number       1
_symmetry_cell_setting            triclinic
loop_
_symmetry_equiv_pos_as_xyz
  x,y,z
_cell_length_a                    28.3924
_cell_length_b                    8.4672
_cell_length_c                    26.4334
_cell_angle_alpha                 90.0000
_cell_angle_beta                  127.3034
_cell_angle_gamma                 90.0000
loop_
_atom_site_label
_atom_site_type_symbol
_atom_site_fract_x
_atom_site_fract_y
_atom_site_fract_z
_atom_site_U_iso_or_equiv
_atom_site_adp_type
_atom_site_occupancy
C1     C     0.19646   0.70472   0.59578   0.00000  Uiso   1.00
C2     C     0.13716   0.69433   0.52979   0.00000  Uiso   1.00
C3     C     0.10620   0.82052   0.48907   0.00000  Uiso   1.00
C4     C     0.05274   0.78649   0.43075   0.00000  Uiso   1.00
C5     C     0.96396   0.79391   0.33086   0.00000  Uiso   1.00
C6     C     0.18663   0.63088   0.64133   0.00000  Uiso   1.00
C7     C     0.19727   0.70371   0.69441   0.00000  Uiso   1.00
C8     C     0.18545   0.61625   0.72998   0.00000  Uiso   1.00
C9     C     0.17351   0.52512   0.80330   0.00000  Uiso   1.00
C10    C     0.23823   0.59375   0.59486   0.00000  Uiso   1.00
C11    C     0.29227   0.63535   0.60889   0.00000  Uiso   1.00
C12    C     0.32390   0.51661   0.60535   0.00000  Uiso   1.00
C13    C     0.39208   0.36783   0.60652   0.00000  Uiso   1.00
C14    C     0.15656   0.41988   0.56460   0.00000  Uiso   1.00
C15    C     0.11549   0.53962   0.51285   0.00000  Uiso   1.00
C16    C     0.06206   0.50538   0.45457   0.00000  Uiso   1.00
C17    C     0.03103   0.63150   0.41378   0.00000  Uiso   1.00
C18    C     0.16496   0.47617   0.62439   0.00000  Uiso   1.00
C19    C     0.15313   0.38857   0.65990   0.00000  Uiso   1.00
C20    C     0.16375   0.46126   0.71302   0.00000  Uiso   1.00
C21    C     0.21656   0.43903   0.57792   0.00000  Uiso   1.00
C22    C     0.24812   0.32021   0.57438   0.00000  Uiso   1.00
C23    C     0.30219   0.36162   0.58839   0.00000  Uiso   1.00
H24    H     0.21333   0.82516   0.60897   0.00000  Uiso   1.00
H25    H     0.12299   0.94024   0.50220   0.00000  Uiso   1.00
H26    H     0.21405   0.82343   0.70750   0.00000  Uiso   1.00
H27    H     0.30902   0.75508   0.62199   0.00000  Uiso   1.00
H28    H     0.01326   0.99959   0.37637   0.00000  Uiso   1.00
H29    H     0.20528   0.75329   0.80927   0.00000  Uiso   1.00
H30    H     0.40556   0.60916   0.62895   0.00000  Uiso   1.00
H31    H     0.13969   0.29942   0.55141   0.00000  Uiso   1.00
H32    H     0.04531   0.38564   0.44148   0.00000  Uiso   1.00
H33    H     0.13636   0.26885   0.64678   0.00000  Uiso   1.00
H34    H     0.23134   0.20050   0.56127   0.00000  Uiso   1.00
H35    H     0.95021   0.54947   0.32708   0.00000  Uiso   1.00
H36    H     0.14223   0.30317   0.75999   0.00000  Uiso   1.00
H37    H     0.34251   0.15903   0.57967   0.00000  Uiso   1.00
O38    O     0.92097   0.84074   0.28045   0.00000  Uiso   1.00
O39    O     0.17290   0.51760   0.84841   0.00000  Uiso   1.00
O40    O     0.43566   0.32850   0.61184   0.00000  Uiso   1.00
N41    N     0.01138   0.88182   0.37985   0.00000  Uiso   1.00
N42    N     0.19090   0.65155   0.78458   0.00000  Uiso   1.00
N43    N     0.37815   0.51679   0.61602   0.00000  Uiso   1.00
N44    N     0.97745   0.63961   0.35333   0.00000  Uiso   1.00
N45    N     0.15697   0.40935   0.75806   0.00000  Uiso   1.00
N46    N     0.34423   0.27458   0.58950   0.00000  Uiso   1.00
C47    C     0.69646   0.20472   0.59578   0.00000  Uiso   1.00
C48    C     0.63716   0.19433   0.52979   0.00000  Uiso   1.00
C49    C     0.60620   0.32052   0.48907   0.00000  Uiso   1.00
C50    C     0.55274   0.28649   0.43075   0.00000  Uiso   1.00
C51    C     0.46396   0.29391   0.33086   0.00000  Uiso   1.00
C52    C     0.68663   0.13088   0.64133   0.00000  Uiso   1.00
C53    C     0.69727   0.20371   0.69441   0.00000  Uiso   1.00
C54    C     0.68545   0.11625   0.72998   0.00000  Uiso   1.00
C55    C     0.67351   0.02512   0.80330   0.00000  Uiso   1.00
C56    C     0.73823   0.09375   0.59486   0.00000  Uiso   1.00
C57    C     0.79227   0.13535   0.60889   0.00000  Uiso   1.00
C58    C     0.82390   0.01661   0.60535   0.00000  Uiso   1.00
C59    C     0.89208   0.86783   0.60652   0.00000  Uiso   1.00
C60    C     0.65656   0.91988   0.56460   0.00000  Uiso   1.00
C61    C     0.61549   0.03962   0.51285   0.00000  Uiso   1.00
C62    C     0.56206   0.00538   0.45457   0.00000  Uiso   1.00
C63    C     0.53103   0.13150   0.41378   0.00000  Uiso   1.00
C64    C     0.66496   0.97617   0.62439   0.00000  Uiso   1.00
C65    C     0.65313   0.88857   0.65990   0.00000  Uiso   1.00
C66    C     0.66375   0.96126   0.71302   0.00000  Uiso   1.00
C67    C     0.71656   0.93903   0.57792   0.00000  Uiso   1.00
C68    C     0.74812   0.82021   0.57438   0.00000  Uiso   1.00
C69    C     0.80219   0.86162   0.58839   0.00000  Uiso   1.00
H70    H     0.71333   0.32516   0.60897   0.00000  Uiso   1.00
H71    H     0.62299   0.44024   0.50220   0.00000  Uiso   1.00
H72    H     0.71405   0.32343   0.70750   0.00000  Uiso   1.00
H73    H     0.80902   0.25508   0.62199   0.00000  Uiso   1.00
H74    H     0.51326   0.49959   0.37637   0.00000  Uiso   1.00
H75    H     0.70528   0.25329   0.80927   0.00000  Uiso   1.00
H76    H     0.90556   0.10916   0.62895   0.00000  Uiso   1.00
H77    H     0.63969   0.79942   0.55141   0.00000  Uiso   1.00
H78    H     0.54531   0.88564   0.44148   0.00000  Uiso   1.00
H79    H     0.63636   0.76885   0.64678   0.00000  Uiso   1.00
H80    H     0.73134   0.70050   0.56127   0.00000  Uiso   1.00
H81    H     0.45021   0.04947   0.32708   0.00000  Uiso   1.00
H82    H     0.64223   0.80317   0.75999   0.00000  Uiso   1.00
H83    H     0.84251   0.65903   0.57967   0.00000  Uiso   1.00
O84    O     0.42097   0.34074   0.28045   0.00000  Uiso   1.00
O85    O     0.67290   0.01760   0.84841   0.00000  Uiso   1.00
O86    O     0.93566   0.82850   0.61184   0.00000  Uiso   1.00
N87    N     0.51138   0.38182   0.37985   0.00000  Uiso   1.00
N88    N     0.69090   0.15155   0.78458   0.00000  Uiso   1.00
N89    N     0.87815   0.01679   0.61602   0.00000  Uiso   1.00
N90    N     0.47745   0.13961   0.35333   0.00000  Uiso   1.00
N91    N     0.65697   0.90935   0.75806   0.00000  Uiso   1.00
N92    N     0.84423   0.77458   0.58950   0.00000  Uiso   1.00
C93    C     0.80354   0.70472   0.90422   0.00000  Uiso   1.00
C94    C     0.86284   0.69433   0.97021   0.00000  Uiso   1.00
C95    C     0.89380   0.82052   0.01093   0.00000  Uiso   1.00
C96    C     0.94726   0.78649   0.06925   0.00000  Uiso   1.00
C97    C     0.03604   0.79391   0.16914   0.00000  Uiso   1.00
C98    C     0.81337   0.63088   0.85867   0.00000  Uiso   1.00
C99    C     0.80273   0.70371   0.80559   0.00000  Uiso   1.00
C100   C     0.81455   0.61625   0.77002   0.00000  Uiso   1.00
C101   C     0.82649   0.52512   0.69670   0.00000  Uiso   1.00
C102   C     0.76177   0.59375   0.90514   0.00000  Uiso   1.00
C103   C     0.70773   0.63535   0.89111   0.00000  Uiso   1.00
C104   C     0.67610   0.51661   0.89465   0.00000  Uiso   1.00
C105   C     0.60792   0.36783   0.89348   0.00000  Uiso   1.00
C106   C     0.84344   0.41988   0.93540   0.00000  Uiso   1.00
C107   C     0.88451   0.53962   0.98715   0.00000  Uiso   1.00
C108   C     0.93794   0.50538   0.04543   0.00000  Uiso   1.00
C109   C     0.96897   0.63150   0.08622   0.00000  Uiso   1.00
C110   C     0.83504   0.47617   0.87561   0.00000  Uiso   1.00
C111   C     0.84687   0.38857   0.84010   0.00000  Uiso   1.00
C112   C     0.83625   0.46126   0.78698   0.00000  Uiso   1.00
C113   C     0.78344   0.43903   0.92208   0.00000  Uiso   1.00
C114   C     0.75188   0.32021   0.92562   0.00000  Uiso   1.00
C115   C     0.69781   0.36162   0.91161   0.00000  Uiso   1.00
H116   H     0.78667   0.82516   0.89103   0.00000  Uiso   1.00
H117   H     0.87701   0.94024   0.99780   0.00000  Uiso   1.00
H118   H     0.78595   0.82343   0.79250   0.00000  Uiso   1.00
H119   H     0.69098   0.75508   0.87801   0.00000  Uiso   1.00
H120   H     0.98674   0.99959   0.12363   0.00000  Uiso   1.00
H121   H     0.79472   0.75329   0.69073   0.00000  Uiso   1.00
H122   H     0.59444   0.60916   0.87105   0.00000  Uiso   1.00
H123   H     0.86031   0.29942   0.94859   0.00000  Uiso   1.00
H124   H     0.95469   0.38564   0.05852   0.00000  Uiso   1.00
H125   H     0.86364   0.26885   0.85322   0.00000  Uiso   1.00
H126   H     0.76866   0.20050   0.93873   0.00000  Uiso   1.00
H127   H     0.04979   0.54947   0.17292   0.00000  Uiso   1.00
H128   H     0.85777   0.30317   0.74001   0.00000  Uiso   1.00
H129   H     0.65749   0.15903   0.92033   0.00000  Uiso   1.00
O130   O     0.07903   0.84074   0.21955   0.00000  Uiso   1.00
O131   O     0.82710   0.51760   0.65159   0.00000  Uiso   1.00
O132   O     0.56434   0.32850   0.88816   0.00000  Uiso   1.00
N133   N     0.98862   0.88182   0.12015   0.00000  Uiso   1.00
N134   N     0.80910   0.65155   0.71542   0.00000  Uiso   1.00
N135   N     0.62185   0.51679   0.88398   0.00000  Uiso   1.00
N136   N     0.02255   0.63961   0.14667   0.00000  Uiso   1.00
N137   N     0.84303   0.40935   0.74194   0.00000  Uiso   1.00
N138   N     0.65577   0.27458   0.91050   0.00000  Uiso   1.00
C139   C     0.30354   0.20472   0.90422   0.00000  Uiso   1.00
C140   C     0.36284   0.19433   0.97021   0.00000  Uiso   1.00
C141   C     0.39380   0.32052   0.01093   0.00000  Uiso   1.00
C142   C     0.44726   0.28649   0.06925   0.00000  Uiso   1.00
C143   C     0.53604   0.29391   0.16914   0.00000  Uiso   1.00
C144   C     0.31337   0.13088   0.85867   0.00000  Uiso   1.00
C145   C     0.30273   0.20371   0.80559   0.00000  Uiso   1.00
C146   C     0.31455   0.11625   0.77002   0.00000  Uiso   1.00
C147   C     0.32649   0.02512   0.69670   0.00000  Uiso   1.00
C148   C     0.26177   0.09375   0.90514   0.00000  Uiso   1.00
C149   C     0.20773   0.13535   0.89111   0.00000  Uiso   1.00
C150   C     0.17610   0.01661   0.89465   0.00000  Uiso   1.00
C151   C     0.10792   0.86783   0.89348   0.00000  Uiso   1.00
C152   C     0.34344   0.91988   0.93540   0.00000  Uiso   1.00
C153   C     0.38451   0.03962   0.98715   0.00000  Uiso   1.00
C154   C     0.43794   0.00538   0.04543   0.00000  Uiso   1.00
C155   C     0.46897   0.13150   0.08622   0.00000  Uiso   1.00
C156   C     0.33504   0.97617   0.87561   0.00000  Uiso   1.00
C157   C     0.34687   0.88857   0.84010   0.00000  Uiso   1.00
C158   C     0.33625   0.96126   0.78698   0.00000  Uiso   1.00
C159   C     0.28344   0.93903   0.92208   0.00000  Uiso   1.00
C160   C     0.25188   0.82021   0.92562   0.00000  Uiso   1.00
C161   C     0.19781   0.86162   0.91161   0.00000  Uiso   1.00
H162   H     0.28667   0.32516   0.89103   0.00000  Uiso   1.00
H163   H     0.37701   0.44024   0.99780   0.00000  Uiso   1.00
H164   H     0.28595   0.32343   0.79250   0.00000  Uiso   1.00
H165   H     0.19098   0.25508   0.87801   0.00000  Uiso   1.00
H166   H     0.48674   0.49959   0.12363   0.00000  Uiso   1.00
H167   H     0.29472   0.25329   0.69073   0.00000  Uiso   1.00
H168   H     0.09444   0.10916   0.87105   0.00000  Uiso   1.00
H169   H     0.36031   0.79942   0.94859   0.00000  Uiso   1.00
H170   H     0.45469   0.88564   0.05852   0.00000  Uiso   1.00
H171   H     0.36364   0.76885   0.85322   0.00000  Uiso   1.00
H172   H     0.26866   0.70050   0.93873   0.00000  Uiso   1.00
H173   H     0.54979   0.04947   0.17292   0.00000  Uiso   1.00
H174   H     0.35777   0.80317   0.74001   0.00000  Uiso   1.00
H175   H     0.15749   0.65903   0.92033   0.00000  Uiso   1.00
O176   O     0.57903   0.34074   0.21955   0.00000  Uiso   1.00
O177   O     0.32710   0.01760   0.65159   0.00000  Uiso   1.00
O178   O     0.06434   0.82850   0.88816   0.00000  Uiso   1.00
N179   N     0.48862   0.38182   0.12015   0.00000  Uiso   1.00
N180   N     0.30910   0.15155   0.71542   0.00000  Uiso   1.00
N181   N     0.12185   0.01679   0.88398   0.00000  Uiso   1.00
N182   N     0.52255   0.13961   0.14667   0.00000  Uiso   1.00
N183   N     0.34303   0.90935   0.74194   0.00000  Uiso   1.00
N184   N     0.15577   0.77458   0.91050   0.00000  Uiso   1.00
C185   C     0.80354   0.29528   0.40422   0.00000  Uiso   1.00
C186   C     0.86284   0.30567   0.47021   0.00000  Uiso   1.00
C187   C     0.89380   0.17948   0.51093   0.00000  Uiso   1.00
C188   C     0.94726   0.21351   0.56925   0.00000  Uiso   1.00
C189   C     0.03604   0.20609   0.66914   0.00000  Uiso   1.00
C190   C     0.81337   0.36912   0.35867   0.00000  Uiso   1.00
C191   C     0.80273   0.29629   0.30559   0.00000  Uiso   1.00
C192   C     0.81455   0.38375   0.27002   0.00000  Uiso   1.00
C193   C     0.82649   0.47488   0.19670   0.00000  Uiso   1.00
C194   C     0.76177   0.40625   0.40514   0.00000  Uiso   1.00
C195   C     0.70773   0.36465   0.39111   0.00000  Uiso   1.00
C196   C     0.67610   0.48339   0.39465   0.00000  Uiso   1.00
C197   C     0.60792   0.63217   0.39348   0.00000  Uiso   1.00
C198   C     0.84344   0.58012   0.43540   0.00000  Uiso   1.00
C199   C     0.88451   0.46038   0.48715   0.00000  Uiso   1.00
C200   C     0.93794   0.49462   0.54543   0.00000  Uiso   1.00
C201   C     0.96897   0.36850   0.58622   0.00000  Uiso   1.00
C202   C     0.83504   0.52383   0.37561   0.00000  Uiso   1.00
C203   C     0.84687   0.61143   0.34010   0.00000  Uiso   1.00
C204   C     0.83625   0.53874   0.28698   0.00000  Uiso   1.00
C205   C     0.78344   0.56097   0.42208   0.00000  Uiso   1.00
C206   C     0.75188   0.67979   0.42562   0.00000  Uiso   1.00
C207   C     0.69781   0.63838   0.41161   0.00000  Uiso   1.00
H208   H     0.78667   0.17484   0.39103   0.00000  Uiso   1.00
H209   H     0.87701   0.05976   0.49780   0.00000  Uiso   1.00
H210   H     0.78595   0.17657   0.29250   0.00000  Uiso   1.00
H211   H     0.69098   0.24492   0.37801   0.00000  Uiso   1.00
H212   H     0.98674   0.00041   0.62363   0.00000  Uiso   1.00
H213   H     0.79472   0.24671   0.19073   0.00000  Uiso   1.00
H214   H     0.59444   0.39084   0.37105   0.00000  Uiso   1.00
H215   H     0.86031   0.70058   0.44859   0.00000  Uiso   1.00
H216   H     0.95469   0.61436   0.55852   0.00000  Uiso   1.00
H217   H     0.86364   0.73115   0.35322   0.00000  Uiso   1.00
H218   H     0.76866   0.79950   0.43873   0.00000  Uiso   1.00
H219   H     0.04979   0.45053   0.67292   0.00000  Uiso   1.00
H220   H     0.85777   0.69683   0.24001   0.00000  Uiso   1.00
H221   H     0.65749   0.84097   0.42033   0.00000  Uiso   1.00
O222   O     0.07903   0.15926   0.71955   0.00000  Uiso   1.00
O223   O     0.82710   0.48240   0.15159   0.00000  Uiso   1.00
O224   O     0.56434   0.67150   0.38816   0.00000  Uiso   1.00
N225   N     0.98862   0.11818   0.62015   0.00000  Uiso   1.00
N226   N     0.80910   0.34845   0.21542   0.00000  Uiso   1.00
N227   N     0.62185   0.48321   0.38398   0.00000  Uiso   1.00
N228   N     0.02255   0.36039   0.64667   0.00000  Uiso   1.00
N229   N     0.84303   0.59065   0.24194   0.00000  Uiso   1.00
N230   N     0.65577   0.72542   0.41050   0.00000  Uiso   1.00
C231   C     0.30354   0.79528   0.40422   0.00000  Uiso   1.00
C232   C     0.36284   0.80567   0.47021   0.00000  Uiso   1.00
C233   C     0.39380   0.67948   0.51093   0.00000  Uiso   1.00
C234   C     0.44726   0.71351   0.56925   0.00000  Uiso   1.00
C235   C     0.53604   0.70609   0.66914   0.00000  Uiso   1.00
C236   C     0.31337   0.86912   0.35867   0.00000  Uiso   1.00
C237   C     0.30273   0.79629   0.30559   0.00000  Uiso   1.00
C238   C     0.31455   0.88375   0.27002   0.00000  Uiso   1.00
C239   C     0.32649   0.97488   0.19670   0.00000  Uiso   1.00
C240   C     0.26177   0.90625   0.40514   0.00000  Uiso   1.00
C241   C     0.20773   0.86465   0.39111   0.00000  Uiso   1.00
C242   C     0.17610   0.98339   0.39465   0.00000  Uiso   1.00
C243   C     0.10792   0.13217   0.39348   0.00000  Uiso   1.00
C244   C     0.34344   0.08012   0.43540   0.00000  Uiso   1.00
C245   C     0.38451   0.96038   0.48715   0.00000  Uiso   1.00
C246   C     0.43794   0.99462   0.54543   0.00000  Uiso   1.00
C247   C     0.46897   0.86850   0.58622   0.00000  Uiso   1.00
C248   C     0.33504   0.02383   0.37561   0.00000  Uiso   1.00
C249   C     0.34687   0.11143   0.34010   0.00000  Uiso   1.00
C250   C     0.33625   0.03874   0.28698   0.00000  Uiso   1.00
C251   C     0.28344   0.06097   0.42208   0.00000  Uiso   1.00
C252   C     0.25188   0.17979   0.42562   0.00000  Uiso   1.00
C253   C     0.19781   0.13838   0.41161   0.00000  Uiso   1.00
H254   H     0.28667   0.67484   0.39103   0.00000  Uiso   1.00
H255   H     0.37701   0.55976   0.49780   0.00000  Uiso   1.00
H256   H     0.28595   0.67657   0.29250   0.00000  Uiso   1.00
H257   H     0.19098   0.74492   0.37801   0.00000  Uiso   1.00
H258   H     0.48674   0.50041   0.62363   0.00000  Uiso   1.00
H259   H     0.29472   0.74671   0.19073   0.00000  Uiso   1.00
H260   H     0.09444   0.89084   0.37105   0.00000  Uiso   1.00
H261   H     0.36031   0.20058   0.44859   0.00000  Uiso   1.00
H262   H     0.45469   0.11436   0.55852   0.00000  Uiso   1.00
H263   H     0.36364   0.23115   0.35322   0.00000  Uiso   1.00
H264   H     0.26866   0.29950   0.43873   0.00000  Uiso   1.00
H265   H     0.54979   0.95053   0.67292   0.00000  Uiso   1.00
H266   H     0.35777   0.19683   0.24001   0.00000  Uiso   1.00
H267   H     0.15749   0.34097   0.42033   0.00000  Uiso   1.00
O268   O     0.57903   0.65926   0.71955   0.00000  Uiso   1.00
O269   O     0.32710   0.98240   0.15159   0.00000  Uiso   1.00
O270   O     0.06434   0.17150   0.38816   0.00000  Uiso   1.00
N271   N     0.48862   0.61818   0.62015   0.00000  Uiso   1.00
N272   N     0.30910   0.84845   0.21542   0.00000  Uiso   1.00
N273   N     0.12185   0.98321   0.38398   0.00000  Uiso   1.00
N274   N     0.52255   0.86039   0.64667   0.00000  Uiso   1.00
N275   N     0.34303   0.09065   0.24194   0.00000  Uiso   1.00
N276   N     0.15577   0.22542   0.41050   0.00000  Uiso   1.00
C277   C     0.19646   0.29528   0.09578   0.00000  Uiso   1.00
C278   C     0.13716   0.30567   0.02979   0.00000  Uiso   1.00
C279   C     0.10620   0.17948   0.98907   0.00000  Uiso   1.00
C280   C     0.05274   0.21351   0.93075   0.00000  Uiso   1.00
C281   C     0.96396   0.20609   0.83086   0.00000  Uiso   1.00
C282   C     0.18663   0.36912   0.14133   0.00000  Uiso   1.00
C283   C     0.19727   0.29629   0.19441   0.00000  Uiso   1.00
C284   C     0.18545   0.38375   0.22998   0.00000  Uiso   1.00
C285   C     0.17351   0.47488   0.30330   0.00000  Uiso   1.00
C286   C     0.23823   0.40625   0.09486   0.00000  Uiso   1.00
C287   C     0.29227   0.36465   0.10889   0.00000  Uiso   1.00
C288   C     0.32390   0.48339   0.10535   0.00000  Uiso   1.00
C289   C     0.39208   0.63217   0.10652   0.00000  Uiso   1.00
C290   C     0.15656   0.58012   0.06460   0.00000  Uiso   1.00
C291   C     0.11549   0.46038   0.01285   0.00000  Uiso   1.00
C292   C     0.06206   0.49462   0.95457   0.00000  Uiso   1.00
C293   C     0.03103   0.36850   0.91378   0.00000  Uiso   1.00
C294   C     0.16496   0.52383   0.12439   0.00000  Uiso   1.00
C295   C     0.15313   0.61143   0.15990   0.00000  Uiso   1.00
C296   C     0.16375   0.53874   0.21302   0.00000  Uiso   1.00
C297   C     0.21656   0.56097   0.07792   0.00000  Uiso   1.00
C298   C     0.24812   0.67979   0.07438   0.00000  Uiso   1.00
C299   C     0.30219   0.63838   0.08839   0.00000  Uiso   1.00
H300   H     0.21333   0.17484   0.10897   0.00000  Uiso   1.00
H301   H     0.12299   0.05976   0.00220   0.00000  Uiso   1.00
H302   H     0.21405   0.17657   0.20750   0.00000  Uiso   1.00
H303   H     0.30902   0.24492   0.12199   0.00000  Uiso   1.00
H304   H     0.01326   0.00041   0.87637   0.00000  Uiso   1.00
H305   H     0.20528   0.24671   0.30927   0.00000  Uiso   1.00
H306   H     0.40556   0.39084   0.12895   0.00000  Uiso   1.00
H307   H     0.13969   0.70058   0.05141   0.00000  Uiso   1.00
H308   H     0.04531   0.61436   0.94148   0.00000  Uiso   1.00
H309   H     0.13636   0.73115   0.14678   0.00000  Uiso   1.00
H310   H     0.23134   0.79950   0.06127   0.00000  Uiso   1.00
H311   H     0.95021   0.45053   0.82708   0.00000  Uiso   1.00
H312   H     0.14223   0.69683   0.25999   0.00000  Uiso   1.00
H313   H     0.34251   0.84097   0.07967   0.00000  Uiso   1.00
O314   O     0.92097   0.15926   0.78045   0.00000  Uiso   1.00
O315   O     0.17290   0.48240   0.34841   0.00000  Uiso   1.00
O316   O     0.43566   0.67150   0.11184   0.00000  Uiso   1.00
N317   N     0.01138   0.11818   0.87985   0.00000  Uiso   1.00
N318   N     0.19090   0.34845   0.28458   0.00000  Uiso   1.00
N319   N     0.37815   0.48321   0.11602   0.00000  Uiso   1.00
N320   N     0.97745   0.36039   0.85333   0.00000  Uiso   1.00
N321   N     0.15697   0.59065   0.25806   0.00000  Uiso   1.00
N322   N     0.34423   0.72542   0.08950   0.00000  Uiso   1.00
C323   C     0.69646   0.79528   0.09578   0.00000  Uiso   1.00
C324   C     0.63716   0.80567   0.02979   0.00000  Uiso   1.00
C325   C     0.60620   0.67948   0.98907   0.00000  Uiso   1.00
C326   C     0.55274   0.71351   0.93075   0.00000  Uiso   1.00
C327   C     0.46396   0.70609   0.83086   0.00000  Uiso   1.00
C328   C     0.68663   0.86912   0.14133   0.00000  Uiso   1.00
C329   C     0.69727   0.79629   0.19441   0.00000  Uiso   1.00
C330   C     0.68545   0.88375   0.22998   0.00000  Uiso   1.00
C331   C     0.67351   0.97488   0.30330   0.00000  Uiso   1.00
C332   C     0.73823   0.90625   0.09486   0.00000  Uiso   1.00
C333   C     0.79227   0.86465   0.10889   0.00000  Uiso   1.00
C334   C     0.82390   0.98339   0.10535   0.00000  Uiso   1.00
C335   C     0.89208   0.13217   0.10652   0.00000  Uiso   1.00
C336   C     0.65656   0.08012   0.06460   0.00000  Uiso   1.00
C337   C     0.61549   0.96038   0.01285   0.00000  Uiso   1.00
C338   C     0.56206   0.99462   0.95457   0.00000  Uiso   1.00
C339   C     0.53103   0.86850   0.91378   0.00000  Uiso   1.00
C340   C     0.66496   0.02383   0.12439   0.00000  Uiso   1.00
C341   C     0.65313   0.11143   0.15990   0.00000  Uiso   1.00
C342   C     0.66375   0.03874   0.21302   0.00000  Uiso   1.00
C343   C     0.71656   0.06097   0.07792   0.00000  Uiso   1.00
C344   C     0.74812   0.17979   0.07438   0.00000  Uiso   1.00
C345   C     0.80219   0.13838   0.08839   0.00000  Uiso   1.00
H346   H     0.71333   0.67484   0.10897   0.00000  Uiso   1.00
H347   H     0.62299   0.55976   0.00220   0.00000  Uiso   1.00
H348   H     0.71405   0.67657   0.20750   0.00000  Uiso   1.00
H349   H     0.80902   0.74492   0.12199   0.00000  Uiso   1.00
H350   H     0.51326   0.50041   0.87637   0.00000  Uiso   1.00
H351   H     0.70528   0.74671   0.30927   0.00000  Uiso   1.00
H352   H     0.90556   0.89084   0.12895   0.00000  Uiso   1.00
H353   H     0.63969   0.20058   0.05141   0.00000  Uiso   1.00
H354   H     0.54531   0.11436   0.94148   0.00000  Uiso   1.00
H355   H     0.63636   0.23115   0.14678   0.00000  Uiso   1.00
H356   H     0.73134   0.29950   0.06127   0.00000  Uiso   1.00
H357   H     0.45021   0.95053   0.82708   0.00000  Uiso   1.00
H358   H     0.64223   0.19683   0.25999   0.00000  Uiso   1.00
H359   H     0.84251   0.34097   0.07967   0.00000  Uiso   1.00
O360   O     0.42097   0.65926   0.78045   0.00000  Uiso   1.00
O361   O     0.67290   0.98240   0.34841   0.00000  Uiso   1.00
O362   O     0.93566   0.17150   0.11184   0.00000  Uiso   1.00
N363   N     0.51138   0.61818   0.87985   0.00000  Uiso   1.00
N364   N     0.69090   0.84845   0.28458   0.00000  Uiso   1.00
N365   N     0.87815   0.98321   0.11602   0.00000  Uiso   1.00
N366   N     0.47745   0.86039   0.85333   0.00000  Uiso   1.00
N367   N     0.65697   0.09065   0.25806   0.00000  Uiso   1.00
N368   N     0.84423   0.22542   0.08950   0.00000  Uiso   1.00
