data_job_01527
_audit_creation_date              2018-12-19
_audit_creation_method            'Materials Studio'
_symmetry_space_group_name_H-M    'P1'
_symmetry_Int_Tables_number       1
_symmetry_cell_setting            triclinic
loop_
_symmetry_equiv_pos_as_xyz
  x,y,z
_cell_length_a                    20.7157
_cell_length_b                    20.7157
_cell_length_c                    12.4611
_cell_angle_alpha                 90.0000
_cell_angle_beta                  90.0000
_cell_angle_gamma                 120.0000
loop_
_atom_site_label
_atom_site_type_symbol
_atom_site_fract_x
_atom_site_fract_y
_atom_site_fract_z
_atom_site_U_iso_or_equiv
_atom_site_adp_type
_atom_site_occupancy
C1     C     0.80121   0.25288   0.62038   0.00000  Uiso   1.00
C2     C     0.83588   0.25912   0.51018   0.00000  Uiso   1.00
C3     C     0.82276   0.19986   0.44406   0.00000  Uiso   1.00
C4     C     0.85988   0.21720   0.34632   0.00000  Uiso   1.00
C5     C     0.90637   0.21563   0.17986   0.00000  Uiso   1.00
C6     C     0.86622   0.29369   0.69800   0.00000  Uiso   1.00
C7     C     0.87860   0.26350   0.78981   0.00000  Uiso   1.00
C8     C     0.94127   0.30995   0.85018   0.00000  Uiso   1.00
C9     C     0.03483   0.36206   0.97535   0.00000  Uiso   1.00
C10    C     0.76270   0.29916   0.61458   0.00000  Uiso   1.00
C11    C     0.68805   0.27357   0.63628   0.00000  Uiso   1.00
C12    C     0.66356   0.32463   0.62644   0.00000  Uiso   1.00
C13    C     0.59639   0.38524   0.62209   0.00000  Uiso   1.00
C14    C     0.89047   0.38905   0.56437   0.00000  Uiso   1.00
C15    C     0.88436   0.33308   0.47976   0.00000  Uiso   1.00
C16    C     0.92151   0.35052   0.38209   0.00000  Uiso   1.00
C17    C     0.90845   0.29130   0.31584   0.00000  Uiso   1.00
C18    C     0.91470   0.36765   0.66758   0.00000  Uiso   1.00
C19    C     0.97736   0.41416   0.72783   0.00000  Uiso   1.00
C20    C     0.98984   0.38404   0.81970   0.00000  Uiso   1.00
C21    C     0.81118   0.37312   0.58415   0.00000  Uiso   1.00
C22    C     0.78680   0.42423   0.57429   0.00000  Uiso   1.00
C23    C     0.71213   0.39873   0.59596   0.00000  Uiso   1.00
H24    H     0.76347   0.19530   0.64407   0.00000  Uiso   1.00
H25    H     0.78524   0.14263   0.46764   0.00000  Uiso   1.00
H26    H     0.84107   0.20626   0.81333   0.00000  Uiso   1.00
H27    H     0.65055   0.21633   0.65982   0.00000  Uiso   1.00
H28    H     0.83078   0.11685   0.25864   0.00000  Uiso   1.00
H29    H     0.94849   0.25103   0.98756   0.00000  Uiso   1.00
H30    H     0.54673   0.27227   0.66386   0.00000  Uiso   1.00
H31    H     0.92821   0.44664   0.54068   0.00000  Uiso   1.00
H32    H     0.95903   0.40776   0.35857   0.00000  Uiso   1.00
H33    H     0.01486   0.47139   0.70426   0.00000  Uiso   1.00
H34    H     0.82433   0.48146   0.55075   0.00000  Uiso   1.00
H35    H     0.97183   0.33204   0.17011   0.00000  Uiso   1.00
H36    H     0.08955   0.46622   0.89905   0.00000  Uiso   1.00
H37    H     0.68779   0.48746   0.57533   0.00000  Uiso   1.00
O38    O     0.91862   0.19433   0.09646   0.00000  Uiso   1.00
O39    O     0.07305   0.37037   0.05279   0.00000  Uiso   1.00
O40    O     0.54595   0.39824   0.62809   0.00000  Uiso   1.00
N41    N     0.85974   0.17283   0.26278   0.00000  Uiso   1.00
N42    N     0.96980   0.29828   0.94428   0.00000  Uiso   1.00
N43    N     0.59419   0.31814   0.64167   0.00000  Uiso   1.00
N44    N     0.93564   0.28862   0.21515   0.00000  Uiso   1.00
N45    N     0.04570   0.41407   0.89665   0.00000  Uiso   1.00
N46    N     0.67009   0.43393   0.59403   0.00000  Uiso   1.00
C47    C     0.74712   0.54833   0.95371   0.00000  Uiso   1.00
C48    C     0.74088   0.57676   0.84351   0.00000  Uiso   1.00
C49    C     0.80014   0.62290   0.77740   0.00000  Uiso   1.00
C50    C     0.78280   0.64268   0.67966   0.00000  Uiso   1.00
C51    C     0.78437   0.69074   0.51320   0.00000  Uiso   1.00
C52    C     0.70631   0.57253   0.03133   0.00000  Uiso   1.00
C53    C     0.73650   0.61511   0.12314   0.00000  Uiso   1.00
C54    C     0.69005   0.63132   0.18351   0.00000  Uiso   1.00
C55    C     0.63794   0.67277   0.30868   0.00000  Uiso   1.00
C56    C     0.70084   0.46354   0.94791   0.00000  Uiso   1.00
C57    C     0.72643   0.41447   0.96961   0.00000  Uiso   1.00
C58    C     0.67537   0.33892   0.95977   0.00000  Uiso   1.00
C59    C     0.61476   0.21115   0.95543   0.00000  Uiso   1.00
C60    C     0.61095   0.50141   0.89770   0.00000  Uiso   1.00
C61    C     0.66692   0.55128   0.81309   0.00000  Uiso   1.00
C62    C     0.64948   0.57099   0.71542   0.00000  Uiso   1.00
C63    C     0.70870   0.61715   0.64917   0.00000  Uiso   1.00
C64    C     0.63235   0.54705   0.00091   0.00000  Uiso   1.00
C65    C     0.58584   0.56320   0.06116   0.00000  Uiso   1.00
C66    C     0.61596   0.60579   0.15303   0.00000  Uiso   1.00
C67    C     0.62688   0.43806   0.91749   0.00000  Uiso   1.00
C68    C     0.57577   0.36257   0.90763   0.00000  Uiso   1.00
C69    C     0.60127   0.31340   0.92930   0.00000  Uiso   1.00
H70    H     0.80470   0.56817   0.97741   0.00000  Uiso   1.00
H71    H     0.85737   0.64261   0.80098   0.00000  Uiso   1.00
H72    H     0.79374   0.63481   0.14667   0.00000  Uiso   1.00
H73    H     0.78367   0.43421   0.99315   0.00000  Uiso   1.00
H74    H     0.88315   0.71393   0.59197   0.00000  Uiso   1.00
H75    H     0.74897   0.69747   0.32090   0.00000  Uiso   1.00
H76    H     0.72773   0.27446   0.99719   0.00000  Uiso   1.00
H77    H     0.55336   0.48157   0.87401   0.00000  Uiso   1.00
H78    H     0.59224   0.55127   0.69190   0.00000  Uiso   1.00
H79    H     0.52861   0.54347   0.03760   0.00000  Uiso   1.00
H80    H     0.51854   0.34287   0.88408   0.00000  Uiso   1.00
H81    H     0.66796   0.63980   0.50344   0.00000  Uiso   1.00
H82    H     0.53378   0.62333   0.23238   0.00000  Uiso   1.00
H83    H     0.51254   0.20033   0.90866   0.00000  Uiso   1.00
O84    O     0.80567   0.72429   0.42979   0.00000  Uiso   1.00
O85    O     0.62963   0.70268   0.38613   0.00000  Uiso   1.00
O86    O     0.60176   0.14771   0.96142   0.00000  Uiso   1.00
N87    N     0.82717   0.68691   0.59612   0.00000  Uiso   1.00
N88    N     0.70172   0.67152   0.27761   0.00000  Uiso   1.00
N89    N     0.68186   0.27605   0.97500   0.00000  Uiso   1.00
N90    N     0.71138   0.64701   0.54848   0.00000  Uiso   1.00
N91    N     0.58593   0.63163   0.22998   0.00000  Uiso   1.00
N92    N     0.56607   0.23616   0.92736   0.00000  Uiso   1.00
C93    C     0.45167   0.19879   0.28705   0.00000  Uiso   1.00
C94    C     0.42324   0.16412   0.17685   0.00000  Uiso   1.00
C95    C     0.37710   0.17724   0.11073   0.00000  Uiso   1.00
C96    C     0.35732   0.14012   0.01299   0.00000  Uiso   1.00
C97    C     0.30926   0.09363   0.84653   0.00000  Uiso   1.00
C98    C     0.42747   0.13378   0.36466   0.00000  Uiso   1.00
C99    C     0.38489   0.12140   0.45647   0.00000  Uiso   1.00
C100   C     0.36868   0.05873   0.51684   0.00000  Uiso   1.00
C101   C     0.32723   0.96517   0.64202   0.00000  Uiso   1.00
C102   C     0.53646   0.23730   0.28125   0.00000  Uiso   1.00
C103   C     0.58553   0.31195   0.30294   0.00000  Uiso   1.00
C104   C     0.66108   0.33644   0.29311   0.00000  Uiso   1.00
C105   C     0.78885   0.40361   0.28876   0.00000  Uiso   1.00
C106   C     0.49859   0.10953   0.23103   0.00000  Uiso   1.00
C107   C     0.44872   0.11564   0.14643   0.00000  Uiso   1.00
C108   C     0.42901   0.07849   0.04876   0.00000  Uiso   1.00
C109   C     0.38285   0.09155   0.98251   0.00000  Uiso   1.00
C110   C     0.45295   0.08530   0.33424   0.00000  Uiso   1.00
C111   C     0.43680   0.02264   0.39450   0.00000  Uiso   1.00
C112   C     0.39421   0.01016   0.48637   0.00000  Uiso   1.00
C113   C     0.56194   0.18882   0.25082   0.00000  Uiso   1.00
C114   C     0.63743   0.21320   0.24096   0.00000  Uiso   1.00
C115   C     0.68660   0.28787   0.26263   0.00000  Uiso   1.00
H116   H     0.43183   0.23653   0.31074   0.00000  Uiso   1.00
H117   H     0.35739   0.21476   0.13431   0.00000  Uiso   1.00
H118   H     0.36519   0.15893   0.48000   0.00000  Uiso   1.00
H119   H     0.56579   0.34945   0.32649   0.00000  Uiso   1.00
H120   H     0.28607   0.16922   0.92530   0.00000  Uiso   1.00
H121   H     0.30253   0.05151   0.65423   0.00000  Uiso   1.00
H122   H     0.72554   0.45327   0.33052   0.00000  Uiso   1.00
H123   H     0.51843   0.07179   0.20735   0.00000  Uiso   1.00
H124   H     0.44873   0.04097   0.02523   0.00000  Uiso   1.00
H125   H     0.45653   0.98514   0.37093   0.00000  Uiso   1.00
H126   H     0.65713   0.17567   0.21742   0.00000  Uiso   1.00
H127   H     0.36020   0.02817   0.83678   0.00000  Uiso   1.00
H128   H     0.37667   0.91045   0.56571   0.00000  Uiso   1.00
H129   H     0.79967   0.31221   0.24200   0.00000  Uiso   1.00
O130   O     0.27571   0.08138   0.76312   0.00000  Uiso   1.00
O131   O     0.29732   0.92695   0.71946   0.00000  Uiso   1.00
O132   O     0.85229   0.45405   0.29475   0.00000  Uiso   1.00
N133   N     0.31309   0.14026   0.92945   0.00000  Uiso   1.00
N134   N     0.32848   0.03020   0.61095   0.00000  Uiso   1.00
N135   N     0.72395   0.40581   0.30833   0.00000  Uiso   1.00
N136   N     0.35299   0.06436   0.88182   0.00000  Uiso   1.00
N137   N     0.36837   0.95430   0.56331   0.00000  Uiso   1.00
N138   N     0.76384   0.32991   0.26070   0.00000  Uiso   1.00
C139   C     0.19879   0.74712   0.12038   0.00000  Uiso   1.00
C140   C     0.16412   0.74088   0.01018   0.00000  Uiso   1.00
C141   C     0.17724   0.80014   0.94406   0.00000  Uiso   1.00
C142   C     0.14012   0.78280   0.84632   0.00000  Uiso   1.00
C143   C     0.09363   0.78437   0.67986   0.00000  Uiso   1.00
C144   C     0.13378   0.70631   0.19800   0.00000  Uiso   1.00
C145   C     0.12140   0.73650   0.28981   0.00000  Uiso   1.00
C146   C     0.05873   0.69005   0.35018   0.00000  Uiso   1.00
C147   C     0.96517   0.63794   0.47535   0.00000  Uiso   1.00
C148   C     0.23730   0.70084   0.11458   0.00000  Uiso   1.00
C149   C     0.31195   0.72643   0.13628   0.00000  Uiso   1.00
C150   C     0.33644   0.67537   0.12644   0.00000  Uiso   1.00
C151   C     0.40361   0.61476   0.12209   0.00000  Uiso   1.00
C152   C     0.10953   0.61095   0.06437   0.00000  Uiso   1.00
C153   C     0.11564   0.66692   0.97976   0.00000  Uiso   1.00
C154   C     0.07849   0.64948   0.88209   0.00000  Uiso   1.00
C155   C     0.09155   0.70870   0.81584   0.00000  Uiso   1.00
C156   C     0.08530   0.63235   0.16758   0.00000  Uiso   1.00
C157   C     0.02264   0.58584   0.22783   0.00000  Uiso   1.00
C158   C     0.01016   0.61596   0.31970   0.00000  Uiso   1.00
C159   C     0.18882   0.62688   0.08415   0.00000  Uiso   1.00
C160   C     0.21320   0.57577   0.07429   0.00000  Uiso   1.00
C161   C     0.28787   0.60127   0.09596   0.00000  Uiso   1.00
H162   H     0.23653   0.80470   0.14407   0.00000  Uiso   1.00
H163   H     0.21476   0.85737   0.96764   0.00000  Uiso   1.00
H164   H     0.15893   0.79374   0.31333   0.00000  Uiso   1.00
H165   H     0.34945   0.78367   0.15982   0.00000  Uiso   1.00
H166   H     0.16922   0.88315   0.75864   0.00000  Uiso   1.00
H167   H     0.05151   0.74897   0.48756   0.00000  Uiso   1.00
H168   H     0.45327   0.72773   0.16386   0.00000  Uiso   1.00
H169   H     0.07179   0.55336   0.04068   0.00000  Uiso   1.00
H170   H     0.04097   0.59224   0.85857   0.00000  Uiso   1.00
H171   H     0.98514   0.52861   0.20426   0.00000  Uiso   1.00
H172   H     0.17567   0.51854   0.05075   0.00000  Uiso   1.00
H173   H     0.02817   0.66796   0.67011   0.00000  Uiso   1.00
H174   H     0.91045   0.53378   0.39905   0.00000  Uiso   1.00
H175   H     0.31221   0.51254   0.07533   0.00000  Uiso   1.00
O176   O     0.08138   0.80567   0.59646   0.00000  Uiso   1.00
O177   O     0.92695   0.62963   0.55279   0.00000  Uiso   1.00
O178   O     0.45405   0.60176   0.12809   0.00000  Uiso   1.00
N179   N     0.14026   0.82717   0.76278   0.00000  Uiso   1.00
N180   N     0.03020   0.70172   0.44428   0.00000  Uiso   1.00
N181   N     0.40581   0.68186   0.14167   0.00000  Uiso   1.00
N182   N     0.06436   0.71138   0.71515   0.00000  Uiso   1.00
N183   N     0.95430   0.58593   0.39665   0.00000  Uiso   1.00
N184   N     0.32991   0.56607   0.09403   0.00000  Uiso   1.00
C185   C     0.25288   0.45167   0.45371   0.00000  Uiso   1.00
C186   C     0.25912   0.42324   0.34351   0.00000  Uiso   1.00
C187   C     0.19986   0.37710   0.27740   0.00000  Uiso   1.00
C188   C     0.21720   0.35732   0.17966   0.00000  Uiso   1.00
C189   C     0.21563   0.30926   0.01320   0.00000  Uiso   1.00
C190   C     0.29369   0.42747   0.53133   0.00000  Uiso   1.00
C191   C     0.26350   0.38489   0.62314   0.00000  Uiso   1.00
C192   C     0.30995   0.36868   0.68351   0.00000  Uiso   1.00
C193   C     0.36206   0.32723   0.80868   0.00000  Uiso   1.00
C194   C     0.29916   0.53646   0.44791   0.00000  Uiso   1.00
C195   C     0.27357   0.58553   0.46961   0.00000  Uiso   1.00
C196   C     0.32463   0.66108   0.45977   0.00000  Uiso   1.00
C197   C     0.38524   0.78885   0.45543   0.00000  Uiso   1.00
C198   C     0.38905   0.49859   0.39770   0.00000  Uiso   1.00
C199   C     0.33308   0.44872   0.31309   0.00000  Uiso   1.00
C200   C     0.35052   0.42901   0.21542   0.00000  Uiso   1.00
C201   C     0.29130   0.38285   0.14917   0.00000  Uiso   1.00
C202   C     0.36765   0.45295   0.50091   0.00000  Uiso   1.00
C203   C     0.41416   0.43680   0.56116   0.00000  Uiso   1.00
C204   C     0.38404   0.39421   0.65303   0.00000  Uiso   1.00
C205   C     0.37312   0.56194   0.41749   0.00000  Uiso   1.00
C206   C     0.42423   0.63743   0.40763   0.00000  Uiso   1.00
C207   C     0.39873   0.68660   0.42930   0.00000  Uiso   1.00
H208   H     0.19530   0.43183   0.47741   0.00000  Uiso   1.00
H209   H     0.14263   0.35739   0.30098   0.00000  Uiso   1.00
H210   H     0.20626   0.36519   0.64667   0.00000  Uiso   1.00
H211   H     0.21633   0.56579   0.49315   0.00000  Uiso   1.00
H212   H     0.11685   0.28607   0.09197   0.00000  Uiso   1.00
H213   H     0.25103   0.30253   0.82090   0.00000  Uiso   1.00
H214   H     0.27227   0.72554   0.49719   0.00000  Uiso   1.00
H215   H     0.44664   0.51843   0.37401   0.00000  Uiso   1.00
H216   H     0.40776   0.44873   0.19190   0.00000  Uiso   1.00
H217   H     0.47139   0.45653   0.53760   0.00000  Uiso   1.00
H218   H     0.48146   0.65713   0.38408   0.00000  Uiso   1.00
H219   H     0.33204   0.36020   0.00344   0.00000  Uiso   1.00
H220   H     0.46622   0.37667   0.73238   0.00000  Uiso   1.00
H221   H     0.48746   0.79967   0.40866   0.00000  Uiso   1.00
O222   O     0.19433   0.27571   0.92979   0.00000  Uiso   1.00
O223   O     0.37037   0.29732   0.88613   0.00000  Uiso   1.00
O224   O     0.39824   0.85229   0.46142   0.00000  Uiso   1.00
N225   N     0.17283   0.31309   0.09612   0.00000  Uiso   1.00
N226   N     0.29828   0.32848   0.77761   0.00000  Uiso   1.00
N227   N     0.31814   0.72395   0.47500   0.00000  Uiso   1.00
N228   N     0.28862   0.35299   0.04848   0.00000  Uiso   1.00
N229   N     0.41407   0.36837   0.72998   0.00000  Uiso   1.00
N230   N     0.43393   0.76384   0.42736   0.00000  Uiso   1.00
C231   C     0.54833   0.80121   0.78705   0.00000  Uiso   1.00
C232   C     0.57676   0.83588   0.67685   0.00000  Uiso   1.00
C233   C     0.62290   0.82276   0.61073   0.00000  Uiso   1.00
C234   C     0.64268   0.85988   0.51299   0.00000  Uiso   1.00
C235   C     0.69074   0.90637   0.34653   0.00000  Uiso   1.00
C236   C     0.57253   0.86622   0.86466   0.00000  Uiso   1.00
C237   C     0.61511   0.87860   0.95647   0.00000  Uiso   1.00
C238   C     0.63132   0.94127   0.01684   0.00000  Uiso   1.00
C239   C     0.67277   0.03483   0.14202   0.00000  Uiso   1.00
C240   C     0.46354   0.76270   0.78125   0.00000  Uiso   1.00
C241   C     0.41447   0.68805   0.80294   0.00000  Uiso   1.00
C242   C     0.33892   0.66356   0.79311   0.00000  Uiso   1.00
C243   C     0.21115   0.59639   0.78876   0.00000  Uiso   1.00
C244   C     0.50141   0.89047   0.73103   0.00000  Uiso   1.00
C245   C     0.55128   0.88436   0.64643   0.00000  Uiso   1.00
C246   C     0.57099   0.92151   0.54876   0.00000  Uiso   1.00
C247   C     0.61715   0.90845   0.48251   0.00000  Uiso   1.00
C248   C     0.54705   0.91470   0.83424   0.00000  Uiso   1.00
C249   C     0.56320   0.97736   0.89450   0.00000  Uiso   1.00
C250   C     0.60579   0.98984   0.98637   0.00000  Uiso   1.00
C251   C     0.43806   0.81118   0.75082   0.00000  Uiso   1.00
C252   C     0.36257   0.78680   0.74096   0.00000  Uiso   1.00
C253   C     0.31340   0.71213   0.76263   0.00000  Uiso   1.00
H254   H     0.56817   0.76347   0.81074   0.00000  Uiso   1.00
H255   H     0.64261   0.78524   0.63431   0.00000  Uiso   1.00
H256   H     0.63481   0.84107   0.98000   0.00000  Uiso   1.00
H257   H     0.43421   0.65055   0.82649   0.00000  Uiso   1.00
H258   H     0.71393   0.83078   0.42530   0.00000  Uiso   1.00
H259   H     0.69747   0.94849   0.15423   0.00000  Uiso   1.00
H260   H     0.27446   0.54673   0.83052   0.00000  Uiso   1.00
H261   H     0.48157   0.92821   0.70735   0.00000  Uiso   1.00
H262   H     0.55127   0.95903   0.52523   0.00000  Uiso   1.00
H263   H     0.54347   0.01486   0.87093   0.00000  Uiso   1.00
H264   H     0.34287   0.82433   0.71742   0.00000  Uiso   1.00
H265   H     0.63980   0.97183   0.33678   0.00000  Uiso   1.00
H266   H     0.62333   0.08955   0.06571   0.00000  Uiso   1.00
H267   H     0.20033   0.68779   0.74200   0.00000  Uiso   1.00
O268   O     0.72429   0.91862   0.26312   0.00000  Uiso   1.00
O269   O     0.70268   0.07305   0.21946   0.00000  Uiso   1.00
O270   O     0.14771   0.54595   0.79475   0.00000  Uiso   1.00
N271   N     0.68691   0.85974   0.42945   0.00000  Uiso   1.00
N272   N     0.67152   0.96980   0.11095   0.00000  Uiso   1.00
N273   N     0.27605   0.59419   0.80833   0.00000  Uiso   1.00
N274   N     0.64701   0.93564   0.38182   0.00000  Uiso   1.00
N275   N     0.63163   0.04570   0.06331   0.00000  Uiso   1.00
N276   N     0.23616   0.67009   0.76070   0.00000  Uiso   1.00
