data_job_05394
_audit_creation_date              2018-12-19
_audit_creation_method            'Materials Studio'
_symmetry_space_group_name_H-M    'P1'
_symmetry_Int_Tables_number       1
_symmetry_cell_setting            triclinic
loop_
_symmetry_equiv_pos_as_xyz
  x,y,z
_cell_length_a                    17.8226
_cell_length_b                    9.9412
_cell_length_c                    30.7519
_cell_angle_alpha                 90.0000
_cell_angle_beta                  145.5463
_cell_angle_gamma                 90.0000
loop_
_atom_site_label
_atom_site_type_symbol
_atom_site_fract_x
_atom_site_fract_y
_atom_site_fract_z
_atom_site_U_iso_or_equiv
_atom_site_adp_type
_atom_site_occupancy
C1     C     0.98667   0.89608   0.15770   0.00000  Uiso   1.00
C2     C     0.97305   0.85191   0.10391   0.00000  Uiso   1.00
C3     C     0.87930   0.76252   0.04309   0.00000  Uiso   1.00
C4     C     0.88328   0.73511   0.00075   0.00000  Uiso   1.00
C5     C     0.84781   0.65737   0.91453   0.00000  Uiso   1.00
C6     C     0.12868   0.86272   0.23879   0.00000  Uiso   1.00
C7     C     0.16576   0.78243   0.29137   0.00000  Uiso   1.00
C8     C     0.30074   0.76414   0.36256   0.00000  Uiso   1.00
C9     C     0.50689   0.70326   0.48576   0.00000  Uiso   1.00
C10    C     0.97740   0.04917   0.15298   0.00000  Uiso   1.00
C11    C     0.88731   0.12567   0.13343   0.00000  Uiso   1.00
C12    C     0.89495   0.26436   0.13240   0.00000  Uiso   1.00
C13    C     0.86620   0.49298   0.12237   0.00000  Uiso   1.00
C14    C     0.16046   0.00637   0.19064   0.00000  Uiso   1.00
C15    C     0.06746   0.91182   0.12181   0.00000  Uiso   1.00
C16    C     0.07157   0.88454   0.07954   0.00000  Uiso   1.00
C17    C     0.97784   0.79513   0.01867   0.00000  Uiso   1.00
C18    C     0.22307   0.92262   0.25668   0.00000  Uiso   1.00
C19    C     0.35803   0.90446   0.32781   0.00000  Uiso   1.00
C20    C     0.39531   0.82416   0.38049   0.00000  Uiso   1.00
C21    C     0.07179   0.10908   0.17087   0.00000  Uiso   1.00
C22    C     0.07958   0.24769   0.16987   0.00000  Uiso   1.00
C23    C     0.98952   0.32438   0.15033   0.00000  Uiso   1.00
H24    H     0.91319   0.84944   0.14378   0.00000  Uiso   1.00
H25    H     0.80627   0.71617   0.02927   0.00000  Uiso   1.00
H26    H     0.09269   0.73610   0.27751   0.00000  Uiso   1.00
H27    H     0.81427   0.07927   0.11959   0.00000  Uiso   1.00
H28    H     0.72939   0.59480   0.91023   0.00000  Uiso   1.00
H29    H     0.33331   0.63685   0.43366   0.00000  Uiso   1.00
H30    H     0.74623   0.36051   0.10067   0.00000  Uiso   1.00
H31    H     0.23396   0.05301   0.20457   0.00000  Uiso   1.00
H32    H     0.14464   0.93092   0.09340   0.00000  Uiso   1.00
H33    H     0.43105   0.95084   0.34164   0.00000  Uiso   1.00
H34    H     0.15264   0.29401   0.18372   0.00000  Uiso   1.00
H35    H     0.00402   0.76909   0.96228   0.00000  Uiso   1.00
H36    H     0.60795   0.81114   0.48572   0.00000  Uiso   1.00
H37    H     0.02086   0.53480   0.15272   0.00000  Uiso   1.00
O38    O     0.80219   0.59792   0.86204   0.00000  Uiso   1.00
O39    O     0.59451   0.65311   0.54877   0.00000  Uiso   1.00
O40    O     0.82426   0.60253   0.11188   0.00000  Uiso   1.00
N41    N     0.80627   0.65260   0.93773   0.00000  Uiso   1.00
N42    N     0.37090   0.69189   0.42710   0.00000  Uiso   1.00
N43    N     0.82204   0.36845   0.11580   0.00000  Uiso   1.00
N44    N     0.95404   0.74638   0.96573   0.00000  Uiso   1.00
N45    N     0.51868   0.78568   0.45511   0.00000  Uiso   1.00
N46    N     0.96982   0.46224   0.14381   0.00000  Uiso   1.00
C47    C     0.01333   0.89608   0.34230   0.00000  Uiso   1.00
C48    C     0.02695   0.85191   0.39609   0.00000  Uiso   1.00
C49    C     0.12070   0.76252   0.45691   0.00000  Uiso   1.00
C50    C     0.11672   0.73511   0.49925   0.00000  Uiso   1.00
C51    C     0.15219   0.65737   0.58547   0.00000  Uiso   1.00
C52    C     0.87132   0.86272   0.26121   0.00000  Uiso   1.00
C53    C     0.83424   0.78243   0.20863   0.00000  Uiso   1.00
C54    C     0.69926   0.76414   0.13744   0.00000  Uiso   1.00
C55    C     0.49311   0.70326   0.01424   0.00000  Uiso   1.00
C56    C     0.02260   0.04917   0.34702   0.00000  Uiso   1.00
C57    C     0.11269   0.12567   0.36657   0.00000  Uiso   1.00
C58    C     0.10505   0.26436   0.36760   0.00000  Uiso   1.00
C59    C     0.13380   0.49298   0.37763   0.00000  Uiso   1.00
C60    C     0.83954   0.00637   0.30936   0.00000  Uiso   1.00
C61    C     0.93254   0.91182   0.37819   0.00000  Uiso   1.00
C62    C     0.92843   0.88454   0.42046   0.00000  Uiso   1.00
C63    C     0.02216   0.79513   0.48133   0.00000  Uiso   1.00
C64    C     0.77693   0.92262   0.24332   0.00000  Uiso   1.00
C65    C     0.64197   0.90446   0.17219   0.00000  Uiso   1.00
C66    C     0.60469   0.82416   0.11951   0.00000  Uiso   1.00
C67    C     0.92821   0.10908   0.32913   0.00000  Uiso   1.00
C68    C     0.92042   0.24769   0.33013   0.00000  Uiso   1.00
C69    C     0.01048   0.32438   0.34967   0.00000  Uiso   1.00
H70    H     0.08681   0.84944   0.35622   0.00000  Uiso   1.00
H71    H     0.19373   0.71617   0.47073   0.00000  Uiso   1.00
H72    H     0.90731   0.73610   0.22249   0.00000  Uiso   1.00
H73    H     0.18573   0.07927   0.38041   0.00000  Uiso   1.00
H74    H     0.27061   0.59480   0.58977   0.00000  Uiso   1.00
H75    H     0.66669   0.63685   0.06634   0.00000  Uiso   1.00
H76    H     0.25377   0.36051   0.39933   0.00000  Uiso   1.00
H77    H     0.76604   0.05301   0.29543   0.00000  Uiso   1.00
H78    H     0.85536   0.93092   0.40660   0.00000  Uiso   1.00
H79    H     0.56895   0.95084   0.15836   0.00000  Uiso   1.00
H80    H     0.84736   0.29401   0.31628   0.00000  Uiso   1.00
H81    H     0.99598   0.76909   0.53772   0.00000  Uiso   1.00
H82    H     0.39205   0.81114   0.01428   0.00000  Uiso   1.00
H83    H     0.97914   0.53480   0.34728   0.00000  Uiso   1.00
O84    O     0.19781   0.59792   0.63796   0.00000  Uiso   1.00
O85    O     0.40549   0.65311   0.95123   0.00000  Uiso   1.00
O86    O     0.17574   0.60253   0.38812   0.00000  Uiso   1.00
N87    N     0.19373   0.65260   0.56227   0.00000  Uiso   1.00
N88    N     0.62910   0.69189   0.07290   0.00000  Uiso   1.00
N89    N     0.17796   0.36845   0.38420   0.00000  Uiso   1.00
N90    N     0.04596   0.74638   0.53427   0.00000  Uiso   1.00
N91    N     0.48132   0.78568   0.04489   0.00000  Uiso   1.00
N92    N     0.03018   0.46224   0.35619   0.00000  Uiso   1.00
C93    C     0.01333   0.10392   0.84230   0.00000  Uiso   1.00
C94    C     0.02695   0.14809   0.89609   0.00000  Uiso   1.00
C95    C     0.12070   0.23748   0.95691   0.00000  Uiso   1.00
C96    C     0.11672   0.26489   0.99925   0.00000  Uiso   1.00
C97    C     0.15219   0.34263   0.08547   0.00000  Uiso   1.00
C98    C     0.87132   0.13728   0.76121   0.00000  Uiso   1.00
C99    C     0.83424   0.21757   0.70863   0.00000  Uiso   1.00
C100   C     0.69926   0.23586   0.63744   0.00000  Uiso   1.00
C101   C     0.49311   0.29674   0.51424   0.00000  Uiso   1.00
C102   C     0.02260   0.95083   0.84702   0.00000  Uiso   1.00
C103   C     0.11269   0.87433   0.86657   0.00000  Uiso   1.00
C104   C     0.10505   0.73564   0.86760   0.00000  Uiso   1.00
C105   C     0.13380   0.50702   0.87763   0.00000  Uiso   1.00
C106   C     0.83954   0.99363   0.80936   0.00000  Uiso   1.00
C107   C     0.93254   0.08818   0.87819   0.00000  Uiso   1.00
C108   C     0.92843   0.11546   0.92046   0.00000  Uiso   1.00
C109   C     0.02216   0.20487   0.98133   0.00000  Uiso   1.00
C110   C     0.77693   0.07738   0.74332   0.00000  Uiso   1.00
C111   C     0.64197   0.09554   0.67219   0.00000  Uiso   1.00
C112   C     0.60469   0.17584   0.61951   0.00000  Uiso   1.00
C113   C     0.92821   0.89092   0.82913   0.00000  Uiso   1.00
C114   C     0.92042   0.75231   0.83013   0.00000  Uiso   1.00
C115   C     0.01048   0.67562   0.84967   0.00000  Uiso   1.00
H116   H     0.08681   0.15056   0.85622   0.00000  Uiso   1.00
H117   H     0.19373   0.28383   0.97073   0.00000  Uiso   1.00
H118   H     0.90731   0.26390   0.72249   0.00000  Uiso   1.00
H119   H     0.18573   0.92073   0.88041   0.00000  Uiso   1.00
H120   H     0.27061   0.40520   0.08977   0.00000  Uiso   1.00
H121   H     0.66669   0.36315   0.56634   0.00000  Uiso   1.00
H122   H     0.25377   0.63949   0.89933   0.00000  Uiso   1.00
H123   H     0.76604   0.94699   0.79543   0.00000  Uiso   1.00
H124   H     0.85536   0.06908   0.90660   0.00000  Uiso   1.00
H125   H     0.56895   0.04916   0.65836   0.00000  Uiso   1.00
H126   H     0.84736   0.70599   0.81628   0.00000  Uiso   1.00
H127   H     0.99598   0.23091   0.03772   0.00000  Uiso   1.00
H128   H     0.39205   0.18886   0.51428   0.00000  Uiso   1.00
H129   H     0.97914   0.46520   0.84728   0.00000  Uiso   1.00
O130   O     0.19781   0.40208   0.13796   0.00000  Uiso   1.00
O131   O     0.40549   0.34689   0.45123   0.00000  Uiso   1.00
O132   O     0.17574   0.39747   0.88812   0.00000  Uiso   1.00
N133   N     0.19373   0.34740   0.06227   0.00000  Uiso   1.00
N134   N     0.62910   0.30811   0.57290   0.00000  Uiso   1.00
N135   N     0.17796   0.63155   0.88420   0.00000  Uiso   1.00
N136   N     0.04596   0.25362   0.03427   0.00000  Uiso   1.00
N137   N     0.48132   0.21432   0.54489   0.00000  Uiso   1.00
N138   N     0.03018   0.53776   0.85619   0.00000  Uiso   1.00
C139   C     0.98667   0.10392   0.65770   0.00000  Uiso   1.00
C140   C     0.97305   0.14809   0.60391   0.00000  Uiso   1.00
C141   C     0.87930   0.23748   0.54309   0.00000  Uiso   1.00
C142   C     0.88328   0.26489   0.50075   0.00000  Uiso   1.00
C143   C     0.84781   0.34263   0.41453   0.00000  Uiso   1.00
C144   C     0.12868   0.13728   0.73879   0.00000  Uiso   1.00
C145   C     0.16576   0.21757   0.79137   0.00000  Uiso   1.00
C146   C     0.30074   0.23586   0.86256   0.00000  Uiso   1.00
C147   C     0.50689   0.29674   0.98576   0.00000  Uiso   1.00
C148   C     0.97740   0.95083   0.65298   0.00000  Uiso   1.00
C149   C     0.88731   0.87433   0.63343   0.00000  Uiso   1.00
C150   C     0.89495   0.73564   0.63240   0.00000  Uiso   1.00
C151   C     0.86620   0.50702   0.62237   0.00000  Uiso   1.00
C152   C     0.16046   0.99363   0.69064   0.00000  Uiso   1.00
C153   C     0.06746   0.08818   0.62181   0.00000  Uiso   1.00
C154   C     0.07157   0.11546   0.57954   0.00000  Uiso   1.00
C155   C     0.97784   0.20487   0.51867   0.00000  Uiso   1.00
C156   C     0.22307   0.07738   0.75668   0.00000  Uiso   1.00
C157   C     0.35803   0.09554   0.82781   0.00000  Uiso   1.00
C158   C     0.39531   0.17584   0.88049   0.00000  Uiso   1.00
C159   C     0.07179   0.89092   0.67087   0.00000  Uiso   1.00
C160   C     0.07958   0.75231   0.66987   0.00000  Uiso   1.00
C161   C     0.98952   0.67562   0.65033   0.00000  Uiso   1.00
H162   H     0.91319   0.15056   0.64378   0.00000  Uiso   1.00
H163   H     0.80627   0.28383   0.52927   0.00000  Uiso   1.00
H164   H     0.09269   0.26390   0.77751   0.00000  Uiso   1.00
H165   H     0.81427   0.92073   0.61959   0.00000  Uiso   1.00
H166   H     0.72939   0.40520   0.41023   0.00000  Uiso   1.00
H167   H     0.33331   0.36315   0.93366   0.00000  Uiso   1.00
H168   H     0.74623   0.63949   0.60067   0.00000  Uiso   1.00
H169   H     0.23396   0.94699   0.70457   0.00000  Uiso   1.00
H170   H     0.14464   0.06908   0.59340   0.00000  Uiso   1.00
H171   H     0.43105   0.04916   0.84164   0.00000  Uiso   1.00
H172   H     0.15264   0.70599   0.68372   0.00000  Uiso   1.00
H173   H     0.00402   0.23091   0.46228   0.00000  Uiso   1.00
H174   H     0.60795   0.18886   0.98572   0.00000  Uiso   1.00
H175   H     0.02086   0.46520   0.65272   0.00000  Uiso   1.00
O176   O     0.80219   0.40208   0.36204   0.00000  Uiso   1.00
O177   O     0.59451   0.34689   0.04877   0.00000  Uiso   1.00
O178   O     0.82426   0.39747   0.61188   0.00000  Uiso   1.00
N179   N     0.80627   0.34740   0.43773   0.00000  Uiso   1.00
N180   N     0.37090   0.30811   0.92710   0.00000  Uiso   1.00
N181   N     0.82204   0.63155   0.61580   0.00000  Uiso   1.00
N182   N     0.95404   0.25362   0.46573   0.00000  Uiso   1.00
N183   N     0.51868   0.21432   0.95511   0.00000  Uiso   1.00
N184   N     0.96982   0.53776   0.64381   0.00000  Uiso   1.00
