data_job_02800
_audit_creation_date              2018-12-19
_audit_creation_method            'Materials Studio'
_symmetry_space_group_name_H-M    'P1'
_symmetry_Int_Tables_number       1
_symmetry_cell_setting            triclinic
loop_
_symmetry_equiv_pos_as_xyz
  x,y,z
_cell_length_a                    13.5151
_cell_length_b                    18.4606
_cell_length_c                    12.4411
_cell_angle_alpha                 90.0000
_cell_angle_beta                  105.1470
_cell_angle_gamma                 90.0000
loop_
_atom_site_label
_atom_site_type_symbol
_atom_site_fract_x
_atom_site_fract_y
_atom_site_fract_z
_atom_site_U_iso_or_equiv
_atom_site_adp_type
_atom_site_occupancy
C1     C     0.68365   0.61155   0.71281   0.00000  Uiso   1.00
C2     C     0.73313   0.55839   0.80502   0.00000  Uiso   1.00
C3     C     0.68822   0.53123   0.88501   0.00000  Uiso   1.00
C4     C     0.74610   0.48320   0.96219   0.00000  Uiso   1.00
C5     C     0.80786   0.40374   0.10584   0.00000  Uiso   1.00
C6     C     0.75652   0.67594   0.72611   0.00000  Uiso   1.00
C7     C     0.73128   0.74762   0.73974   0.00000  Uiso   1.00
C8     C     0.80885   0.79855   0.75048   0.00000  Uiso   1.00
C9     C     0.90691   0.90160   0.77152   0.00000  Uiso   1.00
C10    C     0.68647   0.57497   0.60376   0.00000  Uiso   1.00
C11    C     0.60233   0.56175   0.51449   0.00000  Uiso   1.00
C12    C     0.62093   0.52768   0.42221   0.00000  Uiso   1.00
C13    C     0.61022   0.47395   0.25329   0.00000  Uiso   1.00
C14    C     0.86631   0.57455   0.70763   0.00000  Uiso   1.00
C15    C     0.83234   0.53830   0.80221   0.00000  Uiso   1.00
C16    C     0.89031   0.49029   0.87929   0.00000  Uiso   1.00
C17    C     0.84549   0.46306   0.95938   0.00000  Uiso   1.00
C18    C     0.85573   0.65585   0.72330   0.00000  Uiso   1.00
C19    C     0.93336   0.70669   0.73401   0.00000  Uiso   1.00
C20    C     0.90824   0.77842   0.74766   0.00000  Uiso   1.00
C21    C     0.78568   0.55487   0.60095   0.00000  Uiso   1.00
C22    C     0.80442   0.52082   0.50878   0.00000  Uiso   1.00
C23    C     0.72032   0.50755   0.41939   0.00000  Uiso   1.00
H24    H     0.60641   0.62720   0.71500   0.00000  Uiso   1.00
H25    H     0.61144   0.54680   0.88716   0.00000  Uiso   1.00
H26    H     0.65449   0.76315   0.74190   0.00000  Uiso   1.00
H27    H     0.52557   0.57731   0.51670   0.00000  Uiso   1.00
H28    H     0.66079   0.44881   0.07683   0.00000  Uiso   1.00
H29    H     0.75155   0.90502   0.77049   0.00000  Uiso   1.00
H30    H     0.47968   0.51314   0.29561   0.00000  Uiso   1.00
H31    H     0.94355   0.55891   0.70545   0.00000  Uiso   1.00
H32    H     0.96708   0.47475   0.87709   0.00000  Uiso   1.00
H33    H     0.01013   0.69112   0.73183   0.00000  Uiso   1.00
H34    H     0.88120   0.50528   0.50663   0.00000  Uiso   1.00
H35    H     0.94944   0.39035   0.06866   0.00000  Uiso   1.00
H36    H     0.04019   0.84655   0.76231   0.00000  Uiso   1.00
H37    H     0.76833   0.45467   0.28744   0.00000  Uiso   1.00
O38    O     0.81453   0.36547   0.18585   0.00000  Uiso   1.00
O39    O     0.93359   0.96399   0.78392   0.00000  Uiso   1.00
O40    O     0.57690   0.44986   0.16090   0.00000  Uiso   1.00
N41    N     0.72549   0.44659   0.05134   0.00000  Uiso   1.00
N42    N     0.81034   0.87311   0.76495   0.00000  Uiso   1.00
N43    N     0.55617   0.50676   0.32096   0.00000  Uiso   1.00
N44    N     0.88081   0.41513   0.04694   0.00000  Uiso   1.00
N45    N     0.96566   0.84165   0.76055   0.00000  Uiso   1.00
N46    N     0.71149   0.47530   0.31656   0.00000  Uiso   1.00
C47    C     0.31635   0.11155   0.78719   0.00000  Uiso   1.00
C48    C     0.26687   0.05839   0.69498   0.00000  Uiso   1.00
C49    C     0.31178   0.03123   0.61499   0.00000  Uiso   1.00
C50    C     0.25390   0.98320   0.53781   0.00000  Uiso   1.00
C51    C     0.19214   0.90374   0.39416   0.00000  Uiso   1.00
C52    C     0.24348   0.17594   0.77389   0.00000  Uiso   1.00
C53    C     0.26872   0.24762   0.76026   0.00000  Uiso   1.00
C54    C     0.19115   0.29855   0.74952   0.00000  Uiso   1.00
C55    C     0.09309   0.40160   0.72848   0.00000  Uiso   1.00
C56    C     0.31353   0.07497   0.89624   0.00000  Uiso   1.00
C57    C     0.39767   0.06175   0.98551   0.00000  Uiso   1.00
C58    C     0.37907   0.02768   0.07779   0.00000  Uiso   1.00
C59    C     0.38978   0.97395   0.24671   0.00000  Uiso   1.00
C60    C     0.13369   0.07455   0.79237   0.00000  Uiso   1.00
C61    C     0.16766   0.03830   0.69779   0.00000  Uiso   1.00
C62    C     0.10969   0.99029   0.62071   0.00000  Uiso   1.00
C63    C     0.15451   0.96306   0.54062   0.00000  Uiso   1.00
C64    C     0.14427   0.15585   0.77670   0.00000  Uiso   1.00
C65    C     0.06664   0.20669   0.76599   0.00000  Uiso   1.00
C66    C     0.09176   0.27842   0.75234   0.00000  Uiso   1.00
C67    C     0.21432   0.05487   0.89905   0.00000  Uiso   1.00
C68    C     0.19558   0.02082   0.99122   0.00000  Uiso   1.00
C69    C     0.27968   0.00755   0.08061   0.00000  Uiso   1.00
H70    H     0.39359   0.12720   0.78500   0.00000  Uiso   1.00
H71    H     0.38856   0.04680   0.61284   0.00000  Uiso   1.00
H72    H     0.34551   0.26315   0.75810   0.00000  Uiso   1.00
H73    H     0.47443   0.07731   0.98330   0.00000  Uiso   1.00
H74    H     0.33921   0.94881   0.42317   0.00000  Uiso   1.00
H75    H     0.24845   0.40502   0.72951   0.00000  Uiso   1.00
H76    H     0.52032   0.01314   0.20439   0.00000  Uiso   1.00
H77    H     0.05645   0.05891   0.79455   0.00000  Uiso   1.00
H78    H     0.03292   0.97475   0.62291   0.00000  Uiso   1.00
H79    H     0.98987   0.19112   0.76817   0.00000  Uiso   1.00
H80    H     0.11880   0.00528   0.99337   0.00000  Uiso   1.00
H81    H     0.05056   0.89035   0.43134   0.00000  Uiso   1.00
H82    H     0.95981   0.34655   0.73769   0.00000  Uiso   1.00
H83    H     0.23167   0.95467   0.21256   0.00000  Uiso   1.00
O84    O     0.18547   0.86547   0.31415   0.00000  Uiso   1.00
O85    O     0.06641   0.46399   0.71608   0.00000  Uiso   1.00
O86    O     0.42310   0.94986   0.33910   0.00000  Uiso   1.00
N87    N     0.27451   0.94659   0.44866   0.00000  Uiso   1.00
N88    N     0.18966   0.37311   0.73505   0.00000  Uiso   1.00
N89    N     0.44383   0.00676   0.17904   0.00000  Uiso   1.00
N90    N     0.11919   0.91513   0.45306   0.00000  Uiso   1.00
N91    N     0.03434   0.34165   0.73945   0.00000  Uiso   1.00
N92    N     0.28851   0.97530   0.18344   0.00000  Uiso   1.00
C93    C     0.31635   0.38845   0.28719   0.00000  Uiso   1.00
C94    C     0.26687   0.44161   0.19498   0.00000  Uiso   1.00
C95    C     0.31178   0.46877   0.11499   0.00000  Uiso   1.00
C96    C     0.25390   0.51680   0.03781   0.00000  Uiso   1.00
C97    C     0.19214   0.59626   0.89416   0.00000  Uiso   1.00
C98    C     0.24348   0.32406   0.27389   0.00000  Uiso   1.00
C99    C     0.26872   0.25238   0.26026   0.00000  Uiso   1.00
C100   C     0.19115   0.20145   0.24952   0.00000  Uiso   1.00
C101   C     0.09309   0.09840   0.22848   0.00000  Uiso   1.00
C102   C     0.31353   0.42503   0.39624   0.00000  Uiso   1.00
C103   C     0.39767   0.43825   0.48551   0.00000  Uiso   1.00
C104   C     0.37907   0.47232   0.57779   0.00000  Uiso   1.00
C105   C     0.38978   0.52605   0.74671   0.00000  Uiso   1.00
C106   C     0.13369   0.42545   0.29237   0.00000  Uiso   1.00
C107   C     0.16766   0.46170   0.19779   0.00000  Uiso   1.00
C108   C     0.10969   0.50971   0.12071   0.00000  Uiso   1.00
C109   C     0.15451   0.53694   0.04062   0.00000  Uiso   1.00
C110   C     0.14427   0.34415   0.27670   0.00000  Uiso   1.00
C111   C     0.06664   0.29331   0.26599   0.00000  Uiso   1.00
C112   C     0.09176   0.22158   0.25234   0.00000  Uiso   1.00
C113   C     0.21432   0.44513   0.39905   0.00000  Uiso   1.00
C114   C     0.19558   0.47918   0.49122   0.00000  Uiso   1.00
C115   C     0.27968   0.49245   0.58061   0.00000  Uiso   1.00
H116   H     0.39359   0.37280   0.28500   0.00000  Uiso   1.00
H117   H     0.38856   0.45320   0.11284   0.00000  Uiso   1.00
H118   H     0.34551   0.23685   0.25810   0.00000  Uiso   1.00
H119   H     0.47443   0.42269   0.48330   0.00000  Uiso   1.00
H120   H     0.33921   0.55119   0.92317   0.00000  Uiso   1.00
H121   H     0.24845   0.09498   0.22951   0.00000  Uiso   1.00
H122   H     0.52032   0.48686   0.70439   0.00000  Uiso   1.00
H123   H     0.05645   0.44109   0.29455   0.00000  Uiso   1.00
H124   H     0.03292   0.52525   0.12291   0.00000  Uiso   1.00
H125   H     0.98987   0.30888   0.26817   0.00000  Uiso   1.00
H126   H     0.11880   0.49472   0.49337   0.00000  Uiso   1.00
H127   H     0.05056   0.60965   0.93134   0.00000  Uiso   1.00
H128   H     0.95981   0.15345   0.23769   0.00000  Uiso   1.00
H129   H     0.23167   0.54533   0.71256   0.00000  Uiso   1.00
O130   O     0.18547   0.63453   0.81415   0.00000  Uiso   1.00
O131   O     0.06641   0.03601   0.21608   0.00000  Uiso   1.00
O132   O     0.42310   0.55014   0.83910   0.00000  Uiso   1.00
N133   N     0.27451   0.55341   0.94866   0.00000  Uiso   1.00
N134   N     0.18966   0.12689   0.23505   0.00000  Uiso   1.00
N135   N     0.44383   0.49324   0.67904   0.00000  Uiso   1.00
N136   N     0.11919   0.58487   0.95306   0.00000  Uiso   1.00
N137   N     0.03434   0.15835   0.23945   0.00000  Uiso   1.00
N138   N     0.28851   0.52470   0.68344   0.00000  Uiso   1.00
C139   C     0.68365   0.88845   0.21281   0.00000  Uiso   1.00
C140   C     0.73313   0.94161   0.30502   0.00000  Uiso   1.00
C141   C     0.68822   0.96877   0.38501   0.00000  Uiso   1.00
C142   C     0.74610   0.01680   0.46219   0.00000  Uiso   1.00
C143   C     0.80786   0.09626   0.60584   0.00000  Uiso   1.00
C144   C     0.75652   0.82406   0.22611   0.00000  Uiso   1.00
C145   C     0.73128   0.75238   0.23974   0.00000  Uiso   1.00
C146   C     0.80885   0.70145   0.25048   0.00000  Uiso   1.00
C147   C     0.90691   0.59840   0.27152   0.00000  Uiso   1.00
C148   C     0.68647   0.92503   0.10376   0.00000  Uiso   1.00
C149   C     0.60233   0.93825   0.01449   0.00000  Uiso   1.00
C150   C     0.62093   0.97232   0.92221   0.00000  Uiso   1.00
C151   C     0.61022   0.02605   0.75329   0.00000  Uiso   1.00
C152   C     0.86631   0.92545   0.20763   0.00000  Uiso   1.00
C153   C     0.83234   0.96170   0.30221   0.00000  Uiso   1.00
C154   C     0.89031   0.00971   0.37929   0.00000  Uiso   1.00
C155   C     0.84549   0.03694   0.45938   0.00000  Uiso   1.00
C156   C     0.85573   0.84415   0.22330   0.00000  Uiso   1.00
C157   C     0.93336   0.79331   0.23401   0.00000  Uiso   1.00
C158   C     0.90824   0.72158   0.24766   0.00000  Uiso   1.00
C159   C     0.78568   0.94513   0.10095   0.00000  Uiso   1.00
C160   C     0.80442   0.97918   0.00878   0.00000  Uiso   1.00
C161   C     0.72032   0.99245   0.91939   0.00000  Uiso   1.00
H162   H     0.60641   0.87280   0.21500   0.00000  Uiso   1.00
H163   H     0.61144   0.95320   0.38716   0.00000  Uiso   1.00
H164   H     0.65449   0.73685   0.24190   0.00000  Uiso   1.00
H165   H     0.52557   0.92269   0.01670   0.00000  Uiso   1.00
H166   H     0.66079   0.05119   0.57683   0.00000  Uiso   1.00
H167   H     0.75155   0.59498   0.27049   0.00000  Uiso   1.00
H168   H     0.47968   0.98686   0.79561   0.00000  Uiso   1.00
H169   H     0.94355   0.94109   0.20545   0.00000  Uiso   1.00
H170   H     0.96708   0.02525   0.37709   0.00000  Uiso   1.00
H171   H     0.01013   0.80888   0.23183   0.00000  Uiso   1.00
H172   H     0.88120   0.99472   0.00663   0.00000  Uiso   1.00
H173   H     0.94944   0.10965   0.56866   0.00000  Uiso   1.00
H174   H     0.04019   0.65345   0.26231   0.00000  Uiso   1.00
H175   H     0.76833   0.04533   0.78744   0.00000  Uiso   1.00
O176   O     0.81453   0.13453   0.68585   0.00000  Uiso   1.00
O177   O     0.93359   0.53601   0.28392   0.00000  Uiso   1.00
O178   O     0.57690   0.05014   0.66090   0.00000  Uiso   1.00
N179   N     0.72549   0.05341   0.55134   0.00000  Uiso   1.00
N180   N     0.81034   0.62689   0.26495   0.00000  Uiso   1.00
N181   N     0.55617   0.99324   0.82096   0.00000  Uiso   1.00
N182   N     0.88081   0.08487   0.54694   0.00000  Uiso   1.00
N183   N     0.96566   0.65835   0.26055   0.00000  Uiso   1.00
N184   N     0.71149   0.02470   0.81656   0.00000  Uiso   1.00
