data_job_05232
_audit_creation_date              2018-12-19
_audit_creation_method            'Materials Studio'
_symmetry_space_group_name_H-M    'P1'
_symmetry_Int_Tables_number       1
_symmetry_cell_setting            triclinic
loop_
_symmetry_equiv_pos_as_xyz
  x,y,z
_cell_length_a                    9.1403
_cell_length_b                    15.8511
_cell_length_c                    23.4056
_cell_angle_alpha                 90.0000
_cell_angle_beta                  90.0000
_cell_angle_gamma                 90.0000
loop_
_atom_site_label
_atom_site_type_symbol
_atom_site_fract_x
_atom_site_fract_y
_atom_site_fract_z
_atom_site_U_iso_or_equiv
_atom_site_adp_type
_atom_site_occupancy
C1     C     0.88052   0.23216   0.08192   0.00000  Uiso   1.00
C2     C     0.91417   0.30372   0.04041   0.00000  Uiso   1.00
C3     C     0.01270   0.30008   0.99537   0.00000  Uiso   1.00
C4     C     0.02789   0.37229   0.96232   0.00000  Uiso   1.00
C5     C     0.09245   0.47229   0.89611   0.00000  Uiso   1.00
C6     C     0.91004   0.26717   0.14150   0.00000  Uiso   1.00
C7     C     0.00509   0.23279   0.18145   0.00000  Uiso   1.00
C8     C     0.01678   0.27424   0.23351   0.00000  Uiso   1.00
C9     C     0.07485   0.31746   0.32426   0.00000  Uiso   1.00
C10    C     0.71576   0.21790   0.07854   0.00000  Uiso   1.00
C11    C     0.64743   0.14209   0.06557   0.00000  Uiso   1.00
C12    C     0.49555   0.14205   0.06463   0.00000  Uiso   1.00
C13    C     0.25196   0.10878   0.05763   0.00000  Uiso   1.00
C14    C     0.73227   0.36687   0.10334   0.00000  Uiso   1.00
C15    C     0.83365   0.37689   0.05205   0.00000  Uiso   1.00
C16    C     0.84868   0.44913   0.01906   0.00000  Uiso   1.00
C17    C     0.94722   0.44560   0.97398   0.00000  Uiso   1.00
C18    C     0.82953   0.34034   0.15313   0.00000  Uiso   1.00
C19    C     0.84107   0.38184   0.20515   0.00000  Uiso   1.00
C20    C     0.93612   0.34754   0.24517   0.00000  Uiso   1.00
C21    C     0.63523   0.29108   0.09017   0.00000  Uiso   1.00
C22    C     0.48342   0.29115   0.08926   0.00000  Uiso   1.00
C23    C     0.41488   0.21536   0.07629   0.00000  Uiso   1.00
H24    H     0.94321   0.17519   0.07287   0.00000  Uiso   1.00
H25    H     0.07501   0.24344   0.98638   0.00000  Uiso   1.00
H26    H     0.06738   0.17616   0.17244   0.00000  Uiso   1.00
H27    H     0.70978   0.08548   0.05657   0.00000  Uiso   1.00
H28    H     0.18566   0.35139   0.89563   0.00000  Uiso   1.00
H29    H     0.16954   0.20952   0.28796   0.00000  Uiso   1.00
H30    H     0.41547   0.01830   0.04363   0.00000  Uiso   1.00
H31    H     0.66958   0.42385   0.11240   0.00000  Uiso   1.00
H32    H     0.78636   0.50575   0.02808   0.00000  Uiso   1.00
H33    H     0.77873   0.43847   0.21414   0.00000  Uiso   1.00
H34    H     0.42114   0.34779   0.09827   0.00000  Uiso   1.00
H35    H     0.95138   0.56429   0.92948   0.00000  Uiso   1.00
H36    H     0.93526   0.42241   0.32181   0.00000  Uiso   1.00
H37    H     0.18120   0.23120   0.07747   0.00000  Uiso   1.00
O38    O     0.15031   0.50724   0.85638   0.00000  Uiso   1.00
O39    O     0.12915   0.32109   0.37110   0.00000  Uiso   1.00
O40    O     0.13984   0.07022   0.05054   0.00000  Uiso   1.00
N41    N     0.11447   0.39025   0.91516   0.00000  Uiso   1.00
N42    N     0.09942   0.25761   0.28196   0.00000  Uiso   1.00
N43    N     0.39444   0.07883   0.05355   0.00000  Uiso   1.00
N44    N     0.98841   0.50481   0.93337   0.00000  Uiso   1.00
N45    N     0.97336   0.37217   0.30017   0.00000  Uiso   1.00
N46    N     0.26837   0.19339   0.07176   0.00000  Uiso   1.00
C47    C     0.11948   0.76784   0.58192   0.00000  Uiso   1.00
C48    C     0.08583   0.69628   0.54041   0.00000  Uiso   1.00
C49    C     0.98730   0.69992   0.49537   0.00000  Uiso   1.00
C50    C     0.97211   0.62771   0.46232   0.00000  Uiso   1.00
C51    C     0.90755   0.52771   0.39611   0.00000  Uiso   1.00
C52    C     0.08996   0.73283   0.64150   0.00000  Uiso   1.00
C53    C     0.99491   0.76721   0.68145   0.00000  Uiso   1.00
C54    C     0.98322   0.72576   0.73351   0.00000  Uiso   1.00
C55    C     0.92515   0.68254   0.82426   0.00000  Uiso   1.00
C56    C     0.28424   0.78210   0.57854   0.00000  Uiso   1.00
C57    C     0.35257   0.85791   0.56557   0.00000  Uiso   1.00
C58    C     0.50445   0.85795   0.56463   0.00000  Uiso   1.00
C59    C     0.74804   0.89122   0.55763   0.00000  Uiso   1.00
C60    C     0.26773   0.63313   0.60334   0.00000  Uiso   1.00
C61    C     0.16635   0.62311   0.55205   0.00000  Uiso   1.00
C62    C     0.15132   0.55087   0.51906   0.00000  Uiso   1.00
C63    C     0.05278   0.55440   0.47398   0.00000  Uiso   1.00
C64    C     0.17047   0.65966   0.65313   0.00000  Uiso   1.00
C65    C     0.15893   0.61816   0.70515   0.00000  Uiso   1.00
C66    C     0.06388   0.65246   0.74517   0.00000  Uiso   1.00
C67    C     0.36477   0.70892   0.59017   0.00000  Uiso   1.00
C68    C     0.51658   0.70885   0.58926   0.00000  Uiso   1.00
C69    C     0.58512   0.78464   0.57629   0.00000  Uiso   1.00
H70    H     0.05679   0.82481   0.57287   0.00000  Uiso   1.00
H71    H     0.92499   0.75656   0.48638   0.00000  Uiso   1.00
H72    H     0.93262   0.82384   0.67244   0.00000  Uiso   1.00
H73    H     0.29022   0.91452   0.55657   0.00000  Uiso   1.00
H74    H     0.81434   0.64861   0.39563   0.00000  Uiso   1.00
H75    H     0.83046   0.79048   0.78796   0.00000  Uiso   1.00
H76    H     0.58453   0.98170   0.54363   0.00000  Uiso   1.00
H77    H     0.33042   0.57615   0.61240   0.00000  Uiso   1.00
H78    H     0.21364   0.49425   0.52808   0.00000  Uiso   1.00
H79    H     0.22127   0.56153   0.71414   0.00000  Uiso   1.00
H80    H     0.57886   0.65221   0.59827   0.00000  Uiso   1.00
H81    H     0.04862   0.43571   0.42948   0.00000  Uiso   1.00
H82    H     0.06474   0.57759   0.82181   0.00000  Uiso   1.00
H83    H     0.81880   0.76880   0.57747   0.00000  Uiso   1.00
O84    O     0.84969   0.49276   0.35638   0.00000  Uiso   1.00
O85    O     0.87085   0.67891   0.87110   0.00000  Uiso   1.00
O86    O     0.86016   0.92978   0.55054   0.00000  Uiso   1.00
N87    N     0.88553   0.60975   0.41516   0.00000  Uiso   1.00
N88    N     0.90058   0.74239   0.78196   0.00000  Uiso   1.00
N89    N     0.60556   0.92117   0.55355   0.00000  Uiso   1.00
N90    N     0.01159   0.49519   0.43337   0.00000  Uiso   1.00
N91    N     0.02664   0.62783   0.80017   0.00000  Uiso   1.00
N92    N     0.73163   0.80661   0.57176   0.00000  Uiso   1.00
C93    C     0.38052   0.76784   0.08192   0.00000  Uiso   1.00
C94    C     0.41417   0.69628   0.04041   0.00000  Uiso   1.00
C95    C     0.51270   0.69992   0.99537   0.00000  Uiso   1.00
C96    C     0.52789   0.62771   0.96232   0.00000  Uiso   1.00
C97    C     0.59245   0.52771   0.89611   0.00000  Uiso   1.00
C98    C     0.41004   0.73283   0.14150   0.00000  Uiso   1.00
C99    C     0.50509   0.76721   0.18145   0.00000  Uiso   1.00
C100   C     0.51678   0.72576   0.23351   0.00000  Uiso   1.00
C101   C     0.57485   0.68254   0.32426   0.00000  Uiso   1.00
C102   C     0.21576   0.78210   0.07854   0.00000  Uiso   1.00
C103   C     0.14743   0.85791   0.06557   0.00000  Uiso   1.00
C104   C     0.99555   0.85795   0.06463   0.00000  Uiso   1.00
C105   C     0.75196   0.89122   0.05763   0.00000  Uiso   1.00
C106   C     0.23227   0.63313   0.10334   0.00000  Uiso   1.00
C107   C     0.33365   0.62311   0.05205   0.00000  Uiso   1.00
C108   C     0.34868   0.55087   0.01906   0.00000  Uiso   1.00
C109   C     0.44722   0.55440   0.97398   0.00000  Uiso   1.00
C110   C     0.32953   0.65966   0.15313   0.00000  Uiso   1.00
C111   C     0.34107   0.61816   0.20515   0.00000  Uiso   1.00
C112   C     0.43612   0.65246   0.24517   0.00000  Uiso   1.00
C113   C     0.13523   0.70892   0.09017   0.00000  Uiso   1.00
C114   C     0.98342   0.70885   0.08926   0.00000  Uiso   1.00
C115   C     0.91488   0.78464   0.07629   0.00000  Uiso   1.00
H116   H     0.44321   0.82481   0.07287   0.00000  Uiso   1.00
H117   H     0.57501   0.75656   0.98638   0.00000  Uiso   1.00
H118   H     0.56738   0.82384   0.17244   0.00000  Uiso   1.00
H119   H     0.20978   0.91452   0.05657   0.00000  Uiso   1.00
H120   H     0.68566   0.64861   0.89563   0.00000  Uiso   1.00
H121   H     0.66954   0.79048   0.28796   0.00000  Uiso   1.00
H122   H     0.91547   0.98170   0.04363   0.00000  Uiso   1.00
H123   H     0.16958   0.57615   0.11240   0.00000  Uiso   1.00
H124   H     0.28636   0.49425   0.02808   0.00000  Uiso   1.00
H125   H     0.27873   0.56153   0.21414   0.00000  Uiso   1.00
H126   H     0.92114   0.65221   0.09827   0.00000  Uiso   1.00
H127   H     0.45138   0.43571   0.92948   0.00000  Uiso   1.00
H128   H     0.43526   0.57759   0.32181   0.00000  Uiso   1.00
H129   H     0.68120   0.76880   0.07747   0.00000  Uiso   1.00
O130   O     0.65031   0.49276   0.85638   0.00000  Uiso   1.00
O131   O     0.62915   0.67891   0.37110   0.00000  Uiso   1.00
O132   O     0.63984   0.92978   0.05054   0.00000  Uiso   1.00
N133   N     0.61447   0.60975   0.91516   0.00000  Uiso   1.00
N134   N     0.59942   0.74239   0.28196   0.00000  Uiso   1.00
N135   N     0.89444   0.92117   0.05355   0.00000  Uiso   1.00
N136   N     0.48841   0.49519   0.93337   0.00000  Uiso   1.00
N137   N     0.47336   0.62783   0.30017   0.00000  Uiso   1.00
N138   N     0.76837   0.80661   0.07176   0.00000  Uiso   1.00
C139   C     0.61948   0.23216   0.58192   0.00000  Uiso   1.00
C140   C     0.58583   0.30372   0.54041   0.00000  Uiso   1.00
C141   C     0.48730   0.30008   0.49537   0.00000  Uiso   1.00
C142   C     0.47211   0.37229   0.46232   0.00000  Uiso   1.00
C143   C     0.40755   0.47229   0.39611   0.00000  Uiso   1.00
C144   C     0.58996   0.26717   0.64150   0.00000  Uiso   1.00
C145   C     0.49491   0.23279   0.68145   0.00000  Uiso   1.00
C146   C     0.48322   0.27424   0.73351   0.00000  Uiso   1.00
C147   C     0.42515   0.31746   0.82426   0.00000  Uiso   1.00
C148   C     0.78424   0.21790   0.57854   0.00000  Uiso   1.00
C149   C     0.85257   0.14209   0.56557   0.00000  Uiso   1.00
C150   C     0.00445   0.14205   0.56463   0.00000  Uiso   1.00
C151   C     0.24804   0.10878   0.55763   0.00000  Uiso   1.00
C152   C     0.76773   0.36687   0.60334   0.00000  Uiso   1.00
C153   C     0.66635   0.37689   0.55205   0.00000  Uiso   1.00
C154   C     0.65132   0.44913   0.51906   0.00000  Uiso   1.00
C155   C     0.55278   0.44560   0.47398   0.00000  Uiso   1.00
C156   C     0.67047   0.34034   0.65313   0.00000  Uiso   1.00
C157   C     0.65893   0.38184   0.70515   0.00000  Uiso   1.00
C158   C     0.56388   0.34754   0.74517   0.00000  Uiso   1.00
C159   C     0.86477   0.29108   0.59017   0.00000  Uiso   1.00
C160   C     0.01658   0.29115   0.58926   0.00000  Uiso   1.00
C161   C     0.08512   0.21536   0.57629   0.00000  Uiso   1.00
H162   H     0.55679   0.17519   0.57287   0.00000  Uiso   1.00
H163   H     0.42499   0.24344   0.48638   0.00000  Uiso   1.00
H164   H     0.43262   0.17616   0.67244   0.00000  Uiso   1.00
H165   H     0.79022   0.08548   0.55657   0.00000  Uiso   1.00
H166   H     0.31434   0.35139   0.39563   0.00000  Uiso   1.00
H167   H     0.33046   0.20952   0.78796   0.00000  Uiso   1.00
H168   H     0.08453   0.01830   0.54363   0.00000  Uiso   1.00
H169   H     0.83042   0.42385   0.61240   0.00000  Uiso   1.00
H170   H     0.71364   0.50575   0.52808   0.00000  Uiso   1.00
H171   H     0.72127   0.43847   0.71414   0.00000  Uiso   1.00
H172   H     0.07886   0.34779   0.59827   0.00000  Uiso   1.00
H173   H     0.54862   0.56429   0.42948   0.00000  Uiso   1.00
H174   H     0.56474   0.42241   0.82181   0.00000  Uiso   1.00
H175   H     0.31880   0.23120   0.57747   0.00000  Uiso   1.00
O176   O     0.34969   0.50724   0.35638   0.00000  Uiso   1.00
O177   O     0.37085   0.32109   0.87110   0.00000  Uiso   1.00
O178   O     0.36016   0.07022   0.55054   0.00000  Uiso   1.00
N179   N     0.38553   0.39025   0.41516   0.00000  Uiso   1.00
N180   N     0.40058   0.25761   0.78196   0.00000  Uiso   1.00
N181   N     0.10556   0.07883   0.55355   0.00000  Uiso   1.00
N182   N     0.51159   0.50481   0.43337   0.00000  Uiso   1.00
N183   N     0.52664   0.37217   0.80017   0.00000  Uiso   1.00
N184   N     0.23163   0.19339   0.57176   0.00000  Uiso   1.00
