data_job_04916
_audit_creation_date              2018-12-19
_audit_creation_method            'Materials Studio'
_symmetry_space_group_name_H-M    'P1'
_symmetry_Int_Tables_number       1
_symmetry_cell_setting            triclinic
loop_
_symmetry_equiv_pos_as_xyz
  x,y,z
_cell_length_a                    29.8078
_cell_length_b                    12.4054
_cell_length_c                    12.6999
_cell_angle_alpha                 90.0000
_cell_angle_beta                  90.0000
_cell_angle_gamma                 90.0000
loop_
_atom_site_label
_atom_site_type_symbol
_atom_site_fract_x
_atom_site_fract_y
_atom_site_fract_z
_atom_site_U_iso_or_equiv
_atom_site_adp_type
_atom_site_occupancy
C1     C     0.38162   0.88521   0.26610   0.00000  Uiso   1.00
C2     C     0.36672   0.96758   0.34809   0.00000  Uiso   1.00
C3     C     0.34508   0.06429   0.32719   0.00000  Uiso   1.00
C4     C     0.33426   0.12850   0.41305   0.00000  Uiso   1.00
C5     C     0.30956   0.26121   0.52468   0.00000  Uiso   1.00
C6     C     0.43183   0.86932   0.28302   0.00000  Uiso   1.00
C7     C     0.46493   0.88340   0.20740   0.00000  Uiso   1.00
C8     C     0.50892   0.86488   0.23849   0.00000  Uiso   1.00
C9     C     0.58530   0.84496   0.24908   0.00000  Uiso   1.00
C10    C     0.35950   0.77903   0.29716   0.00000  Uiso   1.00
C11    C     0.33180   0.71717   0.23343   0.00000  Uiso   1.00
C12    C     0.31490   0.62261   0.27642   0.00000  Uiso   1.00
C13    C     0.27898   0.46250   0.30897   0.00000  Uiso   1.00
C14    C     0.40088   0.82727   0.45575   0.00000  Uiso   1.00
C15    C     0.37719   0.93611   0.45110   0.00000  Uiso   1.00
C16    C     0.36639   0.00018   0.53702   0.00000  Uiso   1.00
C17    C     0.34474   0.09697   0.51625   0.00000  Uiso   1.00
C18    C     0.44230   0.83785   0.38602   0.00000  Uiso   1.00
C19    C     0.48624   0.81930   0.41723   0.00000  Uiso   1.00
C20    C     0.51940   0.83335   0.34168   0.00000  Uiso   1.00
C21    C     0.36996   0.74756   0.40017   0.00000  Uiso   1.00
C22    C     0.35311   0.65307   0.44326   0.00000  Uiso   1.00
C23    C     0.32538   0.59108   0.37961   0.00000  Uiso   1.00
H24    H     0.37347   0.90971   0.18590   0.00000  Uiso   1.00
H25    H     0.33699   0.08862   0.24745   0.00000  Uiso   1.00
H26    H     0.45682   0.90775   0.12769   0.00000  Uiso   1.00
H27    H     0.32371   0.74155   0.15372   0.00000  Uiso   1.00
H28    H     0.30117   0.27311   0.36112   0.00000  Uiso   1.00
H29    H     0.55384   0.89170   0.10858   0.00000  Uiso   1.00
H30    H     0.27314   0.54123   0.16347   0.00000  Uiso   1.00
H31    H     0.40903   0.80276   0.53595   0.00000  Uiso   1.00
H32    H     0.37449   0.97581   0.61672   0.00000  Uiso   1.00
H33    H     0.49433   0.79494   0.49695   0.00000  Uiso   1.00
H34    H     0.36121   0.62874   0.52298   0.00000  Uiso   1.00
H35    H     0.33161   0.18155   0.66084   0.00000  Uiso   1.00
H36    H     0.58429   0.80013   0.40829   0.00000  Uiso   1.00
H37    H     0.30358   0.44967   0.46318   0.00000  Uiso   1.00
O38    O     0.29305   0.34311   0.55779   0.00000  Uiso   1.00
O39    O     0.62454   0.84269   0.22646   0.00000  Uiso   1.00
O40    O     0.25627   0.38289   0.29847   0.00000  Uiso   1.00
N41    N     0.31307   0.22781   0.42058   0.00000  Uiso   1.00
N42    N     0.54930   0.87122   0.18447   0.00000  Uiso   1.00
N43    N     0.28688   0.54355   0.23577   0.00000  Uiso   1.00
N44    N     0.32945   0.17854   0.58185   0.00000  Uiso   1.00
N45    N     0.56568   0.82195   0.34574   0.00000  Uiso   1.00
N46    N     0.30326   0.49428   0.39705   0.00000  Uiso   1.00
C47    C     0.11838   0.61479   0.26610   0.00000  Uiso   1.00
C48    C     0.13328   0.53242   0.34809   0.00000  Uiso   1.00
C49    C     0.15492   0.43571   0.32719   0.00000  Uiso   1.00
C50    C     0.16574   0.37150   0.41305   0.00000  Uiso   1.00
C51    C     0.19044   0.23879   0.52468   0.00000  Uiso   1.00
C52    C     0.06817   0.63068   0.28302   0.00000  Uiso   1.00
C53    C     0.03507   0.61660   0.20740   0.00000  Uiso   1.00
C54    C     0.99108   0.63512   0.23849   0.00000  Uiso   1.00
C55    C     0.91470   0.65504   0.24908   0.00000  Uiso   1.00
C56    C     0.14050   0.72097   0.29716   0.00000  Uiso   1.00
C57    C     0.16820   0.78283   0.23343   0.00000  Uiso   1.00
C58    C     0.18510   0.87739   0.27642   0.00000  Uiso   1.00
C59    C     0.22102   0.03750   0.30897   0.00000  Uiso   1.00
C60    C     0.09912   0.67273   0.45575   0.00000  Uiso   1.00
C61    C     0.12281   0.56389   0.45110   0.00000  Uiso   1.00
C62    C     0.13361   0.49982   0.53702   0.00000  Uiso   1.00
C63    C     0.15526   0.40303   0.51625   0.00000  Uiso   1.00
C64    C     0.05770   0.66215   0.38602   0.00000  Uiso   1.00
C65    C     0.01376   0.68070   0.41723   0.00000  Uiso   1.00
C66    C     0.98060   0.66665   0.34168   0.00000  Uiso   1.00
C67    C     0.13004   0.75244   0.40017   0.00000  Uiso   1.00
C68    C     0.14689   0.84693   0.44326   0.00000  Uiso   1.00
C69    C     0.17462   0.90892   0.37961   0.00000  Uiso   1.00
H70    H     0.12653   0.59029   0.18590   0.00000  Uiso   1.00
H71    H     0.16301   0.41138   0.24745   0.00000  Uiso   1.00
H72    H     0.04318   0.59225   0.12769   0.00000  Uiso   1.00
H73    H     0.17629   0.75845   0.15372   0.00000  Uiso   1.00
H74    H     0.19883   0.22689   0.36112   0.00000  Uiso   1.00
H75    H     0.94616   0.60830   0.10858   0.00000  Uiso   1.00
H76    H     0.22686   0.95877   0.16347   0.00000  Uiso   1.00
H77    H     0.09097   0.69724   0.53595   0.00000  Uiso   1.00
H78    H     0.12551   0.52419   0.61672   0.00000  Uiso   1.00
H79    H     0.00567   0.70506   0.49695   0.00000  Uiso   1.00
H80    H     0.13879   0.87126   0.52298   0.00000  Uiso   1.00
H81    H     0.16839   0.31845   0.66084   0.00000  Uiso   1.00
H82    H     0.91571   0.69987   0.40829   0.00000  Uiso   1.00
H83    H     0.19642   0.05033   0.46318   0.00000  Uiso   1.00
O84    O     0.20695   0.15689   0.55779   0.00000  Uiso   1.00
O85    O     0.87546   0.65731   0.22646   0.00000  Uiso   1.00
O86    O     0.24373   0.11711   0.29847   0.00000  Uiso   1.00
N87    N     0.18693   0.27219   0.42058   0.00000  Uiso   1.00
N88    N     0.95070   0.62878   0.18447   0.00000  Uiso   1.00
N89    N     0.21312   0.95645   0.23577   0.00000  Uiso   1.00
N90    N     0.17055   0.32146   0.58185   0.00000  Uiso   1.00
N91    N     0.93432   0.67805   0.34574   0.00000  Uiso   1.00
N92    N     0.19674   0.00572   0.39705   0.00000  Uiso   1.00
C93    C     0.61838   0.38521   0.23390   0.00000  Uiso   1.00
C94    C     0.63328   0.46758   0.15191   0.00000  Uiso   1.00
C95    C     0.65492   0.56429   0.17281   0.00000  Uiso   1.00
C96    C     0.66574   0.62850   0.08695   0.00000  Uiso   1.00
C97    C     0.69044   0.76121   0.97532   0.00000  Uiso   1.00
C98    C     0.56817   0.36932   0.21698   0.00000  Uiso   1.00
C99    C     0.53507   0.38340   0.29260   0.00000  Uiso   1.00
C100   C     0.49108   0.36488   0.26151   0.00000  Uiso   1.00
C101   C     0.41470   0.34496   0.25092   0.00000  Uiso   1.00
C102   C     0.64050   0.27903   0.20284   0.00000  Uiso   1.00
C103   C     0.66820   0.21717   0.26657   0.00000  Uiso   1.00
C104   C     0.68510   0.12261   0.22358   0.00000  Uiso   1.00
C105   C     0.72102   0.96250   0.19103   0.00000  Uiso   1.00
C106   C     0.59912   0.32727   0.04425   0.00000  Uiso   1.00
C107   C     0.62281   0.43611   0.04890   0.00000  Uiso   1.00
C108   C     0.63361   0.50018   0.96298   0.00000  Uiso   1.00
C109   C     0.65526   0.59697   0.98375   0.00000  Uiso   1.00
C110   C     0.55770   0.33785   0.11398   0.00000  Uiso   1.00
C111   C     0.51376   0.31930   0.08277   0.00000  Uiso   1.00
C112   C     0.48060   0.33335   0.15832   0.00000  Uiso   1.00
C113   C     0.63004   0.24756   0.09983   0.00000  Uiso   1.00
C114   C     0.64689   0.15307   0.05674   0.00000  Uiso   1.00
C115   C     0.67462   0.09108   0.12039   0.00000  Uiso   1.00
H116   H     0.62653   0.40971   0.31410   0.00000  Uiso   1.00
H117   H     0.66301   0.58862   0.25255   0.00000  Uiso   1.00
H118   H     0.54318   0.40775   0.37231   0.00000  Uiso   1.00
H119   H     0.67629   0.24155   0.34628   0.00000  Uiso   1.00
H120   H     0.69883   0.77311   0.13888   0.00000  Uiso   1.00
H121   H     0.44616   0.39170   0.39142   0.00000  Uiso   1.00
H122   H     0.72686   0.04123   0.33653   0.00000  Uiso   1.00
H123   H     0.59097   0.30276   0.96405   0.00000  Uiso   1.00
H124   H     0.62551   0.47581   0.88328   0.00000  Uiso   1.00
H125   H     0.50567   0.29494   0.00305   0.00000  Uiso   1.00
H126   H     0.63879   0.12874   0.97702   0.00000  Uiso   1.00
H127   H     0.66839   0.68155   0.83916   0.00000  Uiso   1.00
H128   H     0.41571   0.30013   0.09171   0.00000  Uiso   1.00
H129   H     0.69642   0.94967   0.03682   0.00000  Uiso   1.00
O130   O     0.70695   0.84311   0.94221   0.00000  Uiso   1.00
O131   O     0.37546   0.34269   0.27354   0.00000  Uiso   1.00
O132   O     0.74373   0.88289   0.20153   0.00000  Uiso   1.00
N133   N     0.68693   0.72781   0.07942   0.00000  Uiso   1.00
N134   N     0.45070   0.37122   0.31553   0.00000  Uiso   1.00
N135   N     0.71312   0.04355   0.26423   0.00000  Uiso   1.00
N136   N     0.67055   0.67854   0.91815   0.00000  Uiso   1.00
N137   N     0.43432   0.32195   0.15426   0.00000  Uiso   1.00
N138   N     0.69674   0.99428   0.10295   0.00000  Uiso   1.00
C139   C     0.88162   0.11479   0.23390   0.00000  Uiso   1.00
C140   C     0.86672   0.03242   0.15191   0.00000  Uiso   1.00
C141   C     0.84508   0.93571   0.17281   0.00000  Uiso   1.00
C142   C     0.83426   0.87150   0.08695   0.00000  Uiso   1.00
C143   C     0.80956   0.73879   0.97532   0.00000  Uiso   1.00
C144   C     0.93183   0.13068   0.21698   0.00000  Uiso   1.00
C145   C     0.96493   0.11660   0.29260   0.00000  Uiso   1.00
C146   C     0.00892   0.13512   0.26151   0.00000  Uiso   1.00
C147   C     0.08530   0.15504   0.25092   0.00000  Uiso   1.00
C148   C     0.85950   0.22097   0.20284   0.00000  Uiso   1.00
C149   C     0.83180   0.28283   0.26657   0.00000  Uiso   1.00
C150   C     0.81490   0.37739   0.22358   0.00000  Uiso   1.00
C151   C     0.77898   0.53750   0.19103   0.00000  Uiso   1.00
C152   C     0.90088   0.17273   0.04425   0.00000  Uiso   1.00
C153   C     0.87719   0.06389   0.04890   0.00000  Uiso   1.00
C154   C     0.86639   0.99982   0.96298   0.00000  Uiso   1.00
C155   C     0.84474   0.90303   0.98375   0.00000  Uiso   1.00
C156   C     0.94230   0.16215   0.11398   0.00000  Uiso   1.00
C157   C     0.98624   0.18070   0.08277   0.00000  Uiso   1.00
C158   C     0.01940   0.16665   0.15832   0.00000  Uiso   1.00
C159   C     0.86996   0.25244   0.09983   0.00000  Uiso   1.00
C160   C     0.85311   0.34693   0.05674   0.00000  Uiso   1.00
C161   C     0.82538   0.40892   0.12039   0.00000  Uiso   1.00
H162   H     0.87347   0.09029   0.31410   0.00000  Uiso   1.00
H163   H     0.83699   0.91138   0.25255   0.00000  Uiso   1.00
H164   H     0.95682   0.09225   0.37231   0.00000  Uiso   1.00
H165   H     0.82371   0.25845   0.34628   0.00000  Uiso   1.00
H166   H     0.80117   0.72689   0.13888   0.00000  Uiso   1.00
H167   H     0.05384   0.10830   0.39142   0.00000  Uiso   1.00
H168   H     0.77314   0.45877   0.33653   0.00000  Uiso   1.00
H169   H     0.90903   0.19724   0.96405   0.00000  Uiso   1.00
H170   H     0.87449   0.02419   0.88328   0.00000  Uiso   1.00
H171   H     0.99433   0.20506   0.00305   0.00000  Uiso   1.00
H172   H     0.86121   0.37126   0.97702   0.00000  Uiso   1.00
H173   H     0.83161   0.81845   0.83916   0.00000  Uiso   1.00
H174   H     0.08429   0.19987   0.09171   0.00000  Uiso   1.00
H175   H     0.80358   0.55033   0.03682   0.00000  Uiso   1.00
O176   O     0.79305   0.65689   0.94221   0.00000  Uiso   1.00
O177   O     0.12454   0.15731   0.27354   0.00000  Uiso   1.00
O178   O     0.75627   0.61711   0.20153   0.00000  Uiso   1.00
N179   N     0.81307   0.77219   0.07942   0.00000  Uiso   1.00
N180   N     0.04930   0.12878   0.31553   0.00000  Uiso   1.00
N181   N     0.78688   0.45645   0.26423   0.00000  Uiso   1.00
N182   N     0.82945   0.82146   0.91815   0.00000  Uiso   1.00
N183   N     0.06568   0.17805   0.15426   0.00000  Uiso   1.00
N184   N     0.80326   0.50572   0.10295   0.00000  Uiso   1.00
C185   C     0.61838   0.11479   0.73390   0.00000  Uiso   1.00
C186   C     0.63328   0.03242   0.65191   0.00000  Uiso   1.00
C187   C     0.65492   0.93571   0.67281   0.00000  Uiso   1.00
C188   C     0.66574   0.87150   0.58695   0.00000  Uiso   1.00
C189   C     0.69044   0.73879   0.47532   0.00000  Uiso   1.00
C190   C     0.56817   0.13068   0.71698   0.00000  Uiso   1.00
C191   C     0.53507   0.11660   0.79260   0.00000  Uiso   1.00
C192   C     0.49108   0.13512   0.76151   0.00000  Uiso   1.00
C193   C     0.41470   0.15504   0.75092   0.00000  Uiso   1.00
C194   C     0.64050   0.22097   0.70284   0.00000  Uiso   1.00
C195   C     0.66820   0.28283   0.76657   0.00000  Uiso   1.00
C196   C     0.68510   0.37739   0.72358   0.00000  Uiso   1.00
C197   C     0.72102   0.53750   0.69103   0.00000  Uiso   1.00
C198   C     0.59912   0.17273   0.54425   0.00000  Uiso   1.00
C199   C     0.62281   0.06389   0.54890   0.00000  Uiso   1.00
C200   C     0.63361   0.99982   0.46298   0.00000  Uiso   1.00
C201   C     0.65526   0.90303   0.48375   0.00000  Uiso   1.00
C202   C     0.55770   0.16215   0.61398   0.00000  Uiso   1.00
C203   C     0.51376   0.18070   0.58277   0.00000  Uiso   1.00
C204   C     0.48060   0.16665   0.65832   0.00000  Uiso   1.00
C205   C     0.63004   0.25244   0.59983   0.00000  Uiso   1.00
C206   C     0.64689   0.34693   0.55674   0.00000  Uiso   1.00
C207   C     0.67462   0.40892   0.62039   0.00000  Uiso   1.00
H208   H     0.62653   0.09029   0.81410   0.00000  Uiso   1.00
H209   H     0.66301   0.91138   0.75255   0.00000  Uiso   1.00
H210   H     0.54318   0.09225   0.87231   0.00000  Uiso   1.00
H211   H     0.67629   0.25845   0.84628   0.00000  Uiso   1.00
H212   H     0.69883   0.72689   0.63888   0.00000  Uiso   1.00
H213   H     0.44616   0.10830   0.89142   0.00000  Uiso   1.00
H214   H     0.72686   0.45877   0.83653   0.00000  Uiso   1.00
H215   H     0.59097   0.19724   0.46405   0.00000  Uiso   1.00
H216   H     0.62551   0.02419   0.38328   0.00000  Uiso   1.00
H217   H     0.50567   0.20506   0.50305   0.00000  Uiso   1.00
H218   H     0.63879   0.37126   0.47702   0.00000  Uiso   1.00
H219   H     0.66839   0.81845   0.33916   0.00000  Uiso   1.00
H220   H     0.41571   0.19987   0.59171   0.00000  Uiso   1.00
H221   H     0.69642   0.55033   0.53682   0.00000  Uiso   1.00
O222   O     0.70695   0.65689   0.44221   0.00000  Uiso   1.00
O223   O     0.37546   0.15731   0.77354   0.00000  Uiso   1.00
O224   O     0.74373   0.61711   0.70153   0.00000  Uiso   1.00
N225   N     0.68693   0.77219   0.57942   0.00000  Uiso   1.00
N226   N     0.45070   0.12878   0.81553   0.00000  Uiso   1.00
N227   N     0.71312   0.45645   0.76423   0.00000  Uiso   1.00
N228   N     0.67055   0.82146   0.41815   0.00000  Uiso   1.00
N229   N     0.43432   0.17805   0.65426   0.00000  Uiso   1.00
N230   N     0.69674   0.50572   0.60295   0.00000  Uiso   1.00
C231   C     0.88162   0.38521   0.73390   0.00000  Uiso   1.00
C232   C     0.86672   0.46758   0.65191   0.00000  Uiso   1.00
C233   C     0.84508   0.56429   0.67281   0.00000  Uiso   1.00
C234   C     0.83426   0.62850   0.58695   0.00000  Uiso   1.00
C235   C     0.80956   0.76121   0.47532   0.00000  Uiso   1.00
C236   C     0.93183   0.36932   0.71698   0.00000  Uiso   1.00
C237   C     0.96493   0.38340   0.79260   0.00000  Uiso   1.00
C238   C     0.00892   0.36488   0.76151   0.00000  Uiso   1.00
C239   C     0.08530   0.34496   0.75092   0.00000  Uiso   1.00
C240   C     0.85950   0.27903   0.70284   0.00000  Uiso   1.00
C241   C     0.83180   0.21717   0.76657   0.00000  Uiso   1.00
C242   C     0.81490   0.12261   0.72358   0.00000  Uiso   1.00
C243   C     0.77898   0.96250   0.69103   0.00000  Uiso   1.00
C244   C     0.90088   0.32727   0.54425   0.00000  Uiso   1.00
C245   C     0.87719   0.43611   0.54890   0.00000  Uiso   1.00
C246   C     0.86639   0.50018   0.46298   0.00000  Uiso   1.00
C247   C     0.84474   0.59697   0.48375   0.00000  Uiso   1.00
C248   C     0.94230   0.33785   0.61398   0.00000  Uiso   1.00
C249   C     0.98624   0.31930   0.58277   0.00000  Uiso   1.00
C250   C     0.01940   0.33335   0.65832   0.00000  Uiso   1.00
C251   C     0.86996   0.24756   0.59983   0.00000  Uiso   1.00
C252   C     0.85311   0.15307   0.55674   0.00000  Uiso   1.00
C253   C     0.82538   0.09108   0.62039   0.00000  Uiso   1.00
H254   H     0.87347   0.40971   0.81410   0.00000  Uiso   1.00
H255   H     0.83699   0.58862   0.75255   0.00000  Uiso   1.00
H256   H     0.95682   0.40775   0.87231   0.00000  Uiso   1.00
H257   H     0.82371   0.24155   0.84628   0.00000  Uiso   1.00
H258   H     0.80117   0.77311   0.63888   0.00000  Uiso   1.00
H259   H     0.05384   0.39170   0.89142   0.00000  Uiso   1.00
H260   H     0.77314   0.04123   0.83653   0.00000  Uiso   1.00
H261   H     0.90903   0.30276   0.46405   0.00000  Uiso   1.00
H262   H     0.87449   0.47581   0.38328   0.00000  Uiso   1.00
H263   H     0.99433   0.29494   0.50305   0.00000  Uiso   1.00
H264   H     0.86121   0.12874   0.47702   0.00000  Uiso   1.00
H265   H     0.83161   0.68155   0.33916   0.00000  Uiso   1.00
H266   H     0.08429   0.30013   0.59171   0.00000  Uiso   1.00
H267   H     0.80358   0.94967   0.53682   0.00000  Uiso   1.00
O268   O     0.79305   0.84311   0.44221   0.00000  Uiso   1.00
O269   O     0.12454   0.34269   0.77354   0.00000  Uiso   1.00
O270   O     0.75627   0.88289   0.70153   0.00000  Uiso   1.00
N271   N     0.81307   0.72781   0.57942   0.00000  Uiso   1.00
N272   N     0.04930   0.37122   0.81553   0.00000  Uiso   1.00
N273   N     0.78688   0.04355   0.76423   0.00000  Uiso   1.00
N274   N     0.82945   0.67854   0.41815   0.00000  Uiso   1.00
N275   N     0.06568   0.32195   0.65426   0.00000  Uiso   1.00
N276   N     0.80326   0.99428   0.60295   0.00000  Uiso   1.00
C277   C     0.38162   0.61479   0.76610   0.00000  Uiso   1.00
C278   C     0.36672   0.53242   0.84809   0.00000  Uiso   1.00
C279   C     0.34508   0.43571   0.82719   0.00000  Uiso   1.00
C280   C     0.33426   0.37150   0.91305   0.00000  Uiso   1.00
C281   C     0.30956   0.23879   0.02468   0.00000  Uiso   1.00
C282   C     0.43183   0.63068   0.78302   0.00000  Uiso   1.00
C283   C     0.46493   0.61660   0.70740   0.00000  Uiso   1.00
C284   C     0.50892   0.63512   0.73849   0.00000  Uiso   1.00
C285   C     0.58530   0.65504   0.74908   0.00000  Uiso   1.00
C286   C     0.35950   0.72097   0.79716   0.00000  Uiso   1.00
C287   C     0.33180   0.78283   0.73343   0.00000  Uiso   1.00
C288   C     0.31490   0.87739   0.77642   0.00000  Uiso   1.00
C289   C     0.27898   0.03750   0.80897   0.00000  Uiso   1.00
C290   C     0.40088   0.67273   0.95575   0.00000  Uiso   1.00
C291   C     0.37719   0.56389   0.95110   0.00000  Uiso   1.00
C292   C     0.36639   0.49982   0.03702   0.00000  Uiso   1.00
C293   C     0.34474   0.40303   0.01625   0.00000  Uiso   1.00
C294   C     0.44230   0.66215   0.88602   0.00000  Uiso   1.00
C295   C     0.48624   0.68070   0.91723   0.00000  Uiso   1.00
C296   C     0.51940   0.66665   0.84168   0.00000  Uiso   1.00
C297   C     0.36996   0.75244   0.90017   0.00000  Uiso   1.00
C298   C     0.35311   0.84693   0.94326   0.00000  Uiso   1.00
C299   C     0.32538   0.90892   0.87961   0.00000  Uiso   1.00
H300   H     0.37347   0.59029   0.68590   0.00000  Uiso   1.00
H301   H     0.33699   0.41138   0.74745   0.00000  Uiso   1.00
H302   H     0.45682   0.59225   0.62769   0.00000  Uiso   1.00
H303   H     0.32371   0.75845   0.65372   0.00000  Uiso   1.00
H304   H     0.30117   0.22689   0.86112   0.00000  Uiso   1.00
H305   H     0.55384   0.60830   0.60858   0.00000  Uiso   1.00
H306   H     0.27314   0.95877   0.66347   0.00000  Uiso   1.00
H307   H     0.40903   0.69724   0.03595   0.00000  Uiso   1.00
H308   H     0.37449   0.52419   0.11672   0.00000  Uiso   1.00
H309   H     0.49433   0.70506   0.99695   0.00000  Uiso   1.00
H310   H     0.36121   0.87126   0.02298   0.00000  Uiso   1.00
H311   H     0.33161   0.31845   0.16084   0.00000  Uiso   1.00
H312   H     0.58429   0.69987   0.90829   0.00000  Uiso   1.00
H313   H     0.30358   0.05033   0.96318   0.00000  Uiso   1.00
O314   O     0.29305   0.15689   0.05779   0.00000  Uiso   1.00
O315   O     0.62454   0.65731   0.72646   0.00000  Uiso   1.00
O316   O     0.25627   0.11711   0.79847   0.00000  Uiso   1.00
N317   N     0.31307   0.27219   0.92058   0.00000  Uiso   1.00
N318   N     0.54930   0.62878   0.68447   0.00000  Uiso   1.00
N319   N     0.28688   0.95645   0.73577   0.00000  Uiso   1.00
N320   N     0.32945   0.32146   0.08185   0.00000  Uiso   1.00
N321   N     0.56568   0.67805   0.84574   0.00000  Uiso   1.00
N322   N     0.30326   0.00572   0.89705   0.00000  Uiso   1.00
C323   C     0.11838   0.88521   0.76610   0.00000  Uiso   1.00
C324   C     0.13328   0.96758   0.84809   0.00000  Uiso   1.00
C325   C     0.15492   0.06429   0.82719   0.00000  Uiso   1.00
C326   C     0.16574   0.12850   0.91305   0.00000  Uiso   1.00
C327   C     0.19044   0.26121   0.02468   0.00000  Uiso   1.00
C328   C     0.06817   0.86932   0.78302   0.00000  Uiso   1.00
C329   C     0.03507   0.88340   0.70740   0.00000  Uiso   1.00
C330   C     0.99108   0.86488   0.73849   0.00000  Uiso   1.00
C331   C     0.91470   0.84496   0.74908   0.00000  Uiso   1.00
C332   C     0.14050   0.77903   0.79716   0.00000  Uiso   1.00
C333   C     0.16820   0.71717   0.73343   0.00000  Uiso   1.00
C334   C     0.18510   0.62261   0.77642   0.00000  Uiso   1.00
C335   C     0.22102   0.46250   0.80897   0.00000  Uiso   1.00
C336   C     0.09912   0.82727   0.95575   0.00000  Uiso   1.00
C337   C     0.12281   0.93611   0.95110   0.00000  Uiso   1.00
C338   C     0.13361   0.00018   0.03702   0.00000  Uiso   1.00
C339   C     0.15526   0.09697   0.01625   0.00000  Uiso   1.00
C340   C     0.05770   0.83785   0.88602   0.00000  Uiso   1.00
C341   C     0.01376   0.81930   0.91723   0.00000  Uiso   1.00
C342   C     0.98060   0.83335   0.84168   0.00000  Uiso   1.00
C343   C     0.13004   0.74756   0.90017   0.00000  Uiso   1.00
C344   C     0.14689   0.65307   0.94326   0.00000  Uiso   1.00
C345   C     0.17462   0.59108   0.87961   0.00000  Uiso   1.00
H346   H     0.12653   0.90971   0.68590   0.00000  Uiso   1.00
H347   H     0.16301   0.08862   0.74745   0.00000  Uiso   1.00
H348   H     0.04318   0.90775   0.62769   0.00000  Uiso   1.00
H349   H     0.17629   0.74155   0.65372   0.00000  Uiso   1.00
H350   H     0.19883   0.27311   0.86112   0.00000  Uiso   1.00
H351   H     0.94616   0.89170   0.60858   0.00000  Uiso   1.00
H352   H     0.22686   0.54123   0.66347   0.00000  Uiso   1.00
H353   H     0.09097   0.80276   0.03595   0.00000  Uiso   1.00
H354   H     0.12551   0.97581   0.11672   0.00000  Uiso   1.00
H355   H     0.00567   0.79494   0.99695   0.00000  Uiso   1.00
H356   H     0.13879   0.62874   0.02298   0.00000  Uiso   1.00
H357   H     0.16839   0.18155   0.16084   0.00000  Uiso   1.00
H358   H     0.91571   0.80013   0.90829   0.00000  Uiso   1.00
H359   H     0.19642   0.44967   0.96318   0.00000  Uiso   1.00
O360   O     0.20695   0.34311   0.05779   0.00000  Uiso   1.00
O361   O     0.87546   0.84269   0.72646   0.00000  Uiso   1.00
O362   O     0.24373   0.38289   0.79847   0.00000  Uiso   1.00
N363   N     0.18693   0.22781   0.92058   0.00000  Uiso   1.00
N364   N     0.95070   0.87122   0.68447   0.00000  Uiso   1.00
N365   N     0.21312   0.54355   0.73577   0.00000  Uiso   1.00
N366   N     0.17055   0.17854   0.08185   0.00000  Uiso   1.00
N367   N     0.93432   0.82195   0.84574   0.00000  Uiso   1.00
N368   N     0.19674   0.49428   0.89705   0.00000  Uiso   1.00
