data_job_06482
_audit_creation_date              2018-12-19
_audit_creation_method            'Materials Studio'
_symmetry_space_group_name_H-M    'P1'
_symmetry_Int_Tables_number       1
_symmetry_cell_setting            triclinic
loop_
_symmetry_equiv_pos_as_xyz
  x,y,z
_cell_length_a                    20.6584
_cell_length_b                    20.9355
_cell_length_c                    21.5202
_cell_angle_alpha                 77.1177
_cell_angle_beta                  115.8761
_cell_angle_gamma                 73.7649
loop_
_atom_site_label
_atom_site_type_symbol
_atom_site_fract_x
_atom_site_fract_y
_atom_site_fract_z
_atom_site_U_iso_or_equiv
_atom_site_adp_type
_atom_site_occupancy
C1     C     0.11760   0.31557   0.80531   0.00000  Uiso   1.00
C2     C     0.14062   0.24076   0.80280   0.00000  Uiso   1.00
C3     C     0.16103   0.22208   0.75374   0.00000  Uiso   1.00
C4     C     0.18021   0.15082   0.76043   0.00000  Uiso   1.00
C5     C     0.21611   0.04238   0.74832   0.00000  Uiso   1.00
C6     C     0.03567   0.33770   0.79533   0.00000  Uiso   1.00
C7     C     0.96783   0.40052   0.74000   0.00000  Uiso   1.00
C8     C     0.89866   0.41086   0.74041   0.00000  Uiso   1.00
C9     C     0.77163   0.45294   0.71674   0.00000  Uiso   1.00
C10    C     0.17496   0.30429   0.88570   0.00000  Uiso   1.00
C11    C     0.22423   0.33904   0.90635   0.00000  Uiso   1.00
C12    C     0.27232   0.32127   0.98285   0.00000  Uiso   1.00
C13    C     0.36156   0.31148   0.09949   0.00000  Uiso   1.00
C14    C     0.11537   0.22224   0.90443   0.00000  Uiso   1.00
C15    C     0.13941   0.19007   0.85664   0.00000  Uiso   1.00
C16    C     0.15857   0.11881   0.86340   0.00000  Uiso   1.00
C17    C     0.17900   0.10003   0.81436   0.00000  Uiso   1.00
C18    C     0.03446   0.28701   0.84917   0.00000  Uiso   1.00
C19    C     0.96537   0.29726   0.84966   0.00000  Uiso   1.00
C20    C     0.89745   0.36007   0.79434   0.00000  Uiso   1.00
C21    C     0.17375   0.25360   0.93954   0.00000  Uiso   1.00
C22    C     0.22177   0.23577   0.01602   0.00000  Uiso   1.00
C23    C     0.27111   0.27048   0.03678   0.00000  Uiso   1.00
H24    H     0.11853   0.35504   0.76339   0.00000  Uiso   1.00
H25    H     0.16195   0.26133   0.71208   0.00000  Uiso   1.00
H26    H     0.96879   0.43975   0.69835   0.00000  Uiso   1.00
H27    H     0.22515   0.37827   0.86468   0.00000  Uiso   1.00
H28    H     0.20953   0.13508   0.67892   0.00000  Uiso   1.00
H29    H     0.80224   0.51129   0.64998   0.00000  Uiso   1.00
H30    H     0.34283   0.38166   0.00071   0.00000  Uiso   1.00
H31    H     0.11442   0.18277   0.94634   0.00000  Uiso   1.00
H32    H     0.15762   0.07959   0.90507   0.00000  Uiso   1.00
H33    H     0.96446   0.25801   0.89133   0.00000  Uiso   1.00
H34    H     0.22082   0.19654   0.05766   0.00000  Uiso   1.00
H35    H     0.20601   0.98758   0.83555   0.00000  Uiso   1.00
H36    H     0.79872   0.36380   0.80661   0.00000  Uiso   1.00
H37    H     0.33931   0.23416   0.15735   0.00000  Uiso   1.00
O38    O     0.23623   0.99658   0.72677   0.00000  Uiso   1.00
O39    O     0.70189   0.49016   0.68881   0.00000  Uiso   1.00
O40    O     0.41113   0.32008   0.14896   0.00000  Uiso   1.00
N41    N     0.20279   0.11452   0.72145   0.00000  Uiso   1.00
N42    N     0.82199   0.46625   0.69439   0.00000  Uiso   1.00
N43    N     0.32738   0.34507   0.02230   0.00000  Uiso   1.00
N44    N     0.20090   0.03515   0.80574   0.00000  Uiso   1.00
N45    N     0.82010   0.38688   0.77867   0.00000  Uiso   1.00
N46    N     0.32549   0.26570   0.10658   0.00000  Uiso   1.00
C47    C     0.54399   0.89440   0.23509   0.00000  Uiso   1.00
C48    C     0.58039   0.82226   0.30064   0.00000  Uiso   1.00
C49    C     0.66120   0.77765   0.35004   0.00000  Uiso   1.00
C50    C     0.68243   0.71390   0.40629   0.00000  Uiso   1.00
C51    C     0.74771   0.60467   0.50705   0.00000  Uiso   1.00
C52    C     0.48743   0.88720   0.16499   0.00000  Uiso   1.00
C53    C     0.49007   0.89719   0.10033   0.00000  Uiso   1.00
C54    C     0.43304   0.88811   0.04238   0.00000  Uiso   1.00
C55    C     0.35395   0.87974   0.93252   0.00000  Uiso   1.00
C56    C     0.49151   0.95054   0.24790   0.00000  Uiso   1.00
C57    C     0.49758   0.01379   0.25293   0.00000  Uiso   1.00
C58    C     0.44397   0.05805   0.26477   0.00000  Uiso   1.00
C59    C     0.37122   0.14802   0.28365   0.00000  Uiso   1.00
C60    C     0.43799   0.86054   0.24715   0.00000  Uiso   1.00
C61    C     0.52281   0.80387   0.30719   0.00000  Uiso   1.00
C62    C     0.54392   0.74018   0.36338   0.00000  Uiso   1.00
C63    C     0.62475   0.69548   0.41285   0.00000  Uiso   1.00
C64    C     0.42985   0.86880   0.17154   0.00000  Uiso   1.00
C65    C     0.37279   0.85972   0.11367   0.00000  Uiso   1.00
C66    C     0.37536   0.86968   0.04894   0.00000  Uiso   1.00
C67    C     0.43393   0.93214   0.25445   0.00000  Uiso   1.00
C68    C     0.38030   0.97632   0.26628   0.00000  Uiso   1.00
C69    C     0.38629   0.03962   0.27133   0.00000  Uiso   1.00
H70    H     0.58881   0.90873   0.22999   0.00000  Uiso   1.00
H71    H     0.70574   0.79190   0.34495   0.00000  Uiso   1.00
H72    H     0.53463   0.91143   0.09527   0.00000  Uiso   1.00
H73    H     0.54214   0.02801   0.24786   0.00000  Uiso   1.00
H74    H     0.80999   0.65425   0.47527   0.00000  Uiso   1.00
H75    H     0.44918   0.90631   0.94881   0.00000  Uiso   1.00
H76    H     0.46500   0.15214   0.27057   0.00000  Uiso   1.00
H77    H     0.39316   0.84622   0.25225   0.00000  Uiso   1.00
H78    H     0.49935   0.72596   0.36843   0.00000  Uiso   1.00
H79    H     0.32824   0.84549   0.11876   0.00000  Uiso   1.00
H80    H     0.33575   0.96207   0.27135   0.00000  Uiso   1.00
H81    H     0.64247   0.60073   0.49433   0.00000  Uiso   1.00
H82    H     0.28166   0.85279   0.96787   0.00000  Uiso   1.00
H83    H     0.29749   0.09862   0.28963   0.00000  Uiso   1.00
O84    O     0.79962   0.54950   0.56081   0.00000  Uiso   1.00
O85    O     0.32624   0.88020   0.87012   0.00000  Uiso   1.00
O86    O     0.34701   0.20273   0.29226   0.00000  Uiso   1.00
N87    N     0.75599   0.65817   0.46382   0.00000  Uiso   1.00
N88    N     0.41866   0.89381   0.97162   0.00000  Uiso   1.00
N89    N     0.43345   0.12366   0.27241   0.00000  Uiso   1.00
N90    N     0.66585   0.62937   0.47408   0.00000  Uiso   1.00
N91    N     0.32852   0.86501   0.98188   0.00000  Uiso   1.00
N92    N     0.34331   0.09486   0.28267   0.00000  Uiso   1.00
C93    C     0.05084   0.29042   0.15157   0.00000  Uiso   1.00
C94    C     0.96251   0.33218   0.12064   0.00000  Uiso   1.00
C95    C     0.93071   0.35609   0.16066   0.00000  Uiso   1.00
C96    C     0.84839   0.39334   0.12225   0.00000  Uiso   1.00
C97    C     0.71864   0.45621   0.08576   0.00000  Uiso   1.00
C98    C     0.05969   0.22060   0.13858   0.00000  Uiso   1.00
C99    C     0.10960   0.15069   0.19367   0.00000  Uiso   1.00
C100   C     0.10908   0.09401   0.17036   0.00000  Uiso   1.00
C101   C     0.13025   0.98365   0.16171   0.00000  Uiso   1.00
C102   C     0.06888   0.33466   0.09998   0.00000  Uiso   1.00
C103   C     0.12654   0.36064   0.12262   0.00000  Uiso   1.00
C104   C     0.13379   0.39998   0.06680   0.00000  Uiso   1.00
C105   C     0.16923   0.46670   0.99821   0.00000  Uiso   1.00
C106   C     0.96119   0.31405   0.01220   0.00000  Uiso   1.00
C107   C     0.91382   0.34501   0.04494   0.00000  Uiso   1.00
C108   C     0.83152   0.38224   0.00646   0.00000  Uiso   1.00
C109   C     0.79961   0.40620   0.04641   0.00000  Uiso   1.00
C110   C     0.01100   0.23343   0.06288   0.00000  Uiso   1.00
C111   C     0.01041   0.17684   0.03948   0.00000  Uiso   1.00
C112   C     0.06030   0.10687   0.09453   0.00000  Uiso   1.00
C113   C     0.02019   0.34750   0.02428   0.00000  Uiso   1.00
C114   C     0.02735   0.38679   0.96842   0.00000  Uiso   1.00
C115   C     0.08501   0.41283   0.99097   0.00000  Uiso   1.00
H116   H     0.08875   0.28042   0.21050   0.00000  Uiso   1.00
H117   H     0.96841   0.34614   0.21924   0.00000  Uiso   1.00
H118   H     0.14728   0.14078   0.25225   0.00000  Uiso   1.00
H119   H     0.16421   0.35070   0.18120   0.00000  Uiso   1.00
H120   H     0.81352   0.42465   0.19555   0.00000  Uiso   1.00
H121   H     0.19069   0.99163   0.26515   0.00000  Uiso   1.00
H122   H     0.22640   0.43428   0.11533   0.00000  Uiso   1.00
H123   H     0.92328   0.32404   0.95326   0.00000  Uiso   1.00
H124   H     0.79386   0.39217   0.94788   0.00000  Uiso   1.00
H125   H     0.97272   0.18680   0.98089   0.00000  Uiso   1.00
H126   H     0.98966   0.39671   0.90985   0.00000  Uiso   1.00
H127   H     0.67184   0.46200   0.97531   0.00000  Uiso   1.00
H128   H     0.04902   0.02897   0.04491   0.00000  Uiso   1.00
H129   H     0.08473   0.47163   0.89509   0.00000  Uiso   1.00
O130   O     0.66053   0.48733   0.08654   0.00000  Uiso   1.00
O131   O     0.15537   0.91922   0.17785   0.00000  Uiso   1.00
O132   O     0.20222   0.49997   0.98129   0.00000  Uiso   1.00
N133   N     0.79794   0.42410   0.14445   0.00000  Uiso   1.00
N134   N     0.15056   0.01925   0.20952   0.00000  Uiso   1.00
N135   N     0.18397   0.43308   0.06946   0.00000  Uiso   1.00
N136   N     0.72170   0.44420   0.02594   0.00000  Uiso   1.00
N137   N     0.07432   0.03935   0.09101   0.00000  Uiso   1.00
N138   N     0.10773   0.45318   0.95095   0.00000  Uiso   1.00
C139   C     0.17392   0.66810   0.31851   0.00000  Uiso   1.00
C140   C     0.11296   0.74730   0.27338   0.00000  Uiso   1.00
C141   C     0.08680   0.78908   0.20000   0.00000  Uiso   1.00
C142   C     0.03076   0.86041   0.16864   0.00000  Uiso   1.00
C143   C     0.94045   0.97905   0.09236   0.00000  Uiso   1.00
C144   C     0.13284   0.62731   0.34312   0.00000  Uiso   1.00
C145   C     0.12342   0.56819   0.32838   0.00000  Uiso   1.00
C146   C     0.08413   0.53851   0.35574   0.00000  Uiso   1.00
C147   C     0.02475   0.47083   0.38779   0.00000  Uiso   1.00
C148   C     0.23963   0.66558   0.39030   0.00000  Uiso   1.00
C149   C     0.31999   0.63862   0.41524   0.00000  Uiso   1.00
C150   C     0.37061   0.64114   0.48234   0.00000  Uiso   1.00
C151   C     0.47703   0.63288   0.58764   0.00000  Uiso   1.00
C152   C     0.12092   0.72048   0.39332   0.00000  Uiso   1.00
C153   C     0.08417   0.77575   0.31401   0.00000  Uiso   1.00
C154   C     0.02815   0.84704   0.28276   0.00000  Uiso   1.00
C155   C     0.00192   0.88891   0.20934   0.00000  Uiso   1.00
C156   C     0.10405   0.65576   0.38375   0.00000  Uiso   1.00
C157   C     0.06477   0.62615   0.41114   0.00000  Uiso   1.00
C158   C     0.05529   0.56701   0.39645   0.00000  Uiso   1.00
C159   C     0.21084   0.69403   0.43093   0.00000  Uiso   1.00
C160   C     0.26135   0.69659   0.49800   0.00000  Uiso   1.00
C161   C     0.34177   0.66964   0.52304   0.00000  Uiso   1.00
H162   H     0.19633   0.64594   0.28688   0.00000  Uiso   1.00
H163   H     0.10909   0.76704   0.16857   0.00000  Uiso   1.00
H164   H     0.14571   0.54618   0.29694   0.00000  Uiso   1.00
H165   H     0.34225   0.61661   0.38379   0.00000  Uiso   1.00
H166   H     0.99964   0.91383   0.05531   0.00000  Uiso   1.00
H167   H     0.07689   0.44814   0.32601   0.00000  Uiso   1.00
H168   H     0.49133   0.59664   0.50914   0.00000  Uiso   1.00
H169   H     0.09850   0.74263   0.42496   0.00000  Uiso   1.00
H170   H     0.00589   0.86904   0.31422   0.00000  Uiso   1.00
H171   H     0.04251   0.64818   0.44259   0.00000  Uiso   1.00
H172   H     0.23905   0.71861   0.52943   0.00000  Uiso   1.00
H173   H     0.91588   0.99662   0.17352   0.00000  Uiso   1.00
H174   H     0.99312   0.53092   0.44422   0.00000  Uiso   1.00
H175   H     0.40757   0.67942   0.62735   0.00000  Uiso   1.00
O176   O     0.89858   0.03663   0.03907   0.00000  Uiso   1.00
O177   O     0.99994   0.42564   0.39423   0.00000  Uiso   1.00
O178   O     0.54367   0.62047   0.63449   0.00000  Uiso   1.00
N179   N     0.99265   0.91597   0.09833   0.00000  Uiso   1.00
N180   N     0.06486   0.48058   0.35141   0.00000  Uiso   1.00
N181   N     0.45233   0.61940   0.52263   0.00000  Uiso   1.00
N182   N     0.94758   0.96052   0.16194   0.00000  Uiso   1.00
N183   N     0.01978   0.52513   0.41502   0.00000  Uiso   1.00
N184   N     0.40726   0.66395   0.58624   0.00000  Uiso   1.00
C185   C     0.46918   0.70270   0.79653   0.00000  Uiso   1.00
C186   C     0.49093   0.70161   0.87432   0.00000  Uiso   1.00
C187   C     0.52778   0.74121   0.90777   0.00000  Uiso   1.00
C188   C     0.54260   0.73270   0.97925   0.00000  Uiso   1.00
C189   C     0.57957   0.73810   0.09444   0.00000  Uiso   1.00
C190   C     0.37993   0.72376   0.75291   0.00000  Uiso   1.00
C191   C     0.32346   0.78198   0.68428   0.00000  Uiso   1.00
C192   C     0.24483   0.79212   0.65354   0.00000  Uiso   1.00
C193   C     0.10948   0.83188   0.58022   0.00000  Uiso   1.00
C194   C     0.50980   0.62413   0.80857   0.00000  Uiso   1.00
C195   C     0.56251   0.59858   0.78673   0.00000  Uiso   1.00
C196   C     0.59321   0.52483   0.80285   0.00000  Uiso   1.00
C197   C     0.65950   0.40990   0.81596   0.00000  Uiso   1.00
C198   C     0.42995   0.61718   0.86397   0.00000  Uiso   1.00
C199   C     0.46962   0.65516   0.91095   0.00000  Uiso   1.00
C200   C     0.48439   0.64659   0.98239   0.00000  Uiso   1.00
C201   C     0.52126   0.68617   0.01594   0.00000  Uiso   1.00
C202   C     0.35862   0.67731   0.78953   0.00000  Uiso   1.00
C203   C     0.28006   0.68736   0.75889   0.00000  Uiso   1.00
C204   C     0.22349   0.74558   0.69024   0.00000  Uiso   1.00
C205   C     0.48849   0.57768   0.84521   0.00000  Uiso   1.00
C206   C     0.51911   0.50396   0.86135   0.00000  Uiso   1.00
C207   C     0.57186   0.47830   0.83954   0.00000  Uiso   1.00
H208   H     0.48576   0.73886   0.76801   0.00000  Uiso   1.00
H209   H     0.54426   0.77715   0.87941   0.00000  Uiso   1.00
H210   H     0.33997   0.81791   0.65594   0.00000  Uiso   1.00
H211   H     0.57898   0.63454   0.75839   0.00000  Uiso   1.00
H212   H     0.59969   0.79914   0.01905   0.00000  Uiso   1.00
H213   H     0.16893   0.88507   0.54786   0.00000  Uiso   1.00
H214   H     0.67294   0.49839   0.76388   0.00000  Uiso   1.00
H215   H     0.41336   0.58101   0.89248   0.00000  Uiso   1.00
H216   H     0.46789   0.61064   0.01072   0.00000  Uiso   1.00
H217   H     0.26359   0.65140   0.78725   0.00000  Uiso   1.00
H218   H     0.50261   0.46803   0.88970   0.00000  Uiso   1.00
H219   H     0.53770   0.66399   0.12563   0.00000  Uiso   1.00
H220   H     0.10694   0.74992   0.65443   0.00000  Uiso   1.00
H221   H     0.61095   0.36324   0.87045   0.00000  Uiso   1.00
O222   O     0.60584   0.75392   0.14786   0.00000  Uiso   1.00
O223   O     0.04071   0.86665   0.52966   0.00000  Uiso   1.00
O224   O     0.70196   0.35933   0.81308   0.00000  Uiso   1.00
N225   N     0.57763   0.76325   0.02792   0.00000  Uiso   1.00
N226   N     0.17490   0.84360   0.58738   0.00000  Uiso   1.00
N227   N     0.64609   0.48209   0.78932   0.00000  Uiso   1.00
N228   N     0.54428   0.69053   0.08526   0.00000  Uiso   1.00
N229   N     0.14154   0.77088   0.64473   0.00000  Uiso   1.00
N230   N     0.61273   0.40937   0.84667   0.00000  Uiso   1.00
C231   C     0.65511   0.18816   0.73082   0.00000  Uiso   1.00
C232   C     0.71468   0.12046   0.73742   0.00000  Uiso   1.00
C233   C     0.78805   0.07223   0.80189   0.00000  Uiso   1.00
C234   C     0.83383   0.01360   0.79641   0.00000  Uiso   1.00
C235   C     0.93036   0.90998   0.81696   0.00000  Uiso   1.00
C236   C     0.57736   0.18008   0.70325   0.00000  Uiso   1.00
C237   C     0.53529   0.18199   0.73898   0.00000  Uiso   1.00
C238   C     0.46546   0.17355   0.70472   0.00000  Uiso   1.00
C239   C     0.34878   0.16254   0.67218   0.00000  Uiso   1.00
C240   C     0.63959   0.25135   0.66656   0.00000  Uiso   1.00
C241   C     0.64980   0.31320   0.67142   0.00000  Uiso   1.00
C242   C     0.63234   0.36477   0.60627   0.00000  Uiso   1.00
C243   C     0.61227   0.46442   0.51675   0.00000  Uiso   1.00
C244   C     0.60592   0.16979   0.60645   0.00000  Uiso   1.00
C245   C     0.68796   0.11048   0.66987   0.00000  Uiso   1.00
C246   C     0.73363   0.05191   0.66429   0.00000  Uiso   1.00
C247   C     0.80706   0.00361   0.72874   0.00000  Uiso   1.00
C248   C     0.55064   0.17010   0.63570   0.00000  Uiso   1.00
C249   C     0.48086   0.16166   0.60138   0.00000  Uiso   1.00
C250   C     0.43869   0.16356   0.63705   0.00000  Uiso   1.00
C251   C     0.61287   0.24137   0.59900   0.00000  Uiso   1.00
C252   C     0.59538   0.29287   0.53382   0.00000  Uiso   1.00
C253   C     0.60557   0.35478   0.53859   0.00000  Uiso   1.00
H254   H     0.67591   0.19593   0.78341   0.00000  Uiso   1.00
H255   H     0.80871   0.07997   0.85416   0.00000  Uiso   1.00
H256   H     0.55597   0.18972   0.79125   0.00000  Uiso   1.00
H257   H     0.67048   0.32090   0.72371   0.00000  Uiso   1.00
H258   H     0.94414   0.94700   0.90282   0.00000  Uiso   1.00
H259   H     0.41122   0.17842   0.77016   0.00000  Uiso   1.00
H260   H     0.65267   0.45505   0.62773   0.00000  Uiso   1.00
H261   H     0.58512   0.16202   0.55385   0.00000  Uiso   1.00
H262   H     0.71294   0.04420   0.61200   0.00000  Uiso   1.00
H263   H     0.46020   0.15395   0.54910   0.00000  Uiso   1.00
H264   H     0.57471   0.28513   0.48156   0.00000  Uiso   1.00
H265   H     0.86641   0.91796   0.70628   0.00000  Uiso   1.00
H266   H     0.33349   0.14940   0.57361   0.00000  Uiso   1.00
H267   H     0.57494   0.42602   0.43119   0.00000  Uiso   1.00
O268   O     0.99098   0.85557   0.84695   0.00000  Uiso   1.00
O269   O     0.29181   0.15921   0.67290   0.00000  Uiso   1.00
O270   O     0.60859   0.52214   0.48604   0.00000  Uiso   1.00
N271   N     0.90831   0.95634   0.84858   0.00000  Uiso   1.00
N272   N     0.41007   0.17270   0.72455   0.00000  Uiso   1.00
N273   N     0.63579   0.43133   0.59139   0.00000  Uiso   1.00
N274   N     0.86648   0.94072   0.74282   0.00000  Uiso   1.00
N275   N     0.36825   0.15708   0.61879   0.00000  Uiso   1.00
N276   N     0.59396   0.41571   0.48563   0.00000  Uiso   1.00
C277   C     0.80858   0.70437   0.03059   0.00000  Uiso   1.00
C278   C     0.79853   0.75338   0.07172   0.00000  Uiso   1.00
C279   C     0.75844   0.75364   0.10934   0.00000  Uiso   1.00
C280   C     0.75592   0.80257   0.14341   0.00000  Uiso   1.00
C281   C     0.73481   0.87150   0.20783   0.00000  Uiso   1.00
C282   C     0.89807   0.66410   0.06562   0.00000  Uiso   1.00
C283   C     0.94169   0.58930   0.09811   0.00000  Uiso   1.00
C284   C     0.02296   0.56307   0.12704   0.00000  Uiso   1.00
C285   C     0.15640   0.49340   0.18194   0.00000  Uiso   1.00
C286   C     0.77493   0.75486   0.95005   0.00000  Uiso   1.00
C287   C     0.71502   0.75635   0.88536   0.00000  Uiso   1.00
C288   C     0.69262   0.80653   0.81697   0.00000  Uiso   1.00
C289   C     0.63486   0.87776   0.69243   0.00000  Uiso   1.00
C290   C     0.87537   0.79081   0.02418   0.00000  Uiso   1.00
C291   C     0.83480   0.80033   0.06824   0.00000  Uiso   1.00
C292   C     0.83233   0.84927   0.10225   0.00000  Uiso   1.00
C293   C     0.79225   0.84960   0.13992   0.00000  Uiso   1.00
C294   C     0.93435   0.71105   0.06214   0.00000  Uiso   1.00
C295   C     0.01558   0.68493   0.09102   0.00000  Uiso   1.00
C296   C     0.05930   0.61010   0.12355   0.00000  Uiso   1.00
C297   C     0.81120   0.80181   0.94657   0.00000  Uiso   1.00
C298   C     0.78890   0.85198   0.87827   0.00000  Uiso   1.00
C299   C     0.72896   0.85355   0.81348   0.00000  Uiso   1.00
H300   H     0.78035   0.66782   0.03331   0.00000  Uiso   1.00
H301   H     0.73039   0.71730   0.11203   0.00000  Uiso   1.00
H302   H     0.91360   0.55298   0.10079   0.00000  Uiso   1.00
H303   H     0.68696   0.72001   0.88807   0.00000  Uiso   1.00
H304   H     0.69101   0.79283   0.19780   0.00000  Uiso   1.00
H305   H     0.07732   0.44637   0.17408   0.00000  Uiso   1.00
H306   H     0.59941   0.79859   0.72552   0.00000  Uiso   1.00
H307   H     0.90362   0.82736   0.02147   0.00000  Uiso   1.00
H308   H     0.86041   0.88559   0.09955   0.00000  Uiso   1.00
H309   H     0.04363   0.72127   0.08831   0.00000  Uiso   1.00
H310   H     0.81699   0.88830   0.87559   0.00000  Uiso   1.00
H311   H     0.79655   0.92942   0.18767   0.00000  Uiso   1.00
H312   H     0.18286   0.58296   0.16395   0.00000  Uiso   1.00
H313   H     0.70495   0.93518   0.71539   0.00000  Uiso   1.00
O314   O     0.71316   0.89654   0.24434   0.00000  Uiso   1.00
O315   O     0.21998   0.44200   0.21320   0.00000  Uiso   1.00
O316   O     0.59297   0.90409   0.62470   0.00000  Uiso   1.00
N317   N     0.72177   0.81700   0.18469   0.00000  Uiso   1.00
N318   N     0.08294   0.49308   0.16252   0.00000  Uiso   1.00
N319   N     0.63615   0.82235   0.74316   0.00000  Uiso   1.00
N320   N     0.77856   0.89050   0.17924   0.00000  Uiso   1.00
N321   N     0.13973   0.56658   0.15707   0.00000  Uiso   1.00
N322   N     0.69294   0.89585   0.73771   0.00000  Uiso   1.00
C323   C     0.26773   0.00732   0.51533   0.00000  Uiso   1.00
C324   C     0.24830   0.08445   0.46939   0.00000  Uiso   1.00
C325   C     0.17356   0.14275   0.42691   0.00000  Uiso   1.00
C326   C     0.16816   0.20891   0.38897   0.00000  Uiso   1.00
C327   C     0.12781   0.32754   0.31699   0.00000  Uiso   1.00
C328   C     0.33294   0.98844   0.59569   0.00000  Uiso   1.00
C329   C     0.32936   0.96600   0.65939   0.00000  Uiso   1.00
C330   C     0.39521   0.95133   0.72777   0.00000  Uiso   1.00
C331   C     0.48628   0.92085   0.85188   0.00000  Uiso   1.00
C332   C     0.30645   0.95855   0.48652   0.00000  Uiso   1.00
C333   C     0.28062   0.91097   0.45845   0.00000  Uiso   1.00
C334   C     0.32418   0.87113   0.43493   0.00000  Uiso   1.00
C335   C     0.37413   0.79425   0.38953   0.00000  Uiso   1.00
C336   C     0.39103   0.02116   0.52350   0.00000  Uiso   1.00
C337   C     0.31527   0.09197   0.47383   0.00000  Uiso   1.00
C338   C     0.30998   0.15806   0.43594   0.00000  Uiso   1.00
C339   C     0.23525   0.21645   0.39341   0.00000  Uiso   1.00
C340   C     0.39991   0.99595   0.60013   0.00000  Uiso   1.00
C341   C     0.46578   0.98131   0.66842   0.00000  Uiso   1.00
C342   C     0.46230   0.95886   0.73221   0.00000  Uiso   1.00
C343   C     0.37342   0.96607   0.49095   0.00000  Uiso   1.00
C344   C     0.41703   0.92629   0.46748   0.00000  Uiso   1.00
C345   C     0.39128   0.87866   0.43937   0.00000  Uiso   1.00
H346   H     0.21559   0.00146   0.51189   0.00000  Uiso   1.00
H347   H     0.12175   0.13691   0.42350   0.00000  Uiso   1.00
H348   H     0.27753   0.96018   0.65595   0.00000  Uiso   1.00
H349   H     0.22879   0.90517   0.45503   0.00000  Uiso   1.00
H350   H     0.04725   0.29040   0.32748   0.00000  Uiso   1.00
H351   H     0.37573   0.91773   0.81761   0.00000  Uiso   1.00
H352   H     0.27296   0.80173   0.39394   0.00000  Uiso   1.00
H353   H     0.44317   0.02701   0.52695   0.00000  Uiso   1.00
H354   H     0.36182   0.16386   0.43938   0.00000  Uiso   1.00
H355   H     0.51759   0.98713   0.67183   0.00000  Uiso   1.00
H356   H     0.46886   0.93212   0.47091   0.00000  Uiso   1.00
H357   H     0.24210   0.31227   0.34038   0.00000  Uiso   1.00
H358   H     0.57057   0.93961   0.83051   0.00000  Uiso   1.00
H359   H     0.46781   0.82360   0.40683   0.00000  Uiso   1.00
O360   O     0.08705   0.39090   0.27607   0.00000  Uiso   1.00
O361   O     0.51801   0.90197   0.91911   0.00000  Uiso   1.00
O362   O     0.38318   0.74978   0.36325   0.00000  Uiso   1.00
N363   N     0.10427   0.27676   0.34252   0.00000  Uiso   1.00
N364   N     0.41137   0.92835   0.80076   0.00000  Uiso   1.00
N365   N     0.31530   0.81988   0.40468   0.00000  Uiso   1.00
N366   N     0.20911   0.28853   0.34946   0.00000  Uiso   1.00
N367   N     0.51621   0.94013   0.80770   0.00000  Uiso   1.00
N368   N     0.42015   0.83166   0.41162   0.00000  Uiso   1.00
C369   C     0.98400   0.63283   0.69490   0.00000  Uiso   1.00
C370   C     0.07454   0.59697   0.74649   0.00000  Uiso   1.00
C371   C     0.12645   0.53862   0.74598   0.00000  Uiso   1.00
C372   C     0.20722   0.51372   0.79762   0.00000  Uiso   1.00
C373   C     0.34359   0.45314   0.87004   0.00000  Uiso   1.00
C374   C     0.96067   0.71292   0.65503   0.00000  Uiso   1.00
C375   C     0.91683   0.75206   0.57763   0.00000  Uiso   1.00
C376   C     0.90174   0.82477   0.55229   0.00000  Uiso   1.00
C377   C     0.86128   0.94422   0.48272   0.00000  Uiso   1.00
C378   C     0.95181   0.62941   0.74666   0.00000  Uiso   1.00
C379   C     0.90051   0.59836   0.74629   0.00000  Uiso   1.00
C380   C     0.87794   0.60077   0.79808   0.00000  Uiso   1.00
C381   C     0.82372   0.59055   0.87078   0.00000  Uiso   1.00
C382   C     0.03512   0.69235   0.78753   0.00000  Uiso   1.00
C383   C     0.10231   0.62930   0.79680   0.00000  Uiso   1.00
C384   C     0.18302   0.60448   0.84846   0.00000  Uiso   1.00
C385   C     0.23504   0.54611   0.84803   0.00000  Uiso   1.00
C386   C     0.98844   0.74525   0.70534   0.00000  Uiso   1.00
C387   C     0.97340   0.81792   0.68011   0.00000  Uiso   1.00
C388   C     0.92956   0.85716   0.60269   0.00000  Uiso   1.00
C389   C     0.97958   0.66173   0.79697   0.00000  Uiso   1.00
C390   C     0.95708   0.66421   0.84877   0.00000  Uiso   1.00
C391   C     0.90576   0.63316   0.84848   0.00000  Uiso   1.00
H392   H     0.96237   0.60767   0.65573   0.00000  Uiso   1.00
H393   H     0.10494   0.51362   0.70703   0.00000  Uiso   1.00
H394   H     0.89535   0.72703   0.53871   0.00000  Uiso   1.00
H395   H     0.87903   0.57334   0.70734   0.00000  Uiso   1.00
H396   H     0.27525   0.42363   0.78607   0.00000  Uiso   1.00
H397   H     0.83329   0.87362   0.43115   0.00000  Uiso   1.00
H398   H     0.79888   0.54954   0.78676   0.00000  Uiso   1.00
H399   H     0.05674   0.71753   0.82670   0.00000  Uiso   1.00
H400   H     0.20449   0.62951   0.88739   0.00000  Uiso   1.00
H401   H     0.99490   0.84292   0.71906   0.00000  Uiso   1.00
H402   H     0.97858   0.68923   0.88770   0.00000  Uiso   1.00
H403   H     0.35604   0.51769   0.93245   0.00000  Uiso   1.00
H404   H     0.91408   0.96768   0.57753   0.00000  Uiso   1.00
H405   H     0.87968   0.64360   0.93314   0.00000  Uiso   1.00
O406   O     0.41114   0.41080   0.89608   0.00000  Uiso   1.00
O407   O     0.83129   0.00117   0.43044   0.00000  Uiso   1.00
O408   O     0.78615   0.57598   0.89699   0.00000  Uiso   1.00
N409   N     0.27398   0.45784   0.81220   0.00000  Uiso   1.00
N410   N     0.86079   0.87855   0.48038   0.00000  Uiso   1.00
N411   N     0.82860   0.57558   0.81282   0.00000  Uiso   1.00
N412   N     0.31746   0.50845   0.89097   0.00000  Uiso   1.00
N413   N     0.90427   0.92916   0.55914   0.00000  Uiso   1.00
N414   N     0.87208   0.62619   0.89159   0.00000  Uiso   1.00
C415   C     0.84483   0.19751   0.58530   0.00000  Uiso   1.00
C416   C     0.92016   0.12674   0.63820   0.00000  Uiso   1.00
C417   C     0.94647   0.08571   0.71186   0.00000  Uiso   1.00
C418   C     0.01684   0.02267   0.75093   0.00000  Uiso   1.00
C419   C     0.12737   0.91602   0.83817   0.00000  Uiso   1.00
C420   C     0.87172   0.25358   0.56005   0.00000  Uiso   1.00
C421   C     0.85728   0.31921   0.56801   0.00000  Uiso   1.00
C422   C     0.88687   0.36295   0.54128   0.00000  Uiso   1.00
C423   C     0.92214   0.45326   0.50716   0.00000  Uiso   1.00
C424   C     0.79619   0.18549   0.51542   0.00000  Uiso   1.00
C425   C     0.71825   0.19388   0.48583   0.00000  Uiso   1.00
C426   C     0.68424   0.18032   0.42152   0.00000  Uiso   1.00
C427   C     0.60224   0.16490   0.31810   0.00000  Uiso   1.00
C428   C     0.92301   0.15852   0.52369   0.00000  Uiso   1.00
C429   C     0.96263   0.10556   0.60473   0.00000  Uiso   1.00
C430   C     0.03298   0.04256   0.64370   0.00000  Uiso   1.00
C431   C     0.05939   0.00145   0.71741   0.00000  Uiso   1.00
C432   C     0.91418   0.23241   0.52659   0.00000  Uiso   1.00
C433   C     0.94379   0.27607   0.49985   0.00000  Uiso   1.00
C434   C     0.92941   0.34174   0.50776   0.00000  Uiso   1.00
C435   C     0.83866   0.16431   0.48196   0.00000  Uiso   1.00
C436   C     0.80476   0.15073   0.41768   0.00000  Uiso   1.00
C437   C     0.72678   0.15910   0.38800   0.00000  Uiso   1.00
H438   H     0.81176   0.21400   0.61135   0.00000  Uiso   1.00
H439   H     0.91359   0.10212   0.73774   0.00000  Uiso   1.00
H440   H     0.82441   0.33559   0.59390   0.00000  Uiso   1.00
H441   H     0.68540   0.21028   0.51174   0.00000  Uiso   1.00
H442   H     0.04523   0.96875   0.86312   0.00000  Uiso   1.00
H443   H     0.85716   0.46104   0.55980   0.00000  Uiso   1.00
H444   H     0.56403   0.19680   0.38656   0.00000  Uiso   1.00
H445   H     0.95608   0.14203   0.49764   0.00000  Uiso   1.00
H446   H     0.06583   0.02619   0.61779   0.00000  Uiso   1.00
H447   H     0.97665   0.25966   0.47395   0.00000  Uiso   1.00
H448   H     0.83764   0.13435   0.39180   0.00000  Uiso   1.00
H449   H     0.16879   0.90712   0.76576   0.00000  Uiso   1.00
H450   H     0.98072   0.39942   0.46245   0.00000  Uiso   1.00
H451   H     0.68760   0.13517   0.28921   0.00000  Uiso   1.00
O452   O     0.17662   0.86305   0.89554   0.00000  Uiso   1.00
O453   O     0.92987   0.50892   0.49759   0.00000  Uiso   1.00
O454   O     0.54529   0.16223   0.27031   0.00000  Uiso   1.00
N455   N     0.05924   0.97014   0.82371   0.00000  Uiso   1.00
N456   N     0.88342   0.43039   0.54014   0.00000  Uiso   1.00
N457   N     0.60936   0.18337   0.37816   0.00000  Uiso   1.00
N458   N     0.12573   0.93697   0.77132   0.00000  Uiso   1.00
N459   N     0.94991   0.39723   0.48776   0.00000  Uiso   1.00
N460   N     0.67585   0.15020   0.32578   0.00000  Uiso   1.00
C461   C     0.70346   0.10396   0.15210   0.00000  Uiso   1.00
C462   C     0.69700   0.08769   0.08452   0.00000  Uiso   1.00
C463   C     0.66561   0.04186   0.05846   0.00000  Uiso   1.00
C464   C     0.66505   0.03417   0.99582   0.00000  Uiso   1.00
C465   C     0.65052   0.00327   0.89628   0.00000  Uiso   1.00
C466   C     0.79125   0.08450   0.20465   0.00000  Uiso   1.00
C467   C     0.83910   0.03600   0.27959   0.00000  Uiso   1.00
C468   C     0.91789   0.02564   0.31807   0.00000  Uiso   1.00
C469   C     0.04968   0.98983   0.40504   0.00000  Uiso   1.00
C470   C     0.65971   0.18618   0.12264   0.00000  Uiso   1.00
C471   C     0.59697   0.22318   0.12864   0.00000  Uiso   1.00
C472   C     0.56501   0.29843   0.09809   0.00000  Uiso   1.00
C473   C     0.49255   0.42050   0.05773   0.00000  Uiso   1.00
C474   C     0.75828   0.17181   0.08718   0.00000  Uiso   1.00
C475   C     0.72678   0.12454   0.04927   0.00000  Uiso   1.00
C476   C     0.72626   0.11692   0.98664   0.00000  Uiso   1.00
C477   C     0.69487   0.07109   0.96049   0.00000  Uiso   1.00
C478   C     0.82103   0.12135   0.16939   0.00000  Uiso   1.00
C479   C     0.89976   0.11106   0.20777   0.00000  Uiso   1.00
C480   C     0.94772   0.06256   0.28274   0.00000  Uiso   1.00
C481   C     0.68948   0.22303   0.08738   0.00000  Uiso   1.00
C482   C     0.65762   0.29824   0.05682   0.00000  Uiso   1.00
C483   C     0.59484   0.33535   0.06277   0.00000  Uiso   1.00
H484   H     0.68028   0.07527   0.17955   0.00000  Uiso   1.00
H485   H     0.64257   0.01334   0.08577   0.00000  Uiso   1.00
H486   H     0.81604   0.00750   0.30686   0.00000  Uiso   1.00
H487   H     0.57394   0.19465   0.15593   0.00000  Uiso   1.00
H488   H     0.61393   0.96092   0.96627   0.00000  Uiso   1.00
H489   H     0.97969   0.94861   0.43245   0.00000  Uiso   1.00
H490   H     0.46917   0.34325   0.11419   0.00000  Uiso   1.00
H491   H     0.78147   0.20050   0.05973   0.00000  Uiso   1.00
H492   H     0.74931   0.14545   0.95937   0.00000  Uiso   1.00
H493   H     0.92278   0.13959   0.18046   0.00000  Uiso   1.00
H494   H     0.68068   0.32674   0.02953   0.00000  Uiso   1.00
H495   H     0.70056   0.06814   0.86368   0.00000  Uiso   1.00
H496   H     0.06632   0.05582   0.32987   0.00000  Uiso   1.00
H497   H     0.55580   0.45047   0.01160   0.00000  Uiso   1.00
O498   O     0.63429   0.97603   0.85113   0.00000  Uiso   1.00
O499   O     0.11415   0.95989   0.46275   0.00000  Uiso   1.00
O500   O     0.44436   0.47765   0.04520   0.00000  Uiso   1.00
N501   N     0.63872   0.99372   0.95588   0.00000  Uiso   1.00
N502   N     0.98068   0.98220   0.39174   0.00000  Uiso   1.00
N503   N     0.50340   0.35116   0.09421   0.00000  Uiso   1.00
N504   N     0.68533   0.05141   0.90068   0.00000  Uiso   1.00
N505   N     0.02730   0.03989   0.33654   0.00000  Uiso   1.00
N506   N     0.55002   0.40885   0.03901   0.00000  Uiso   1.00
C507   C     0.38637   0.55337   0.17043   0.00000  Uiso   1.00
C508   C     0.32657   0.62896   0.14891   0.00000  Uiso   1.00
C509   C     0.25862   0.67357   0.07824   0.00000  Uiso   1.00
C510   C     0.21160   0.74076   0.06998   0.00000  Uiso   1.00
C511   C     0.11568   0.85483   0.02739   0.00000  Uiso   1.00
C512   C     0.46721   0.55577   0.20160   0.00000  Uiso   1.00
C513   C     0.51751   0.53883   0.17522   0.00000  Uiso   1.00
C514   C     0.58889   0.54440   0.21132   0.00000  Uiso   1.00
C515   C     0.71134   0.54479   0.25056   0.00000  Uiso   1.00
C516   C     0.39091   0.50281   0.23685   0.00000  Uiso   1.00
C517   C     0.37708   0.44133   0.24013   0.00000  Uiso   1.00
C518   C     0.38423   0.40230   0.30591   0.00000  Uiso   1.00
C519   C     0.38822   0.32046   0.39988   0.00000  Uiso   1.00
C520   C     0.42369   0.59337   0.28144   0.00000  Uiso   1.00
C521   C     0.34685   0.65068   0.20921   0.00000  Uiso   1.00
C522   C     0.29991   0.71782   0.20105   0.00000  Uiso   1.00
C523   C     0.23190   0.76252   0.13038   0.00000  Uiso   1.00
C524   C     0.48748   0.57749   0.26189   0.00000  Uiso   1.00
C525   C     0.55880   0.58308   0.29804   0.00000  Uiso   1.00
C526   C     0.60919   0.56616   0.27172   0.00000  Uiso   1.00
C527   C     0.41118   0.52453   0.29714   0.00000  Uiso   1.00
C528   C     0.41836   0.48559   0.36294   0.00000  Uiso   1.00
C529   C     0.40454   0.42406   0.36631   0.00000  Uiso   1.00
H530   H     0.37060   0.53646   0.12349   0.00000  Uiso   1.00
H531   H     0.24296   0.65674   0.03159   0.00000  Uiso   1.00
H532   H     0.50181   0.52201   0.12857   0.00000  Uiso   1.00
H533   H     0.36140   0.42453   0.19346   0.00000  Uiso   1.00
H534   H     0.11041   0.79968   0.95629   0.00000  Uiso   1.00
H535   H     0.65622   0.51558   0.16078   0.00000  Uiso   1.00
H536   H     0.36013   0.31002   0.29762   0.00000  Uiso   1.00
H537   H     0.43947   0.61028   0.32838   0.00000  Uiso   1.00
H538   H     0.31561   0.73462   0.24772   0.00000  Uiso   1.00
H539   H     0.57447   0.59989   0.34470   0.00000  Uiso   1.00
H540   H     0.43405   0.50241   0.40959   0.00000  Uiso   1.00
H541   H     0.16938   0.86289   0.13171   0.00000  Uiso   1.00
H542   H     0.71520   0.57879   0.33620   0.00000  Uiso   1.00
H543   H     0.41910   0.37324   0.47303   0.00000  Uiso   1.00
O544   O     0.05719   0.91175   0.98724   0.00000  Uiso   1.00
O545   O     0.77328   0.53901   0.25554   0.00000  Uiso   1.00
O546   O     0.38481   0.26933   0.43505   0.00000  Uiso   1.00
N547   N     0.14128   0.79749   0.00865   0.00000  Uiso   1.00
N548   N     0.65158   0.53188   0.19983   0.00000  Uiso   1.00
N549   N     0.37477   0.33969   0.32776   0.00000  Uiso   1.00
N550   N     0.17301   0.83150   0.10304   0.00000  Uiso   1.00
N551   N     0.68331   0.56589   0.29422   0.00000  Uiso   1.00
N552   N     0.40650   0.37371   0.42215   0.00000  Uiso   1.00
