data_job_03831
_audit_creation_date              2018-12-19
_audit_creation_method            'Materials Studio'
_symmetry_space_group_name_H-M    'P1'
_symmetry_Int_Tables_number       1
_symmetry_cell_setting            triclinic
loop_
_symmetry_equiv_pos_as_xyz
  x,y,z
_cell_length_a                    13.8795
_cell_length_b                    13.8795
_cell_length_c                    35.9454
_cell_angle_alpha                 90.0000
_cell_angle_beta                  90.0000
_cell_angle_gamma                 90.0000
loop_
_atom_site_label
_atom_site_type_symbol
_atom_site_fract_x
_atom_site_fract_y
_atom_site_fract_z
_atom_site_U_iso_or_equiv
_atom_site_adp_type
_atom_site_occupancy
C1     C     0.32355   0.79816   0.65569   0.00000  Uiso   1.00
C2     C     0.27288   0.85130   0.62413   0.00000  Uiso   1.00
C3     C     0.23026   0.94151   0.62667   0.00000  Uiso   1.00
C4     C     0.18759   0.97770   0.59465   0.00000  Uiso   1.00
C5     C     0.10887   0.06813   0.55072   0.00000  Uiso   1.00
C6     C     0.27287   0.70110   0.65920   0.00000  Uiso   1.00
C7     C     0.23026   0.66502   0.69124   0.00000  Uiso   1.00
C8     C     0.18760   0.57477   0.68874   0.00000  Uiso   1.00
C9     C     0.10894   0.43199   0.69928   0.00000  Uiso   1.00
C10    C     0.42489   0.77619   0.64168   0.00000  Uiso   1.00
C11    C     0.51010   0.80323   0.65897   0.00000  Uiso   1.00
C12    C     0.59543   0.77618   0.64172   0.00000  Uiso   1.00
C13    C     0.75279   0.75000   0.62504   0.00000  Uiso   1.00
C14    C     0.32356   0.70202   0.59431   0.00000  Uiso   1.00
C15    C     0.27289   0.79908   0.59079   0.00000  Uiso   1.00
C16    C     0.23027   0.83514   0.55876   0.00000  Uiso   1.00
C17    C     0.18760   0.92539   0.56125   0.00000  Uiso   1.00
C18    C     0.27288   0.64888   0.62587   0.00000  Uiso   1.00
C19    C     0.23028   0.55866   0.62333   0.00000  Uiso   1.00
C20    C     0.18761   0.52246   0.65535   0.00000  Uiso   1.00
C21    C     0.42490   0.72398   0.60834   0.00000  Uiso   1.00
C22    C     0.51011   0.69687   0.59106   0.00000  Uiso   1.00
C23    C     0.59544   0.72387   0.60833   0.00000  Uiso   1.00
H24    H     0.32354   0.83881   0.68164   0.00000  Uiso   1.00
H25    H     0.23026   0.98189   0.65247   0.00000  Uiso   1.00
H26    H     0.23027   0.70544   0.71703   0.00000  Uiso   1.00
H27    H     0.51006   0.84364   0.68477   0.00000  Uiso   1.00
H28    H     0.12681   0.11748   0.60543   0.00000  Uiso   1.00
H29    H     0.12687   0.53457   0.74156   0.00000  Uiso   1.00
H30    H     0.71687   0.82598   0.67353   0.00000  Uiso   1.00
H31    H     0.32357   0.66136   0.56836   0.00000  Uiso   1.00
H32    H     0.23029   0.79472   0.53297   0.00000  Uiso   1.00
H33    H     0.23031   0.51827   0.59753   0.00000  Uiso   1.00
H34    H     0.51010   0.65646   0.56527   0.00000  Uiso   1.00
H35    H     0.12683   0.96556   0.50844   0.00000  Uiso   1.00
H36    H     0.12690   0.38264   0.64457   0.00000  Uiso   1.00
H37    H     0.71689   0.67406   0.57654   0.00000  Uiso   1.00
O38    O     0.06543   0.13243   0.53570   0.00000  Uiso   1.00
O39    O     0.06553   0.36766   0.71430   0.00000  Uiso   1.00
O40    O     0.83959   0.74999   0.62504   0.00000  Uiso   1.00
N41    N     0.13964   0.06343   0.58746   0.00000  Uiso   1.00
N42    N     0.13968   0.51845   0.71473   0.00000  Uiso   1.00
N43    N     0.69128   0.79087   0.65113   0.00000  Uiso   1.00
N44    N     0.13965   0.98169   0.53527   0.00000  Uiso   1.00
N45    N     0.13969   0.43670   0.66254   0.00000  Uiso   1.00
N46    N     0.69129   0.70913   0.59894   0.00000  Uiso   1.00
C47    C     0.82355   0.29816   0.15569   0.00000  Uiso   1.00
C48    C     0.77288   0.35130   0.12413   0.00000  Uiso   1.00
C49    C     0.73026   0.44151   0.12667   0.00000  Uiso   1.00
C50    C     0.68759   0.47770   0.09465   0.00000  Uiso   1.00
C51    C     0.60887   0.56813   0.05072   0.00000  Uiso   1.00
C52    C     0.77287   0.20110   0.15920   0.00000  Uiso   1.00
C53    C     0.73026   0.16502   0.19124   0.00000  Uiso   1.00
C54    C     0.68760   0.07477   0.18874   0.00000  Uiso   1.00
C55    C     0.60894   0.93199   0.19928   0.00000  Uiso   1.00
C56    C     0.92489   0.27619   0.14168   0.00000  Uiso   1.00
C57    C     0.01010   0.30323   0.15897   0.00000  Uiso   1.00
C58    C     0.09543   0.27618   0.14172   0.00000  Uiso   1.00
C59    C     0.25279   0.25000   0.12504   0.00000  Uiso   1.00
C60    C     0.82356   0.20202   0.09431   0.00000  Uiso   1.00
C61    C     0.77289   0.29908   0.09079   0.00000  Uiso   1.00
C62    C     0.73027   0.33514   0.05876   0.00000  Uiso   1.00
C63    C     0.68760   0.42539   0.06125   0.00000  Uiso   1.00
C64    C     0.77288   0.14888   0.12587   0.00000  Uiso   1.00
C65    C     0.73028   0.05866   0.12333   0.00000  Uiso   1.00
C66    C     0.68761   0.02246   0.15535   0.00000  Uiso   1.00
C67    C     0.92490   0.22398   0.10834   0.00000  Uiso   1.00
C68    C     0.01011   0.19687   0.09106   0.00000  Uiso   1.00
C69    C     0.09544   0.22387   0.10833   0.00000  Uiso   1.00
H70    H     0.82354   0.33881   0.18164   0.00000  Uiso   1.00
H71    H     0.73026   0.48189   0.15247   0.00000  Uiso   1.00
H72    H     0.73027   0.20544   0.21703   0.00000  Uiso   1.00
H73    H     0.01006   0.34364   0.18477   0.00000  Uiso   1.00
H74    H     0.62681   0.61748   0.10543   0.00000  Uiso   1.00
H75    H     0.62687   0.03457   0.24156   0.00000  Uiso   1.00
H76    H     0.21687   0.32598   0.17353   0.00000  Uiso   1.00
H77    H     0.82357   0.16136   0.06836   0.00000  Uiso   1.00
H78    H     0.73029   0.29472   0.03297   0.00000  Uiso   1.00
H79    H     0.73031   0.01827   0.09753   0.00000  Uiso   1.00
H80    H     0.01010   0.15646   0.06527   0.00000  Uiso   1.00
H81    H     0.62683   0.46556   0.00844   0.00000  Uiso   1.00
H82    H     0.62690   0.88264   0.14457   0.00000  Uiso   1.00
H83    H     0.21689   0.17406   0.07654   0.00000  Uiso   1.00
O84    O     0.56543   0.63243   0.03570   0.00000  Uiso   1.00
O85    O     0.56553   0.86766   0.21430   0.00000  Uiso   1.00
O86    O     0.33959   0.24999   0.12504   0.00000  Uiso   1.00
N87    N     0.63964   0.56343   0.08746   0.00000  Uiso   1.00
N88    N     0.63968   0.01845   0.21473   0.00000  Uiso   1.00
N89    N     0.19128   0.29087   0.15113   0.00000  Uiso   1.00
N90    N     0.63965   0.48169   0.03527   0.00000  Uiso   1.00
N91    N     0.63969   0.93670   0.16254   0.00000  Uiso   1.00
N92    N     0.19129   0.20913   0.09894   0.00000  Uiso   1.00
C93    C     0.67645   0.20184   0.65569   0.00000  Uiso   1.00
C94    C     0.72712   0.14870   0.62413   0.00000  Uiso   1.00
C95    C     0.76974   0.05849   0.62667   0.00000  Uiso   1.00
C96    C     0.81241   0.02230   0.59465   0.00000  Uiso   1.00
C97    C     0.89113   0.93187   0.55072   0.00000  Uiso   1.00
C98    C     0.72713   0.29890   0.65920   0.00000  Uiso   1.00
C99    C     0.76974   0.33498   0.69124   0.00000  Uiso   1.00
C100   C     0.81240   0.42523   0.68874   0.00000  Uiso   1.00
C101   C     0.89106   0.56801   0.69928   0.00000  Uiso   1.00
C102   C     0.57511   0.22381   0.64168   0.00000  Uiso   1.00
C103   C     0.48990   0.19677   0.65897   0.00000  Uiso   1.00
C104   C     0.40457   0.22382   0.64172   0.00000  Uiso   1.00
C105   C     0.24721   0.25000   0.62504   0.00000  Uiso   1.00
C106   C     0.67644   0.29798   0.59431   0.00000  Uiso   1.00
C107   C     0.72711   0.20092   0.59079   0.00000  Uiso   1.00
C108   C     0.76973   0.16486   0.55876   0.00000  Uiso   1.00
C109   C     0.81240   0.07461   0.56125   0.00000  Uiso   1.00
C110   C     0.72712   0.35112   0.62587   0.00000  Uiso   1.00
C111   C     0.76972   0.44134   0.62333   0.00000  Uiso   1.00
C112   C     0.81239   0.47754   0.65535   0.00000  Uiso   1.00
C113   C     0.57510   0.27602   0.60834   0.00000  Uiso   1.00
C114   C     0.48989   0.30313   0.59106   0.00000  Uiso   1.00
C115   C     0.40456   0.27613   0.60833   0.00000  Uiso   1.00
H116   H     0.67646   0.16119   0.68164   0.00000  Uiso   1.00
H117   H     0.76974   0.01811   0.65247   0.00000  Uiso   1.00
H118   H     0.76973   0.29456   0.71703   0.00000  Uiso   1.00
H119   H     0.48994   0.15636   0.68477   0.00000  Uiso   1.00
H120   H     0.87319   0.88252   0.60543   0.00000  Uiso   1.00
H121   H     0.87313   0.46543   0.74156   0.00000  Uiso   1.00
H122   H     0.28313   0.17402   0.67353   0.00000  Uiso   1.00
H123   H     0.67643   0.33864   0.56836   0.00000  Uiso   1.00
H124   H     0.76971   0.20528   0.53297   0.00000  Uiso   1.00
H125   H     0.76969   0.48173   0.59753   0.00000  Uiso   1.00
H126   H     0.48990   0.34354   0.56527   0.00000  Uiso   1.00
H127   H     0.87317   0.03444   0.50844   0.00000  Uiso   1.00
H128   H     0.87310   0.61736   0.64457   0.00000  Uiso   1.00
H129   H     0.28311   0.32594   0.57654   0.00000  Uiso   1.00
O130   O     0.93457   0.86757   0.53570   0.00000  Uiso   1.00
O131   O     0.93447   0.63234   0.71430   0.00000  Uiso   1.00
O132   O     0.16041   0.25001   0.62504   0.00000  Uiso   1.00
N133   N     0.86036   0.93657   0.58746   0.00000  Uiso   1.00
N134   N     0.86032   0.48155   0.71473   0.00000  Uiso   1.00
N135   N     0.30872   0.20913   0.65113   0.00000  Uiso   1.00
N136   N     0.86035   0.01831   0.53527   0.00000  Uiso   1.00
N137   N     0.86031   0.56330   0.66254   0.00000  Uiso   1.00
N138   N     0.30871   0.29087   0.59894   0.00000  Uiso   1.00
C139   C     0.17645   0.70184   0.15569   0.00000  Uiso   1.00
C140   C     0.22712   0.64870   0.12413   0.00000  Uiso   1.00
C141   C     0.26974   0.55849   0.12667   0.00000  Uiso   1.00
C142   C     0.31241   0.52230   0.09465   0.00000  Uiso   1.00
C143   C     0.39113   0.43187   0.05072   0.00000  Uiso   1.00
C144   C     0.22713   0.79890   0.15920   0.00000  Uiso   1.00
C145   C     0.26974   0.83498   0.19124   0.00000  Uiso   1.00
C146   C     0.31240   0.92523   0.18874   0.00000  Uiso   1.00
C147   C     0.39106   0.06801   0.19928   0.00000  Uiso   1.00
C148   C     0.07511   0.72381   0.14168   0.00000  Uiso   1.00
C149   C     0.98990   0.69677   0.15897   0.00000  Uiso   1.00
C150   C     0.90457   0.72382   0.14172   0.00000  Uiso   1.00
C151   C     0.74721   0.75000   0.12504   0.00000  Uiso   1.00
C152   C     0.17644   0.79798   0.09431   0.00000  Uiso   1.00
C153   C     0.22711   0.70092   0.09079   0.00000  Uiso   1.00
C154   C     0.26973   0.66486   0.05876   0.00000  Uiso   1.00
C155   C     0.31240   0.57461   0.06125   0.00000  Uiso   1.00
C156   C     0.22712   0.85112   0.12587   0.00000  Uiso   1.00
C157   C     0.26972   0.94134   0.12333   0.00000  Uiso   1.00
C158   C     0.31239   0.97754   0.15535   0.00000  Uiso   1.00
C159   C     0.07510   0.77602   0.10834   0.00000  Uiso   1.00
C160   C     0.98989   0.80313   0.09106   0.00000  Uiso   1.00
C161   C     0.90456   0.77613   0.10833   0.00000  Uiso   1.00
H162   H     0.17646   0.66119   0.18164   0.00000  Uiso   1.00
H163   H     0.26974   0.51811   0.15247   0.00000  Uiso   1.00
H164   H     0.26973   0.79456   0.21703   0.00000  Uiso   1.00
H165   H     0.98994   0.65636   0.18477   0.00000  Uiso   1.00
H166   H     0.37319   0.38252   0.10543   0.00000  Uiso   1.00
H167   H     0.37313   0.96543   0.24156   0.00000  Uiso   1.00
H168   H     0.78313   0.67402   0.17353   0.00000  Uiso   1.00
H169   H     0.17643   0.83864   0.06836   0.00000  Uiso   1.00
H170   H     0.26971   0.70528   0.03297   0.00000  Uiso   1.00
H171   H     0.26969   0.98173   0.09753   0.00000  Uiso   1.00
H172   H     0.98990   0.84354   0.06527   0.00000  Uiso   1.00
H173   H     0.37317   0.53444   0.00844   0.00000  Uiso   1.00
H174   H     0.37310   0.11736   0.14457   0.00000  Uiso   1.00
H175   H     0.78311   0.82594   0.07654   0.00000  Uiso   1.00
O176   O     0.43457   0.36757   0.03570   0.00000  Uiso   1.00
O177   O     0.43447   0.13234   0.21430   0.00000  Uiso   1.00
O178   O     0.66041   0.75001   0.12504   0.00000  Uiso   1.00
N179   N     0.36036   0.43657   0.08746   0.00000  Uiso   1.00
N180   N     0.36032   0.98155   0.21473   0.00000  Uiso   1.00
N181   N     0.80872   0.70913   0.15113   0.00000  Uiso   1.00
N182   N     0.36035   0.51831   0.03527   0.00000  Uiso   1.00
N183   N     0.36031   0.06330   0.16254   0.00000  Uiso   1.00
N184   N     0.80871   0.79087   0.09894   0.00000  Uiso   1.00
C185   C     0.79816   0.67645   0.34431   0.00000  Uiso   1.00
C186   C     0.85130   0.72712   0.37587   0.00000  Uiso   1.00
C187   C     0.94151   0.76974   0.37333   0.00000  Uiso   1.00
C188   C     0.97770   0.81241   0.40535   0.00000  Uiso   1.00
C189   C     0.06813   0.89113   0.44928   0.00000  Uiso   1.00
C190   C     0.70110   0.72713   0.34080   0.00000  Uiso   1.00
C191   C     0.66502   0.76974   0.30876   0.00000  Uiso   1.00
C192   C     0.57477   0.81240   0.31126   0.00000  Uiso   1.00
C193   C     0.43199   0.89106   0.30072   0.00000  Uiso   1.00
C194   C     0.77619   0.57511   0.35832   0.00000  Uiso   1.00
C195   C     0.80323   0.48990   0.34103   0.00000  Uiso   1.00
C196   C     0.77618   0.40457   0.35828   0.00000  Uiso   1.00
C197   C     0.75000   0.24721   0.37496   0.00000  Uiso   1.00
C198   C     0.70202   0.67644   0.40569   0.00000  Uiso   1.00
C199   C     0.79908   0.72711   0.40921   0.00000  Uiso   1.00
C200   C     0.83514   0.76973   0.44124   0.00000  Uiso   1.00
C201   C     0.92539   0.81240   0.43875   0.00000  Uiso   1.00
C202   C     0.64888   0.72712   0.37413   0.00000  Uiso   1.00
C203   C     0.55866   0.76972   0.37667   0.00000  Uiso   1.00
C204   C     0.52246   0.81239   0.34465   0.00000  Uiso   1.00
C205   C     0.72398   0.57510   0.39166   0.00000  Uiso   1.00
C206   C     0.69687   0.48989   0.40894   0.00000  Uiso   1.00
C207   C     0.72387   0.40456   0.39167   0.00000  Uiso   1.00
H208   H     0.83881   0.67646   0.31836   0.00000  Uiso   1.00
H209   H     0.98189   0.76974   0.34753   0.00000  Uiso   1.00
H210   H     0.70544   0.76973   0.28297   0.00000  Uiso   1.00
H211   H     0.84364   0.48994   0.31523   0.00000  Uiso   1.00
H212   H     0.11748   0.87319   0.39457   0.00000  Uiso   1.00
H213   H     0.53457   0.87313   0.25844   0.00000  Uiso   1.00
H214   H     0.82598   0.28313   0.32647   0.00000  Uiso   1.00
H215   H     0.66136   0.67643   0.43164   0.00000  Uiso   1.00
H216   H     0.79472   0.76971   0.46703   0.00000  Uiso   1.00
H217   H     0.51827   0.76969   0.40247   0.00000  Uiso   1.00
H218   H     0.65646   0.48990   0.43473   0.00000  Uiso   1.00
H219   H     0.96556   0.87317   0.49156   0.00000  Uiso   1.00
H220   H     0.38264   0.87310   0.35543   0.00000  Uiso   1.00
H221   H     0.67406   0.28311   0.42346   0.00000  Uiso   1.00
O222   O     0.13243   0.93457   0.46430   0.00000  Uiso   1.00
O223   O     0.36766   0.93447   0.28570   0.00000  Uiso   1.00
O224   O     0.74999   0.16041   0.37496   0.00000  Uiso   1.00
N225   N     0.06343   0.86036   0.41254   0.00000  Uiso   1.00
N226   N     0.51845   0.86032   0.28527   0.00000  Uiso   1.00
N227   N     0.79087   0.30872   0.34887   0.00000  Uiso   1.00
N228   N     0.98169   0.86035   0.46473   0.00000  Uiso   1.00
N229   N     0.43670   0.86031   0.33746   0.00000  Uiso   1.00
N230   N     0.70913   0.30871   0.40106   0.00000  Uiso   1.00
C231   C     0.29816   0.17645   0.84431   0.00000  Uiso   1.00
C232   C     0.35130   0.22712   0.87587   0.00000  Uiso   1.00
C233   C     0.44151   0.26974   0.87333   0.00000  Uiso   1.00
C234   C     0.47770   0.31241   0.90535   0.00000  Uiso   1.00
C235   C     0.56813   0.39113   0.94928   0.00000  Uiso   1.00
C236   C     0.20110   0.22713   0.84080   0.00000  Uiso   1.00
C237   C     0.16502   0.26974   0.80876   0.00000  Uiso   1.00
C238   C     0.07477   0.31240   0.81126   0.00000  Uiso   1.00
C239   C     0.93199   0.39106   0.80072   0.00000  Uiso   1.00
C240   C     0.27619   0.07511   0.85832   0.00000  Uiso   1.00
C241   C     0.30323   0.98990   0.84103   0.00000  Uiso   1.00
C242   C     0.27618   0.90457   0.85828   0.00000  Uiso   1.00
C243   C     0.25000   0.74721   0.87496   0.00000  Uiso   1.00
C244   C     0.20202   0.17644   0.90569   0.00000  Uiso   1.00
C245   C     0.29908   0.22711   0.90921   0.00000  Uiso   1.00
C246   C     0.33514   0.26973   0.94124   0.00000  Uiso   1.00
C247   C     0.42539   0.31240   0.93875   0.00000  Uiso   1.00
C248   C     0.14888   0.22712   0.87413   0.00000  Uiso   1.00
C249   C     0.05866   0.26972   0.87667   0.00000  Uiso   1.00
C250   C     0.02246   0.31239   0.84465   0.00000  Uiso   1.00
C251   C     0.22398   0.07510   0.89166   0.00000  Uiso   1.00
C252   C     0.19687   0.98989   0.90894   0.00000  Uiso   1.00
C253   C     0.22387   0.90456   0.89167   0.00000  Uiso   1.00
H254   H     0.33881   0.17646   0.81836   0.00000  Uiso   1.00
H255   H     0.48189   0.26974   0.84753   0.00000  Uiso   1.00
H256   H     0.20544   0.26973   0.78297   0.00000  Uiso   1.00
H257   H     0.34364   0.98994   0.81523   0.00000  Uiso   1.00
H258   H     0.61748   0.37319   0.89457   0.00000  Uiso   1.00
H259   H     0.03457   0.37313   0.75844   0.00000  Uiso   1.00
H260   H     0.32598   0.78313   0.82647   0.00000  Uiso   1.00
H261   H     0.16136   0.17643   0.93164   0.00000  Uiso   1.00
H262   H     0.29472   0.26971   0.96703   0.00000  Uiso   1.00
H263   H     0.01827   0.26969   0.90247   0.00000  Uiso   1.00
H264   H     0.15646   0.98990   0.93473   0.00000  Uiso   1.00
H265   H     0.46556   0.37317   0.99156   0.00000  Uiso   1.00
H266   H     0.88264   0.37310   0.85543   0.00000  Uiso   1.00
H267   H     0.17406   0.78311   0.92346   0.00000  Uiso   1.00
O268   O     0.63243   0.43457   0.96430   0.00000  Uiso   1.00
O269   O     0.86766   0.43447   0.78570   0.00000  Uiso   1.00
O270   O     0.24999   0.66041   0.87496   0.00000  Uiso   1.00
N271   N     0.56343   0.36036   0.91254   0.00000  Uiso   1.00
N272   N     0.01845   0.36032   0.78527   0.00000  Uiso   1.00
N273   N     0.29087   0.80872   0.84887   0.00000  Uiso   1.00
N274   N     0.48169   0.36035   0.96473   0.00000  Uiso   1.00
N275   N     0.93670   0.36031   0.83746   0.00000  Uiso   1.00
N276   N     0.20913   0.80871   0.90106   0.00000  Uiso   1.00
C277   C     0.20184   0.32355   0.34431   0.00000  Uiso   1.00
C278   C     0.14870   0.27288   0.37587   0.00000  Uiso   1.00
C279   C     0.05849   0.23026   0.37333   0.00000  Uiso   1.00
C280   C     0.02230   0.18759   0.40535   0.00000  Uiso   1.00
C281   C     0.93187   0.10887   0.44928   0.00000  Uiso   1.00
C282   C     0.29890   0.27287   0.34080   0.00000  Uiso   1.00
C283   C     0.33498   0.23026   0.30876   0.00000  Uiso   1.00
C284   C     0.42523   0.18760   0.31126   0.00000  Uiso   1.00
C285   C     0.56801   0.10894   0.30072   0.00000  Uiso   1.00
C286   C     0.22381   0.42489   0.35832   0.00000  Uiso   1.00
C287   C     0.19677   0.51010   0.34103   0.00000  Uiso   1.00
C288   C     0.22382   0.59543   0.35828   0.00000  Uiso   1.00
C289   C     0.25000   0.75279   0.37496   0.00000  Uiso   1.00
C290   C     0.29798   0.32356   0.40569   0.00000  Uiso   1.00
C291   C     0.20092   0.27289   0.40921   0.00000  Uiso   1.00
C292   C     0.16486   0.23027   0.44124   0.00000  Uiso   1.00
C293   C     0.07461   0.18760   0.43875   0.00000  Uiso   1.00
C294   C     0.35112   0.27288   0.37413   0.00000  Uiso   1.00
C295   C     0.44134   0.23028   0.37667   0.00000  Uiso   1.00
C296   C     0.47754   0.18761   0.34465   0.00000  Uiso   1.00
C297   C     0.27602   0.42490   0.39166   0.00000  Uiso   1.00
C298   C     0.30313   0.51011   0.40894   0.00000  Uiso   1.00
C299   C     0.27613   0.59544   0.39167   0.00000  Uiso   1.00
H300   H     0.16119   0.32354   0.31836   0.00000  Uiso   1.00
H301   H     0.01811   0.23026   0.34753   0.00000  Uiso   1.00
H302   H     0.29456   0.23027   0.28297   0.00000  Uiso   1.00
H303   H     0.15636   0.51006   0.31523   0.00000  Uiso   1.00
H304   H     0.88252   0.12681   0.39457   0.00000  Uiso   1.00
H305   H     0.46543   0.12687   0.25844   0.00000  Uiso   1.00
H306   H     0.17402   0.71687   0.32647   0.00000  Uiso   1.00
H307   H     0.33864   0.32357   0.43164   0.00000  Uiso   1.00
H308   H     0.20528   0.23029   0.46703   0.00000  Uiso   1.00
H309   H     0.48173   0.23031   0.40247   0.00000  Uiso   1.00
H310   H     0.34354   0.51010   0.43473   0.00000  Uiso   1.00
H311   H     0.03444   0.12683   0.49156   0.00000  Uiso   1.00
H312   H     0.61736   0.12690   0.35543   0.00000  Uiso   1.00
H313   H     0.32594   0.71689   0.42346   0.00000  Uiso   1.00
O314   O     0.86757   0.06543   0.46430   0.00000  Uiso   1.00
O315   O     0.63234   0.06553   0.28570   0.00000  Uiso   1.00
O316   O     0.25001   0.83959   0.37496   0.00000  Uiso   1.00
N317   N     0.93657   0.13964   0.41254   0.00000  Uiso   1.00
N318   N     0.48155   0.13968   0.28527   0.00000  Uiso   1.00
N319   N     0.20913   0.69128   0.34887   0.00000  Uiso   1.00
N320   N     0.01831   0.13965   0.46473   0.00000  Uiso   1.00
N321   N     0.56330   0.13969   0.33746   0.00000  Uiso   1.00
N322   N     0.29087   0.69129   0.40106   0.00000  Uiso   1.00
C323   C     0.70184   0.82355   0.84431   0.00000  Uiso   1.00
C324   C     0.64870   0.77288   0.87587   0.00000  Uiso   1.00
C325   C     0.55849   0.73026   0.87333   0.00000  Uiso   1.00
C326   C     0.52230   0.68759   0.90535   0.00000  Uiso   1.00
C327   C     0.43187   0.60887   0.94928   0.00000  Uiso   1.00
C328   C     0.79890   0.77287   0.84080   0.00000  Uiso   1.00
C329   C     0.83498   0.73026   0.80876   0.00000  Uiso   1.00
C330   C     0.92523   0.68760   0.81126   0.00000  Uiso   1.00
C331   C     0.06801   0.60894   0.80072   0.00000  Uiso   1.00
C332   C     0.72381   0.92489   0.85832   0.00000  Uiso   1.00
C333   C     0.69677   0.01010   0.84103   0.00000  Uiso   1.00
C334   C     0.72382   0.09543   0.85828   0.00000  Uiso   1.00
C335   C     0.75000   0.25279   0.87496   0.00000  Uiso   1.00
C336   C     0.79798   0.82356   0.90569   0.00000  Uiso   1.00
C337   C     0.70092   0.77289   0.90921   0.00000  Uiso   1.00
C338   C     0.66486   0.73027   0.94124   0.00000  Uiso   1.00
C339   C     0.57461   0.68760   0.93875   0.00000  Uiso   1.00
C340   C     0.85112   0.77288   0.87413   0.00000  Uiso   1.00
C341   C     0.94134   0.73028   0.87667   0.00000  Uiso   1.00
C342   C     0.97754   0.68761   0.84465   0.00000  Uiso   1.00
C343   C     0.77602   0.92490   0.89166   0.00000  Uiso   1.00
C344   C     0.80313   0.01011   0.90894   0.00000  Uiso   1.00
C345   C     0.77613   0.09544   0.89167   0.00000  Uiso   1.00
H346   H     0.66119   0.82354   0.81836   0.00000  Uiso   1.00
H347   H     0.51811   0.73026   0.84753   0.00000  Uiso   1.00
H348   H     0.79456   0.73027   0.78297   0.00000  Uiso   1.00
H349   H     0.65636   0.01006   0.81523   0.00000  Uiso   1.00
H350   H     0.38252   0.62681   0.89457   0.00000  Uiso   1.00
H351   H     0.96543   0.62687   0.75844   0.00000  Uiso   1.00
H352   H     0.67402   0.21687   0.82647   0.00000  Uiso   1.00
H353   H     0.83864   0.82357   0.93164   0.00000  Uiso   1.00
H354   H     0.70528   0.73029   0.96703   0.00000  Uiso   1.00
H355   H     0.98173   0.73031   0.90247   0.00000  Uiso   1.00
H356   H     0.84354   0.01010   0.93473   0.00000  Uiso   1.00
H357   H     0.53444   0.62683   0.99156   0.00000  Uiso   1.00
H358   H     0.11736   0.62690   0.85543   0.00000  Uiso   1.00
H359   H     0.82594   0.21689   0.92346   0.00000  Uiso   1.00
O360   O     0.36757   0.56543   0.96430   0.00000  Uiso   1.00
O361   O     0.13234   0.56553   0.78570   0.00000  Uiso   1.00
O362   O     0.75001   0.33959   0.87496   0.00000  Uiso   1.00
N363   N     0.43657   0.63964   0.91254   0.00000  Uiso   1.00
N364   N     0.98155   0.63968   0.78527   0.00000  Uiso   1.00
N365   N     0.70913   0.19128   0.84887   0.00000  Uiso   1.00
N366   N     0.51831   0.63965   0.96473   0.00000  Uiso   1.00
N367   N     0.06330   0.63969   0.83746   0.00000  Uiso   1.00
N368   N     0.79087   0.19129   0.90106   0.00000  Uiso   1.00
