data_job_05154
_audit_creation_date              2018-12-19
_audit_creation_method            'Materials Studio'
_symmetry_space_group_name_H-M    'P1'
_symmetry_Int_Tables_number       1
_symmetry_cell_setting            triclinic
loop_
_symmetry_equiv_pos_as_xyz
  x,y,z
_cell_length_a                    28.6830
_cell_length_b                    11.4611
_cell_length_c                    17.4334
_cell_angle_alpha                 90.0000
_cell_angle_beta                  147.9660
_cell_angle_gamma                 90.0000
loop_
_atom_site_label
_atom_site_type_symbol
_atom_site_fract_x
_atom_site_fract_y
_atom_site_fract_z
_atom_site_U_iso_or_equiv
_atom_site_adp_type
_atom_site_occupancy
C1     C     0.62518   0.22382   0.27837   0.00000  Uiso   1.00
C2     C     0.70097   0.28181   0.42678   0.00000  Uiso   1.00
C3     C     0.69579   0.33374   0.49132   0.00000  Uiso   1.00
C4     C     0.77251   0.38199   0.62754   0.00000  Uiso   1.00
C5     C     0.87817   0.47264   0.84744   0.00000  Uiso   1.00
C6     C     0.61900   0.28545   0.19242   0.00000  Uiso   1.00
C7     C     0.54489   0.34042   0.05992   0.00000  Uiso   1.00
C8     C     0.55261   0.39172   0.99885   0.00000  Uiso   1.00
C9     C     0.53099   0.48794   0.85486   0.00000  Uiso   1.00
C10    C     0.65524   0.09965   0.30303   0.00000  Uiso   1.00
C11    C     0.61161   0.99839   0.26350   0.00000  Uiso   1.00
C12    C     0.64983   0.89325   0.29553   0.00000  Uiso   1.00
C13    C     0.68449   0.70099   0.32328   0.00000  Uiso   1.00
C14    C     0.77064   0.21717   0.40551   0.00000  Uiso   1.00
C15    C     0.77998   0.27821   0.49583   0.00000  Uiso   1.00
C16    C     0.85673   0.32639   0.63199   0.00000  Uiso   1.00
C17    C     0.85166   0.37837   0.69673   0.00000  Uiso   1.00
C18    C     0.69801   0.28184   0.26147   0.00000  Uiso   1.00
C19    C     0.70583   0.33307   0.20058   0.00000  Uiso   1.00
C20    C     0.63177   0.38810   0.06803   0.00000  Uiso   1.00
C21    C     0.73426   0.09604   0.37209   0.00000  Uiso   1.00
C22    C     0.77255   0.99104   0.40418   0.00000  Uiso   1.00
C23    C     0.72898   0.88964   0.36471   0.00000  Uiso   1.00
H24    H     0.56366   0.22663   0.22460   0.00000  Uiso   1.00
H25    H     0.63463   0.33652   0.43784   0.00000  Uiso   1.00
H26    H     0.48376   0.34319   0.00650   0.00000  Uiso   1.00
H27    H     0.55047   0.00122   0.21006   0.00000  Uiso   1.00
H28    H     0.74815   0.45680   0.70469   0.00000  Uiso   1.00
H29    H     0.43002   0.47082   0.79515   0.00000  Uiso   1.00
H30    H     0.57068   0.74970   0.22440   0.00000  Uiso   1.00
H31    H     0.83215   0.21437   0.45927   0.00000  Uiso   1.00
H32    H     0.91786   0.32358   0.68540   0.00000  Uiso   1.00
H33    H     0.76699   0.33025   0.25405   0.00000  Uiso   1.00
H34    H     0.83369   0.98828   0.45762   0.00000  Uiso   1.00
H35    H     0.97803   0.44630   0.90561   0.00000  Uiso   1.00
H36    H     0.65990   0.46032   0.99607   0.00000  Uiso   1.00
H37    H     0.80056   0.73921   0.42533   0.00000  Uiso   1.00
O38    O     0.91462   0.52366   0.94965   0.00000  Uiso   1.00
O39    O     0.49724   0.54202   0.75636   0.00000  Uiso   1.00
O40    O     0.68178   0.59594   0.31954   0.00000  Uiso   1.00
N41    N     0.79049   0.43932   0.72096   0.00000  Uiso   1.00
N42    N     0.49306   0.45244   0.87060   0.00000  Uiso   1.00
N43    N     0.62456   0.77826   0.27188   0.00000  Uiso   1.00
N44    N     0.91419   0.43367   0.82907   0.00000  Uiso   1.00
N45    N     0.61676   0.44679   0.97872   0.00000  Uiso   1.00
N46    N     0.74825   0.77261   0.38000   0.00000  Uiso   1.00
C47    C     0.37482   0.72382   0.22163   0.00000  Uiso   1.00
C48    C     0.29903   0.78181   0.07322   0.00000  Uiso   1.00
C49    C     0.30421   0.83374   0.00868   0.00000  Uiso   1.00
C50    C     0.22749   0.88199   0.87246   0.00000  Uiso   1.00
C51    C     0.12183   0.97264   0.65256   0.00000  Uiso   1.00
C52    C     0.38100   0.78545   0.30758   0.00000  Uiso   1.00
C53    C     0.45511   0.84042   0.44008   0.00000  Uiso   1.00
C54    C     0.44739   0.89172   0.50115   0.00000  Uiso   1.00
C55    C     0.46901   0.98794   0.64514   0.00000  Uiso   1.00
C56    C     0.34476   0.59965   0.19697   0.00000  Uiso   1.00
C57    C     0.38839   0.49839   0.23650   0.00000  Uiso   1.00
C58    C     0.35017   0.39325   0.20447   0.00000  Uiso   1.00
C59    C     0.31551   0.20099   0.17672   0.00000  Uiso   1.00
C60    C     0.22936   0.71717   0.09449   0.00000  Uiso   1.00
C61    C     0.22002   0.77821   0.00417   0.00000  Uiso   1.00
C62    C     0.14327   0.82639   0.86801   0.00000  Uiso   1.00
C63    C     0.14834   0.87837   0.80327   0.00000  Uiso   1.00
C64    C     0.30199   0.78184   0.23853   0.00000  Uiso   1.00
C65    C     0.29417   0.83307   0.29942   0.00000  Uiso   1.00
C66    C     0.36823   0.88810   0.43197   0.00000  Uiso   1.00
C67    C     0.26574   0.59604   0.12791   0.00000  Uiso   1.00
C68    C     0.22745   0.49104   0.09582   0.00000  Uiso   1.00
C69    C     0.27102   0.38964   0.13529   0.00000  Uiso   1.00
H70    H     0.43634   0.72663   0.27540   0.00000  Uiso   1.00
H71    H     0.36537   0.83652   0.06216   0.00000  Uiso   1.00
H72    H     0.51624   0.84319   0.49350   0.00000  Uiso   1.00
H73    H     0.44953   0.50122   0.28994   0.00000  Uiso   1.00
H74    H     0.25185   0.95680   0.79531   0.00000  Uiso   1.00
H75    H     0.56998   0.97082   0.70485   0.00000  Uiso   1.00
H76    H     0.42932   0.24970   0.27560   0.00000  Uiso   1.00
H77    H     0.16785   0.71437   0.04073   0.00000  Uiso   1.00
H78    H     0.08214   0.82358   0.81460   0.00000  Uiso   1.00
H79    H     0.23301   0.83025   0.24595   0.00000  Uiso   1.00
H80    H     0.16631   0.48828   0.04238   0.00000  Uiso   1.00
H81    H     0.02197   0.94630   0.59439   0.00000  Uiso   1.00
H82    H     0.34010   0.96032   0.50393   0.00000  Uiso   1.00
H83    H     0.19944   0.23921   0.07467   0.00000  Uiso   1.00
O84    O     0.08538   0.02366   0.55035   0.00000  Uiso   1.00
O85    O     0.50276   0.04202   0.74364   0.00000  Uiso   1.00
O86    O     0.31822   0.09594   0.18046   0.00000  Uiso   1.00
N87    N     0.20951   0.93932   0.77904   0.00000  Uiso   1.00
N88    N     0.50694   0.95244   0.62940   0.00000  Uiso   1.00
N89    N     0.37544   0.27826   0.22812   0.00000  Uiso   1.00
N90    N     0.08581   0.93367   0.67093   0.00000  Uiso   1.00
N91    N     0.38324   0.94679   0.52128   0.00000  Uiso   1.00
N92    N     0.25175   0.27261   0.12000   0.00000  Uiso   1.00
C93    C     0.37482   0.77618   0.72163   0.00000  Uiso   1.00
C94    C     0.29903   0.71819   0.57322   0.00000  Uiso   1.00
C95    C     0.30421   0.66626   0.50868   0.00000  Uiso   1.00
C96    C     0.22749   0.61801   0.37246   0.00000  Uiso   1.00
C97    C     0.12183   0.52736   0.15256   0.00000  Uiso   1.00
C98    C     0.38100   0.71455   0.80758   0.00000  Uiso   1.00
C99    C     0.45511   0.65958   0.94008   0.00000  Uiso   1.00
C100   C     0.44739   0.60828   0.00115   0.00000  Uiso   1.00
C101   C     0.46901   0.51206   0.14514   0.00000  Uiso   1.00
C102   C     0.34476   0.90035   0.69697   0.00000  Uiso   1.00
C103   C     0.38839   0.00161   0.73650   0.00000  Uiso   1.00
C104   C     0.35017   0.10675   0.70447   0.00000  Uiso   1.00
C105   C     0.31551   0.29901   0.67672   0.00000  Uiso   1.00
C106   C     0.22936   0.78283   0.59449   0.00000  Uiso   1.00
C107   C     0.22002   0.72179   0.50417   0.00000  Uiso   1.00
C108   C     0.14327   0.67361   0.36801   0.00000  Uiso   1.00
C109   C     0.14834   0.62163   0.30327   0.00000  Uiso   1.00
C110   C     0.30199   0.71816   0.73853   0.00000  Uiso   1.00
C111   C     0.29417   0.66693   0.79942   0.00000  Uiso   1.00
C112   C     0.36823   0.61190   0.93197   0.00000  Uiso   1.00
C113   C     0.26574   0.90396   0.62791   0.00000  Uiso   1.00
C114   C     0.22745   0.00896   0.59582   0.00000  Uiso   1.00
C115   C     0.27102   0.11036   0.63529   0.00000  Uiso   1.00
H116   H     0.43634   0.77337   0.77540   0.00000  Uiso   1.00
H117   H     0.36537   0.66348   0.56216   0.00000  Uiso   1.00
H118   H     0.51624   0.65681   0.99350   0.00000  Uiso   1.00
H119   H     0.44953   0.99878   0.78994   0.00000  Uiso   1.00
H120   H     0.25185   0.54320   0.29531   0.00000  Uiso   1.00
H121   H     0.56998   0.52918   0.20485   0.00000  Uiso   1.00
H122   H     0.42932   0.25030   0.77560   0.00000  Uiso   1.00
H123   H     0.16785   0.78563   0.54073   0.00000  Uiso   1.00
H124   H     0.08214   0.67642   0.31460   0.00000  Uiso   1.00
H125   H     0.23301   0.66975   0.74595   0.00000  Uiso   1.00
H126   H     0.16631   0.01172   0.54238   0.00000  Uiso   1.00
H127   H     0.02197   0.55370   0.09439   0.00000  Uiso   1.00
H128   H     0.34010   0.53968   0.00393   0.00000  Uiso   1.00
H129   H     0.19944   0.26079   0.57467   0.00000  Uiso   1.00
O130   O     0.08538   0.47634   0.05035   0.00000  Uiso   1.00
O131   O     0.50276   0.45798   0.24364   0.00000  Uiso   1.00
O132   O     0.31822   0.40406   0.68046   0.00000  Uiso   1.00
N133   N     0.20951   0.56068   0.27904   0.00000  Uiso   1.00
N134   N     0.50694   0.54756   0.12940   0.00000  Uiso   1.00
N135   N     0.37544   0.22174   0.72812   0.00000  Uiso   1.00
N136   N     0.08581   0.56633   0.17093   0.00000  Uiso   1.00
N137   N     0.38324   0.55321   0.02128   0.00000  Uiso   1.00
N138   N     0.25175   0.22739   0.62000   0.00000  Uiso   1.00
C139   C     0.62518   0.27618   0.77837   0.00000  Uiso   1.00
C140   C     0.70097   0.21819   0.92678   0.00000  Uiso   1.00
C141   C     0.69579   0.16626   0.99132   0.00000  Uiso   1.00
C142   C     0.77251   0.11801   0.12754   0.00000  Uiso   1.00
C143   C     0.87817   0.02736   0.34744   0.00000  Uiso   1.00
C144   C     0.61900   0.21455   0.69242   0.00000  Uiso   1.00
C145   C     0.54489   0.15958   0.55992   0.00000  Uiso   1.00
C146   C     0.55261   0.10828   0.49885   0.00000  Uiso   1.00
C147   C     0.53099   0.01206   0.35486   0.00000  Uiso   1.00
C148   C     0.65524   0.40035   0.80303   0.00000  Uiso   1.00
C149   C     0.61161   0.50161   0.76350   0.00000  Uiso   1.00
C150   C     0.64983   0.60675   0.79553   0.00000  Uiso   1.00
C151   C     0.68449   0.79901   0.82328   0.00000  Uiso   1.00
C152   C     0.77064   0.28283   0.90551   0.00000  Uiso   1.00
C153   C     0.77998   0.22179   0.99583   0.00000  Uiso   1.00
C154   C     0.85673   0.17361   0.13199   0.00000  Uiso   1.00
C155   C     0.85166   0.12163   0.19673   0.00000  Uiso   1.00
C156   C     0.69801   0.21816   0.76147   0.00000  Uiso   1.00
C157   C     0.70583   0.16693   0.70058   0.00000  Uiso   1.00
C158   C     0.63177   0.11190   0.56803   0.00000  Uiso   1.00
C159   C     0.73426   0.40396   0.87209   0.00000  Uiso   1.00
C160   C     0.77255   0.50896   0.90418   0.00000  Uiso   1.00
C161   C     0.72898   0.61036   0.86471   0.00000  Uiso   1.00
H162   H     0.56366   0.27337   0.72460   0.00000  Uiso   1.00
H163   H     0.63463   0.16348   0.93784   0.00000  Uiso   1.00
H164   H     0.48376   0.15681   0.50650   0.00000  Uiso   1.00
H165   H     0.55047   0.49878   0.71006   0.00000  Uiso   1.00
H166   H     0.74815   0.04320   0.20469   0.00000  Uiso   1.00
H167   H     0.43002   0.02918   0.29515   0.00000  Uiso   1.00
H168   H     0.57068   0.75030   0.72440   0.00000  Uiso   1.00
H169   H     0.83215   0.28563   0.95927   0.00000  Uiso   1.00
H170   H     0.91786   0.17642   0.18540   0.00000  Uiso   1.00
H171   H     0.76699   0.16975   0.75405   0.00000  Uiso   1.00
H172   H     0.83369   0.51172   0.95762   0.00000  Uiso   1.00
H173   H     0.97803   0.05370   0.40561   0.00000  Uiso   1.00
H174   H     0.65990   0.03968   0.49607   0.00000  Uiso   1.00
H175   H     0.80056   0.76079   0.92533   0.00000  Uiso   1.00
O176   O     0.91462   0.97634   0.44965   0.00000  Uiso   1.00
O177   O     0.49724   0.95798   0.25636   0.00000  Uiso   1.00
O178   O     0.68178   0.90406   0.81954   0.00000  Uiso   1.00
N179   N     0.79049   0.06068   0.22096   0.00000  Uiso   1.00
N180   N     0.49306   0.04756   0.37060   0.00000  Uiso   1.00
N181   N     0.62456   0.72174   0.77188   0.00000  Uiso   1.00
N182   N     0.91419   0.06633   0.32907   0.00000  Uiso   1.00
N183   N     0.61676   0.05321   0.47872   0.00000  Uiso   1.00
N184   N     0.74825   0.72739   0.88000   0.00000  Uiso   1.00
