data_job_03615
_audit_creation_date              2018-12-19
_audit_creation_method            'Materials Studio'
_symmetry_space_group_name_H-M    'P1'
_symmetry_Int_Tables_number       1
_symmetry_cell_setting            triclinic
loop_
_symmetry_equiv_pos_as_xyz
  x,y,z
_cell_length_a                    8.9844
_cell_length_b                    12.1089
_cell_length_c                    17.2559
_cell_angle_alpha                 90.3583
_cell_angle_beta                  83.1662
_cell_angle_gamma                 93.5345
loop_
_atom_site_label
_atom_site_type_symbol
_atom_site_fract_x
_atom_site_fract_y
_atom_site_fract_z
_atom_site_U_iso_or_equiv
_atom_site_adp_type
_atom_site_occupancy
C1     C     0.99296   0.78073   0.23430   0.00000  Uiso   1.00
C2     C     0.04971   0.72335   0.15854   0.00000  Uiso   1.00
C3     C     0.18565   0.67419   0.14345   0.00000  Uiso   1.00
C4     C     0.21690   0.62607   0.07056   0.00000  Uiso   1.00
C5     C     0.32043   0.53685   0.96139   0.00000  Uiso   1.00
C6     C     0.96061   0.89756   0.21149   0.00000  Uiso   1.00
C7     C     0.02163   0.99487   0.24092   0.00000  Uiso   1.00
C8     C     0.97785   0.09339   0.21260   0.00000  Uiso   1.00
C9     C     0.94298   0.27463   0.18568   0.00000  Uiso   1.00
C10    C     0.84094   0.72265   0.26254   0.00000  Uiso   1.00
C11    C     0.80131   0.67291   0.33491   0.00000  Uiso   1.00
C12    C     0.65676   0.62419   0.34957   0.00000  Uiso   1.00
C13    C     0.43607   0.53386   0.40191   0.00000  Uiso   1.00
C14    C     0.80671   0.78268   0.13167   0.00000  Uiso   1.00
C15    C     0.94854   0.72441   0.10280   0.00000  Uiso   1.00
C16    C     0.97958   0.67635   0.02991   0.00000  Uiso   1.00
C17    C     0.11555   0.62712   0.01472   0.00000  Uiso   1.00
C18    C     0.85945   0.89862   0.15575   0.00000  Uiso   1.00
C19    C     0.81556   0.99702   0.12738   0.00000  Uiso   1.00
C20    C     0.87650   0.09446   0.15676   0.00000  Uiso   1.00
C21    C     0.73977   0.72370   0.20679   0.00000  Uiso   1.00
C22    C     0.59524   0.67506   0.22136   0.00000  Uiso   1.00
C23    C     0.55541   0.62526   0.29373   0.00000  Uiso   1.00
H24    H     0.07172   0.77992   0.27770   0.00000  Uiso   1.00
H25    H     0.26392   0.67340   0.18661   0.00000  Uiso   1.00
H26    H     0.09990   0.99402   0.28407   0.00000  Uiso   1.00
H27    H     0.87962   0.67211   0.37803   0.00000  Uiso   1.00
H28    H     0.43241   0.55580   0.06102   0.00000  Uiso   1.00
H29    H     0.08654   0.23185   0.26654   0.00000  Uiso   1.00
H30    H     0.62204   0.55304   0.46468   0.00000  Uiso   1.00
H31    H     0.72794   0.78351   0.08827   0.00000  Uiso   1.00
H32    H     0.90127   0.67718   0.98678   0.00000  Uiso   1.00
H33    H     0.73726   0.99781   0.08424   0.00000  Uiso   1.00
H34    H     0.51698   0.67590   0.17821   0.00000  Uiso   1.00
H35    H     0.13808   0.55888   0.89883   0.00000  Uiso   1.00
H36    H     0.79221   0.23493   0.10436   0.00000  Uiso   1.00
H37    H     0.32770   0.55612   0.30250   0.00000  Uiso   1.00
O38    O     0.40550   0.48736   0.91657   0.00000  Uiso   1.00
O39    O     0.95171   0.37431   0.18622   0.00000  Uiso   1.00
O40    O     0.34229   0.48373   0.44617   0.00000  Uiso   1.00
N41    N     0.33934   0.57110   0.03678   0.00000  Uiso   1.00
N42    N     0.01599   0.20317   0.22892   0.00000  Uiso   1.00
N43    N     0.58170   0.56856   0.41418   0.00000  Uiso   1.00
N44    N     0.18096   0.57275   0.94951   0.00000  Uiso   1.00
N45    N     0.85761   0.20482   0.14165   0.00000  Uiso   1.00
N46    N     0.42333   0.57022   0.32691   0.00000  Uiso   1.00
C47    C     0.00704   0.21927   0.76570   0.00000  Uiso   1.00
C48    C     0.95029   0.27665   0.84146   0.00000  Uiso   1.00
C49    C     0.81435   0.32581   0.85655   0.00000  Uiso   1.00
C50    C     0.78310   0.37393   0.92944   0.00000  Uiso   1.00
C51    C     0.67957   0.46315   0.03861   0.00000  Uiso   1.00
C52    C     0.03939   0.10244   0.78851   0.00000  Uiso   1.00
C53    C     0.97837   0.00513   0.75908   0.00000  Uiso   1.00
C54    C     0.02215   0.90661   0.78740   0.00000  Uiso   1.00
C55    C     0.05702   0.72537   0.81432   0.00000  Uiso   1.00
C56    C     0.15906   0.27735   0.73746   0.00000  Uiso   1.00
C57    C     0.19869   0.32709   0.66509   0.00000  Uiso   1.00
C58    C     0.34324   0.37581   0.65043   0.00000  Uiso   1.00
C59    C     0.56393   0.46614   0.59809   0.00000  Uiso   1.00
C60    C     0.19329   0.21732   0.86833   0.00000  Uiso   1.00
C61    C     0.05146   0.27559   0.89720   0.00000  Uiso   1.00
C62    C     0.02042   0.32365   0.97009   0.00000  Uiso   1.00
C63    C     0.88445   0.37288   0.98528   0.00000  Uiso   1.00
C64    C     0.14055   0.10138   0.84425   0.00000  Uiso   1.00
C65    C     0.18444   0.00298   0.87262   0.00000  Uiso   1.00
C66    C     0.12350   0.90554   0.84324   0.00000  Uiso   1.00
C67    C     0.26023   0.27630   0.79321   0.00000  Uiso   1.00
C68    C     0.40476   0.32494   0.77864   0.00000  Uiso   1.00
C69    C     0.44459   0.37474   0.70627   0.00000  Uiso   1.00
H70    H     0.92828   0.22008   0.72230   0.00000  Uiso   1.00
H71    H     0.73608   0.32660   0.81339   0.00000  Uiso   1.00
H72    H     0.90010   0.00598   0.71593   0.00000  Uiso   1.00
H73    H     0.12038   0.32789   0.62197   0.00000  Uiso   1.00
H74    H     0.56759   0.44420   0.93898   0.00000  Uiso   1.00
H75    H     0.91346   0.76815   0.73346   0.00000  Uiso   1.00
H76    H     0.37796   0.44696   0.53532   0.00000  Uiso   1.00
H77    H     0.27206   0.21649   0.91173   0.00000  Uiso   1.00
H78    H     0.09873   0.32282   0.01322   0.00000  Uiso   1.00
H79    H     0.26274   0.00219   0.91576   0.00000  Uiso   1.00
H80    H     0.48302   0.32410   0.82179   0.00000  Uiso   1.00
H81    H     0.86192   0.44112   0.10117   0.00000  Uiso   1.00
H82    H     0.20779   0.76507   0.89564   0.00000  Uiso   1.00
H83    H     0.67230   0.44388   0.69750   0.00000  Uiso   1.00
O84    O     0.59450   0.51264   0.08343   0.00000  Uiso   1.00
O85    O     0.04829   0.62569   0.81378   0.00000  Uiso   1.00
O86    O     0.65771   0.51627   0.55383   0.00000  Uiso   1.00
N87    N     0.66066   0.42890   0.96322   0.00000  Uiso   1.00
N88    N     0.98401   0.79683   0.77108   0.00000  Uiso   1.00
N89    N     0.41830   0.43144   0.58582   0.00000  Uiso   1.00
N90    N     0.81904   0.42725   0.05049   0.00000  Uiso   1.00
N91    N     0.14239   0.79518   0.85835   0.00000  Uiso   1.00
N92    N     0.57667   0.42978   0.67309   0.00000  Uiso   1.00
