data_job_05454
_audit_creation_date              2018-12-19
_audit_creation_method            'Materials Studio'
_symmetry_space_group_name_H-M    'P1'
_symmetry_Int_Tables_number       1
_symmetry_cell_setting            triclinic
loop_
_symmetry_equiv_pos_as_xyz
  x,y,z
_cell_length_a                    15.0435
_cell_length_b                    8.2632
_cell_length_c                    24.5733
_cell_angle_alpha                 90.0000
_cell_angle_beta                  120.8464
_cell_angle_gamma                 90.0000
loop_
_atom_site_label
_atom_site_type_symbol
_atom_site_fract_x
_atom_site_fract_y
_atom_site_fract_z
_atom_site_U_iso_or_equiv
_atom_site_adp_type
_atom_site_occupancy
C1     C     0.61394   0.65563   0.68895   0.00000  Uiso   1.00
C2     C     0.54561   0.80272   0.67822   0.00000  Uiso   1.00
C3     C     0.44844   0.80000   0.67181   0.00000  Uiso   1.00
C4     C     0.39835   0.94752   0.66227   0.00000  Uiso   1.00
C5     C     0.28531   0.15386   0.64603   0.00000  Uiso   1.00
C6     C     0.63698   0.65704   0.63533   0.00000  Uiso   1.00
C7     C     0.61665   0.53180   0.59286   0.00000  Uiso   1.00
C8     C     0.64350   0.55668   0.54722   0.00000  Uiso   1.00
C9     C     0.67238   0.53679   0.46441   0.00000  Uiso   1.00
C10    C     0.71667   0.69001   0.74951   0.00000  Uiso   1.00
C11    C     0.76336   0.59247   0.80305   0.00000  Uiso   1.00
C12    C     0.85732   0.64510   0.85354   0.00000  Uiso   1.00
C13    C     0.00993   0.67640   0.94803   0.00000  Uiso   1.00
C14    C     0.69778   0.92249   0.68341   0.00000  Uiso   1.00
C15    C     0.59115   0.94767   0.67521   0.00000  Uiso   1.00
C16    C     0.54120   0.09524   0.66568   0.00000  Uiso   1.00
C17    C     0.44397   0.09273   0.65926   0.00000  Uiso   1.00
C18    C     0.68252   0.80197   0.63232   0.00000  Uiso   1.00
C19    C     0.70941   0.82704   0.58673   0.00000  Uiso   1.00
C20    C     0.68912   0.70189   0.54420   0.00000  Uiso   1.00
C21    C     0.76221   0.83495   0.74651   0.00000  Uiso   1.00
C22    C     0.85612   0.88773   0.79692   0.00000  Uiso   1.00
C23    C     0.90294   0.79030   0.85053   0.00000  Uiso   1.00
H24    H     0.57849   0.54278   0.69129   0.00000  Uiso   1.00
H25    H     0.41322   0.68780   0.67413   0.00000  Uiso   1.00
H26    H     0.58142   0.41964   0.59520   0.00000  Uiso   1.00
H27    H     0.72810   0.48032   0.80536   0.00000  Uiso   1.00
H28    H     0.25006   0.91248   0.65376   0.00000  Uiso   1.00
H29    H     0.60475   0.34705   0.48734   0.00000  Uiso   1.00
H30    H     0.91406   0.47498   0.93050   0.00000  Uiso   1.00
H31    H     0.73323   0.03534   0.68107   0.00000  Uiso   1.00
H32    H     0.57646   0.20739   0.66335   0.00000  Uiso   1.00
H33    H     0.74466   0.93922   0.58442   0.00000  Uiso   1.00
H34    H     0.89134   0.99990   0.79458   0.00000  Uiso   1.00
H35    H     0.38255   0.33420   0.64501   0.00000  Uiso   1.00
H36    H     0.73724   0.76875   0.47859   0.00000  Uiso   1.00
H37    H     0.04654   0.89670   0.92175   0.00000  Uiso   1.00
O38    O     0.21037   0.22763   0.63789   0.00000  Uiso   1.00
O39    O     0.67572   0.48578   0.41957   0.00000  Uiso   1.00
O40    O     0.08152   0.65364   0.00098   0.00000  Uiso   1.00
N41    N     0.30277   0.98813   0.65414   0.00000  Uiso   1.00
N42    N     0.63436   0.45948   0.49855   0.00000  Uiso   1.00
N43    N     0.92355   0.57907   0.91286   0.00000  Uiso   1.00
N44    N     0.37406   0.21505   0.64943   0.00000  Uiso   1.00
N45    N     0.70565   0.68641   0.49384   0.00000  Uiso   1.00
N46    N     0.99484   0.80600   0.90815   0.00000  Uiso   1.00
C47    C     0.38606   0.65563   0.81105   0.00000  Uiso   1.00
C48    C     0.45439   0.80272   0.82178   0.00000  Uiso   1.00
C49    C     0.55156   0.80000   0.82819   0.00000  Uiso   1.00
C50    C     0.60165   0.94752   0.83773   0.00000  Uiso   1.00
C51    C     0.71469   0.15386   0.85397   0.00000  Uiso   1.00
C52    C     0.36302   0.65704   0.86467   0.00000  Uiso   1.00
C53    C     0.38335   0.53180   0.90714   0.00000  Uiso   1.00
C54    C     0.35650   0.55668   0.95278   0.00000  Uiso   1.00
C55    C     0.32762   0.53679   0.03559   0.00000  Uiso   1.00
C56    C     0.28333   0.69001   0.75049   0.00000  Uiso   1.00
C57    C     0.23664   0.59247   0.69695   0.00000  Uiso   1.00
C58    C     0.14268   0.64510   0.64646   0.00000  Uiso   1.00
C59    C     0.99007   0.67640   0.55197   0.00000  Uiso   1.00
C60    C     0.30222   0.92249   0.81659   0.00000  Uiso   1.00
C61    C     0.40885   0.94767   0.82479   0.00000  Uiso   1.00
C62    C     0.45880   0.09524   0.83432   0.00000  Uiso   1.00
C63    C     0.55603   0.09273   0.84074   0.00000  Uiso   1.00
C64    C     0.31748   0.80197   0.86768   0.00000  Uiso   1.00
C65    C     0.29059   0.82704   0.91327   0.00000  Uiso   1.00
C66    C     0.31088   0.70189   0.95580   0.00000  Uiso   1.00
C67    C     0.23779   0.83495   0.75349   0.00000  Uiso   1.00
C68    C     0.14388   0.88773   0.70308   0.00000  Uiso   1.00
C69    C     0.09706   0.79030   0.64947   0.00000  Uiso   1.00
H70    H     0.42151   0.54278   0.80871   0.00000  Uiso   1.00
H71    H     0.58678   0.68780   0.82587   0.00000  Uiso   1.00
H72    H     0.41858   0.41964   0.90480   0.00000  Uiso   1.00
H73    H     0.27190   0.48032   0.69464   0.00000  Uiso   1.00
H74    H     0.74994   0.91248   0.84624   0.00000  Uiso   1.00
H75    H     0.39525   0.34705   0.01266   0.00000  Uiso   1.00
H76    H     0.08594   0.47498   0.56950   0.00000  Uiso   1.00
H77    H     0.26677   0.03534   0.81893   0.00000  Uiso   1.00
H78    H     0.42354   0.20739   0.83665   0.00000  Uiso   1.00
H79    H     0.25534   0.93922   0.91558   0.00000  Uiso   1.00
H80    H     0.10866   0.99990   0.70542   0.00000  Uiso   1.00
H81    H     0.61745   0.33420   0.85499   0.00000  Uiso   1.00
H82    H     0.26276   0.76875   0.02141   0.00000  Uiso   1.00
H83    H     0.95346   0.89670   0.57825   0.00000  Uiso   1.00
O84    O     0.78963   0.22763   0.86211   0.00000  Uiso   1.00
O85    O     0.32428   0.48578   0.08043   0.00000  Uiso   1.00
O86    O     0.91848   0.65364   0.49902   0.00000  Uiso   1.00
N87    N     0.69723   0.98813   0.84586   0.00000  Uiso   1.00
N88    N     0.36564   0.45948   0.00145   0.00000  Uiso   1.00
N89    N     0.07645   0.57907   0.58714   0.00000  Uiso   1.00
N90    N     0.62594   0.21505   0.85057   0.00000  Uiso   1.00
N91    N     0.29435   0.68641   0.00616   0.00000  Uiso   1.00
N92    N     0.00516   0.80600   0.59185   0.00000  Uiso   1.00
C93    C     0.38606   0.34437   0.31105   0.00000  Uiso   1.00
C94    C     0.45439   0.19728   0.32178   0.00000  Uiso   1.00
C95    C     0.55156   0.20000   0.32819   0.00000  Uiso   1.00
C96    C     0.60165   0.05248   0.33773   0.00000  Uiso   1.00
C97    C     0.71469   0.84614   0.35397   0.00000  Uiso   1.00
C98    C     0.36302   0.34296   0.36467   0.00000  Uiso   1.00
C99    C     0.38335   0.46820   0.40714   0.00000  Uiso   1.00
C100   C     0.35650   0.44332   0.45278   0.00000  Uiso   1.00
C101   C     0.32762   0.46321   0.53559   0.00000  Uiso   1.00
C102   C     0.28333   0.30999   0.25049   0.00000  Uiso   1.00
C103   C     0.23664   0.40753   0.19695   0.00000  Uiso   1.00
C104   C     0.14268   0.35490   0.14646   0.00000  Uiso   1.00
C105   C     0.99007   0.32360   0.05197   0.00000  Uiso   1.00
C106   C     0.30222   0.07751   0.31659   0.00000  Uiso   1.00
C107   C     0.40885   0.05233   0.32479   0.00000  Uiso   1.00
C108   C     0.45880   0.90476   0.33432   0.00000  Uiso   1.00
C109   C     0.55603   0.90727   0.34074   0.00000  Uiso   1.00
C110   C     0.31748   0.19803   0.36768   0.00000  Uiso   1.00
C111   C     0.29059   0.17296   0.41327   0.00000  Uiso   1.00
C112   C     0.31088   0.29811   0.45580   0.00000  Uiso   1.00
C113   C     0.23779   0.16505   0.25349   0.00000  Uiso   1.00
C114   C     0.14388   0.11227   0.20308   0.00000  Uiso   1.00
C115   C     0.09706   0.20970   0.14947   0.00000  Uiso   1.00
H116   H     0.42151   0.45722   0.30871   0.00000  Uiso   1.00
H117   H     0.58678   0.31220   0.32587   0.00000  Uiso   1.00
H118   H     0.41858   0.58036   0.40480   0.00000  Uiso   1.00
H119   H     0.27190   0.51968   0.19464   0.00000  Uiso   1.00
H120   H     0.74994   0.08752   0.34624   0.00000  Uiso   1.00
H121   H     0.39525   0.65295   0.51266   0.00000  Uiso   1.00
H122   H     0.08594   0.52502   0.06950   0.00000  Uiso   1.00
H123   H     0.26677   0.96466   0.31893   0.00000  Uiso   1.00
H124   H     0.42354   0.79261   0.33665   0.00000  Uiso   1.00
H125   H     0.25534   0.06078   0.41558   0.00000  Uiso   1.00
H126   H     0.10866   0.00010   0.20542   0.00000  Uiso   1.00
H127   H     0.61745   0.66580   0.35499   0.00000  Uiso   1.00
H128   H     0.26276   0.23125   0.52141   0.00000  Uiso   1.00
H129   H     0.95346   0.10330   0.07825   0.00000  Uiso   1.00
O130   O     0.78963   0.77237   0.36211   0.00000  Uiso   1.00
O131   O     0.32428   0.51422   0.58043   0.00000  Uiso   1.00
O132   O     0.91848   0.34636   0.99902   0.00000  Uiso   1.00
N133   N     0.69723   0.01187   0.34586   0.00000  Uiso   1.00
N134   N     0.36564   0.54052   0.50145   0.00000  Uiso   1.00
N135   N     0.07645   0.42093   0.08714   0.00000  Uiso   1.00
N136   N     0.62594   0.78495   0.35057   0.00000  Uiso   1.00
N137   N     0.29435   0.31359   0.50616   0.00000  Uiso   1.00
N138   N     0.00516   0.19400   0.09185   0.00000  Uiso   1.00
C139   C     0.61394   0.34437   0.18895   0.00000  Uiso   1.00
C140   C     0.54561   0.19728   0.17822   0.00000  Uiso   1.00
C141   C     0.44844   0.20000   0.17181   0.00000  Uiso   1.00
C142   C     0.39835   0.05248   0.16227   0.00000  Uiso   1.00
C143   C     0.28531   0.84614   0.14603   0.00000  Uiso   1.00
C144   C     0.63698   0.34296   0.13533   0.00000  Uiso   1.00
C145   C     0.61665   0.46820   0.09286   0.00000  Uiso   1.00
C146   C     0.64350   0.44332   0.04722   0.00000  Uiso   1.00
C147   C     0.67238   0.46321   0.96441   0.00000  Uiso   1.00
C148   C     0.71667   0.30999   0.24951   0.00000  Uiso   1.00
C149   C     0.76336   0.40753   0.30305   0.00000  Uiso   1.00
C150   C     0.85732   0.35490   0.35354   0.00000  Uiso   1.00
C151   C     0.00993   0.32360   0.44803   0.00000  Uiso   1.00
C152   C     0.69778   0.07751   0.18341   0.00000  Uiso   1.00
C153   C     0.59115   0.05233   0.17521   0.00000  Uiso   1.00
C154   C     0.54120   0.90476   0.16568   0.00000  Uiso   1.00
C155   C     0.44397   0.90727   0.15926   0.00000  Uiso   1.00
C156   C     0.68252   0.19803   0.13232   0.00000  Uiso   1.00
C157   C     0.70941   0.17296   0.08673   0.00000  Uiso   1.00
C158   C     0.68912   0.29811   0.04420   0.00000  Uiso   1.00
C159   C     0.76221   0.16505   0.24651   0.00000  Uiso   1.00
C160   C     0.85612   0.11227   0.29692   0.00000  Uiso   1.00
C161   C     0.90294   0.20970   0.35053   0.00000  Uiso   1.00
H162   H     0.57849   0.45722   0.19129   0.00000  Uiso   1.00
H163   H     0.41322   0.31220   0.17413   0.00000  Uiso   1.00
H164   H     0.58142   0.58036   0.09520   0.00000  Uiso   1.00
H165   H     0.72810   0.51968   0.30536   0.00000  Uiso   1.00
H166   H     0.25006   0.08752   0.15376   0.00000  Uiso   1.00
H167   H     0.60475   0.65295   0.98734   0.00000  Uiso   1.00
H168   H     0.91406   0.52502   0.43050   0.00000  Uiso   1.00
H169   H     0.73323   0.96466   0.18107   0.00000  Uiso   1.00
H170   H     0.57646   0.79261   0.16335   0.00000  Uiso   1.00
H171   H     0.74466   0.06078   0.08442   0.00000  Uiso   1.00
H172   H     0.89134   0.00010   0.29458   0.00000  Uiso   1.00
H173   H     0.38255   0.66580   0.14501   0.00000  Uiso   1.00
H174   H     0.73724   0.23125   0.97859   0.00000  Uiso   1.00
H175   H     0.04654   0.10330   0.42175   0.00000  Uiso   1.00
O176   O     0.21037   0.77237   0.13789   0.00000  Uiso   1.00
O177   O     0.67572   0.51422   0.91957   0.00000  Uiso   1.00
O178   O     0.08152   0.34636   0.50098   0.00000  Uiso   1.00
N179   N     0.30277   0.01187   0.15414   0.00000  Uiso   1.00
N180   N     0.63436   0.54052   0.99855   0.00000  Uiso   1.00
N181   N     0.92355   0.42093   0.41286   0.00000  Uiso   1.00
N182   N     0.37406   0.78495   0.14943   0.00000  Uiso   1.00
N183   N     0.70565   0.31359   0.99384   0.00000  Uiso   1.00
N184   N     0.99484   0.19400   0.40815   0.00000  Uiso   1.00
