data_job_01627
_audit_creation_date              2018-12-19
_audit_creation_method            'Materials Studio'
_symmetry_space_group_name_H-M    'P1'
_symmetry_Int_Tables_number       1
_symmetry_cell_setting            triclinic
loop_
_symmetry_equiv_pos_as_xyz
  x,y,z
_cell_length_a                    15.9240
_cell_length_b                    27.8519
_cell_length_c                    10.2639
_cell_angle_alpha                 90.0000
_cell_angle_beta                  142.8400
_cell_angle_gamma                 90.0000
loop_
_atom_site_label
_atom_site_type_symbol
_atom_site_fract_x
_atom_site_fract_y
_atom_site_fract_z
_atom_site_U_iso_or_equiv
_atom_site_adp_type
_atom_site_occupancy
C1     C     0.66166   0.89021   0.06702   0.00000  Uiso   1.00
C2     C     0.56079   0.86621   0.03663   0.00000  Uiso   1.00
C3     C     0.57711   0.86322   0.19090   0.00000  Uiso   1.00
C4     C     0.47325   0.83979   0.13162   0.00000  Uiso   1.00
C5     C     0.33430   0.80550   0.11584   0.00000  Uiso   1.00
C6     C     0.70082   0.85190   0.01582   0.00000  Uiso   1.00
C7     C     0.83488   0.83688   0.15259   0.00000  Uiso   1.00
C8     C     0.84888   0.80141   0.07577   0.00000  Uiso   1.00
C9     C     0.92733   0.74494   0.02762   0.00000  Uiso   1.00
C10    C     0.57708   0.92763   0.88846   0.00000  Uiso   1.00
C11    C     0.60712   0.97629   0.91813   0.00000  Uiso   1.00
C12    C     0.51696   0.00458   0.73407   0.00000  Uiso   1.00
C13    C     0.40329   0.06570   0.48818   0.00000  Uiso   1.00
C14    C     0.44818   0.85392   0.68739   0.00000  Uiso   1.00
C15    C     0.44484   0.84650   0.83043   0.00000  Uiso   1.00
C16    C     0.34091   0.82307   0.77089   0.00000  Uiso   1.00
C17    C     0.35708   0.82004   0.92505   0.00000  Uiso   1.00
C18    C     0.58487   0.83219   0.80963   0.00000  Uiso   1.00
C19    C     0.59868   0.79673   0.73258   0.00000  Uiso   1.00
C20    C     0.73272   0.78166   0.86920   0.00000  Uiso   1.00
C21    C     0.46112   0.90793   0.68225   0.00000  Uiso   1.00
C22    C     0.37091   0.93615   0.49812   0.00000  Uiso   1.00
C23    C     0.40080   0.98484   0.52750   0.00000  Uiso   1.00
H24    H     0.75195   0.90555   0.22755   0.00000  Uiso   1.00
H25    H     0.66688   0.87847   0.35047   0.00000  Uiso   1.00
H26    H     0.92459   0.85214   0.31214   0.00000  Uiso   1.00
H27    H     0.69686   0.99153   0.07772   0.00000  Uiso   1.00
H28    H     0.52145   0.83974   0.39583   0.00000  Uiso   1.00
H29    H     0.06486   0.78424   0.31500   0.00000  Uiso   1.00
H30    H     0.58465   0.07817   0.82068   0.00000  Uiso   1.00
H31    H     0.35790   0.83857   0.52684   0.00000  Uiso   1.00
H32    H     0.25119   0.80782   0.61131   0.00000  Uiso   1.00
H33    H     0.50892   0.78149   0.57299   0.00000  Uiso   1.00
H34    H     0.28119   0.92088   0.33857   0.00000  Uiso   1.00
H35    H     0.18407   0.78240   0.79591   0.00000  Uiso   1.00
H36    H     0.72749   0.72690   0.71508   0.00000  Uiso   1.00
H37    H     0.24727   0.02083   0.22076   0.00000  Uiso   1.00
O38    O     0.28970   0.79203   0.16410   0.00000  Uiso   1.00
O39    O     0.00264   0.71923   0.05804   0.00000  Uiso   1.00
O40    O     0.37262   0.10486   0.40951   0.00000  Uiso   1.00
N41    N     0.45667   0.83047   0.24304   0.00000  Uiso   1.00
N42    N     0.96473   0.77858   0.16748   0.00000  Uiso   1.00
N43    N     0.51580   0.05338   0.70532   0.00000  Uiso   1.00
N44    N     0.27513   0.79962   0.92022   0.00000  Uiso   1.00
N45    N     0.78319   0.74772   0.84466   0.00000  Uiso   1.00
N46    N     0.33426   0.02252   0.38251   0.00000  Uiso   1.00
C47    C     0.33834   0.39021   0.43298   0.00000  Uiso   1.00
C48    C     0.43921   0.36621   0.46337   0.00000  Uiso   1.00
C49    C     0.42289   0.36322   0.30910   0.00000  Uiso   1.00
C50    C     0.52675   0.33979   0.36838   0.00000  Uiso   1.00
C51    C     0.66570   0.30550   0.38416   0.00000  Uiso   1.00
C52    C     0.29918   0.35190   0.48418   0.00000  Uiso   1.00
C53    C     0.16512   0.33688   0.34741   0.00000  Uiso   1.00
C54    C     0.15112   0.30141   0.42423   0.00000  Uiso   1.00
C55    C     0.07267   0.24494   0.47238   0.00000  Uiso   1.00
C56    C     0.42292   0.42763   0.61154   0.00000  Uiso   1.00
C57    C     0.39288   0.47629   0.58187   0.00000  Uiso   1.00
C58    C     0.48304   0.50458   0.76593   0.00000  Uiso   1.00
C59    C     0.59671   0.56570   0.01182   0.00000  Uiso   1.00
C60    C     0.55182   0.35392   0.81261   0.00000  Uiso   1.00
C61    C     0.55516   0.34650   0.66957   0.00000  Uiso   1.00
C62    C     0.65909   0.32307   0.72911   0.00000  Uiso   1.00
C63    C     0.64292   0.32004   0.57495   0.00000  Uiso   1.00
C64    C     0.41513   0.33219   0.69037   0.00000  Uiso   1.00
C65    C     0.40132   0.29673   0.76742   0.00000  Uiso   1.00
C66    C     0.26728   0.28166   0.63080   0.00000  Uiso   1.00
C67    C     0.53888   0.40793   0.81775   0.00000  Uiso   1.00
C68    C     0.62909   0.43615   0.00188   0.00000  Uiso   1.00
C69    C     0.59920   0.48484   0.97250   0.00000  Uiso   1.00
H70    H     0.24805   0.40555   0.27245   0.00000  Uiso   1.00
H71    H     0.33312   0.37847   0.14953   0.00000  Uiso   1.00
H72    H     0.07541   0.35214   0.18786   0.00000  Uiso   1.00
H73    H     0.30314   0.49153   0.42228   0.00000  Uiso   1.00
H74    H     0.47855   0.33974   0.10417   0.00000  Uiso   1.00
H75    H     0.93514   0.28424   0.18500   0.00000  Uiso   1.00
H76    H     0.41535   0.57817   0.67932   0.00000  Uiso   1.00
H77    H     0.64210   0.33857   0.97316   0.00000  Uiso   1.00
H78    H     0.74881   0.30782   0.88869   0.00000  Uiso   1.00
H79    H     0.49108   0.28149   0.92701   0.00000  Uiso   1.00
H80    H     0.71881   0.42088   0.16143   0.00000  Uiso   1.00
H81    H     0.81593   0.28240   0.70409   0.00000  Uiso   1.00
H82    H     0.27251   0.22690   0.78492   0.00000  Uiso   1.00
H83    H     0.75273   0.52083   0.27924   0.00000  Uiso   1.00
O84    O     0.71030   0.29203   0.33590   0.00000  Uiso   1.00
O85    O     0.99736   0.21923   0.44196   0.00000  Uiso   1.00
O86    O     0.62738   0.60486   0.09049   0.00000  Uiso   1.00
N87    N     0.54333   0.33047   0.25696   0.00000  Uiso   1.00
N88    N     0.03527   0.27858   0.33252   0.00000  Uiso   1.00
N89    N     0.48420   0.55338   0.79468   0.00000  Uiso   1.00
N90    N     0.72487   0.29962   0.57978   0.00000  Uiso   1.00
N91    N     0.21681   0.24772   0.65534   0.00000  Uiso   1.00
N92    N     0.66574   0.52252   0.11749   0.00000  Uiso   1.00
C93    C     0.33834   0.10979   0.93298   0.00000  Uiso   1.00
C94    C     0.43921   0.13379   0.96337   0.00000  Uiso   1.00
C95    C     0.42289   0.13678   0.80910   0.00000  Uiso   1.00
C96    C     0.52675   0.16021   0.86838   0.00000  Uiso   1.00
C97    C     0.66570   0.19450   0.88416   0.00000  Uiso   1.00
C98    C     0.29918   0.14810   0.98418   0.00000  Uiso   1.00
C99    C     0.16512   0.16312   0.84741   0.00000  Uiso   1.00
C100   C     0.15112   0.19859   0.92423   0.00000  Uiso   1.00
C101   C     0.07267   0.25506   0.97238   0.00000  Uiso   1.00
C102   C     0.42292   0.07237   0.11154   0.00000  Uiso   1.00
C103   C     0.39288   0.02371   0.08187   0.00000  Uiso   1.00
C104   C     0.48304   0.99542   0.26593   0.00000  Uiso   1.00
C105   C     0.59671   0.93430   0.51182   0.00000  Uiso   1.00
C106   C     0.55182   0.14608   0.31261   0.00000  Uiso   1.00
C107   C     0.55516   0.15350   0.16957   0.00000  Uiso   1.00
C108   C     0.65909   0.17693   0.22911   0.00000  Uiso   1.00
C109   C     0.64292   0.17996   0.07495   0.00000  Uiso   1.00
C110   C     0.41513   0.16781   0.19037   0.00000  Uiso   1.00
C111   C     0.40132   0.20327   0.26742   0.00000  Uiso   1.00
C112   C     0.26728   0.21834   0.13080   0.00000  Uiso   1.00
C113   C     0.53888   0.09207   0.31775   0.00000  Uiso   1.00
C114   C     0.62909   0.06385   0.50188   0.00000  Uiso   1.00
C115   C     0.59920   0.01516   0.47250   0.00000  Uiso   1.00
H116   H     0.24805   0.09445   0.77245   0.00000  Uiso   1.00
H117   H     0.33312   0.12153   0.64953   0.00000  Uiso   1.00
H118   H     0.07541   0.14786   0.68786   0.00000  Uiso   1.00
H119   H     0.30314   0.00847   0.92228   0.00000  Uiso   1.00
H120   H     0.47855   0.16026   0.60417   0.00000  Uiso   1.00
H121   H     0.93514   0.21576   0.68500   0.00000  Uiso   1.00
H122   H     0.41535   0.92183   0.17932   0.00000  Uiso   1.00
H123   H     0.64210   0.16143   0.47316   0.00000  Uiso   1.00
H124   H     0.74881   0.19218   0.38869   0.00000  Uiso   1.00
H125   H     0.49108   0.21851   0.42701   0.00000  Uiso   1.00
H126   H     0.71881   0.07912   0.66143   0.00000  Uiso   1.00
H127   H     0.81593   0.21760   0.20409   0.00000  Uiso   1.00
H128   H     0.27251   0.27310   0.28492   0.00000  Uiso   1.00
H129   H     0.75273   0.97917   0.77924   0.00000  Uiso   1.00
O130   O     0.71030   0.20797   0.83590   0.00000  Uiso   1.00
O131   O     0.99736   0.28077   0.94196   0.00000  Uiso   1.00
O132   O     0.62738   0.89514   0.59049   0.00000  Uiso   1.00
N133   N     0.54333   0.16953   0.75696   0.00000  Uiso   1.00
N134   N     0.03527   0.22142   0.83252   0.00000  Uiso   1.00
N135   N     0.48420   0.94662   0.29468   0.00000  Uiso   1.00
N136   N     0.72487   0.20038   0.07978   0.00000  Uiso   1.00
N137   N     0.21681   0.25228   0.15534   0.00000  Uiso   1.00
N138   N     0.66574   0.97748   0.61749   0.00000  Uiso   1.00
C139   C     0.66166   0.60979   0.56702   0.00000  Uiso   1.00
C140   C     0.56079   0.63379   0.53663   0.00000  Uiso   1.00
C141   C     0.57711   0.63678   0.69090   0.00000  Uiso   1.00
C142   C     0.47325   0.66021   0.63162   0.00000  Uiso   1.00
C143   C     0.33430   0.69450   0.61584   0.00000  Uiso   1.00
C144   C     0.70082   0.64810   0.51582   0.00000  Uiso   1.00
C145   C     0.83488   0.66312   0.65259   0.00000  Uiso   1.00
C146   C     0.84888   0.69859   0.57577   0.00000  Uiso   1.00
C147   C     0.92733   0.75506   0.52762   0.00000  Uiso   1.00
C148   C     0.57708   0.57237   0.38846   0.00000  Uiso   1.00
C149   C     0.60712   0.52371   0.41813   0.00000  Uiso   1.00
C150   C     0.51696   0.49542   0.23407   0.00000  Uiso   1.00
C151   C     0.40329   0.43430   0.98818   0.00000  Uiso   1.00
C152   C     0.44818   0.64608   0.18739   0.00000  Uiso   1.00
C153   C     0.44484   0.65350   0.33043   0.00000  Uiso   1.00
C154   C     0.34091   0.67693   0.27089   0.00000  Uiso   1.00
C155   C     0.35708   0.67996   0.42505   0.00000  Uiso   1.00
C156   C     0.58487   0.66781   0.30963   0.00000  Uiso   1.00
C157   C     0.59868   0.70327   0.23258   0.00000  Uiso   1.00
C158   C     0.73272   0.71834   0.36920   0.00000  Uiso   1.00
C159   C     0.46112   0.59207   0.18225   0.00000  Uiso   1.00
C160   C     0.37091   0.56385   0.99812   0.00000  Uiso   1.00
C161   C     0.40080   0.51516   0.02750   0.00000  Uiso   1.00
H162   H     0.75195   0.59445   0.72755   0.00000  Uiso   1.00
H163   H     0.66688   0.62153   0.85047   0.00000  Uiso   1.00
H164   H     0.92459   0.64786   0.81214   0.00000  Uiso   1.00
H165   H     0.69686   0.50847   0.57772   0.00000  Uiso   1.00
H166   H     0.52145   0.66026   0.89583   0.00000  Uiso   1.00
H167   H     0.06486   0.71576   0.81500   0.00000  Uiso   1.00
H168   H     0.58465   0.42183   0.32068   0.00000  Uiso   1.00
H169   H     0.35790   0.66143   0.02684   0.00000  Uiso   1.00
H170   H     0.25119   0.69218   0.11131   0.00000  Uiso   1.00
H171   H     0.50892   0.71851   0.07299   0.00000  Uiso   1.00
H172   H     0.28119   0.57912   0.83857   0.00000  Uiso   1.00
H173   H     0.18407   0.71760   0.29591   0.00000  Uiso   1.00
H174   H     0.72749   0.77310   0.21508   0.00000  Uiso   1.00
H175   H     0.24727   0.47917   0.72076   0.00000  Uiso   1.00
O176   O     0.28970   0.70797   0.66410   0.00000  Uiso   1.00
O177   O     0.00264   0.78077   0.55804   0.00000  Uiso   1.00
O178   O     0.37262   0.39514   0.90951   0.00000  Uiso   1.00
N179   N     0.45667   0.66953   0.74304   0.00000  Uiso   1.00
N180   N     0.96473   0.72142   0.66748   0.00000  Uiso   1.00
N181   N     0.51580   0.44662   0.20532   0.00000  Uiso   1.00
N182   N     0.27513   0.70038   0.42022   0.00000  Uiso   1.00
N183   N     0.78319   0.75228   0.34466   0.00000  Uiso   1.00
N184   N     0.33426   0.47748   0.88251   0.00000  Uiso   1.00
