data_job_02143
_audit_creation_date              2018-12-19
_audit_creation_method            'Materials Studio'
_symmetry_space_group_name_H-M    'P1'
_symmetry_Int_Tables_number       1
_symmetry_cell_setting            triclinic
loop_
_symmetry_equiv_pos_as_xyz
  x,y,z
_cell_length_a                    19.7670
_cell_length_b                    7.6028
_cell_length_c                    23.1095
_cell_angle_alpha                 90.0000
_cell_angle_beta                  80.8565
_cell_angle_gamma                 90.0000
loop_
_atom_site_label
_atom_site_type_symbol
_atom_site_fract_x
_atom_site_fract_y
_atom_site_fract_z
_atom_site_U_iso_or_equiv
_atom_site_adp_type
_atom_site_occupancy
C1     C     0.67162   0.23874   0.57782   0.00000  Uiso   1.00
C2     C     0.74890   0.21627   0.57369   0.00000  Uiso   1.00
C3     C     0.79831   0.33349   0.54753   0.00000  Uiso   1.00
C4     C     0.86629   0.28905   0.54829   0.00000  Uiso   1.00
C5     C     0.98357   0.27787   0.53789   0.00000  Uiso   1.00
C6     C     0.64622   0.07508   0.54972   0.00000  Uiso   1.00
C7     C     0.60930   0.07360   0.50342   0.00000  Uiso   1.00
C8     C     0.59084   0.91029   0.48401   0.00000  Uiso   1.00
C9     C     0.54867   0.67992   0.43643   0.00000  Uiso   1.00
C10    C     0.64225   0.22792   0.64286   0.00000  Uiso   1.00
C11    C     0.60197   0.35491   0.67486   0.00000  Uiso   1.00
C12    C     0.58016   0.32026   0.73387   0.00000  Uiso   1.00
C13    C     0.53183   0.32719   0.83089   0.00000  Uiso   1.00
C14    C     0.70448   0.95137   0.62569   0.00000  Uiso   1.00
C15    C     0.76674   0.06018   0.59969   0.00000  Uiso   1.00
C16    C     0.83467   0.01555   0.60050   0.00000  Uiso   1.00
C17    C     0.88417   0.13268   0.57434   0.00000  Uiso   1.00
C18    C     0.66407   0.91900   0.57572   0.00000  Uiso   1.00
C19    C     0.64566   0.75566   0.55638   0.00000  Uiso   1.00
C20    C     0.60872   0.75392   0.51006   0.00000  Uiso   1.00
C21    C     0.66010   0.07183   0.66886   0.00000  Uiso   1.00
C22    C     0.63834   0.03697   0.72783   0.00000  Uiso   1.00
C23    C     0.59804   0.16389   0.75991   0.00000  Uiso   1.00
H24    H     0.65772   0.36025   0.55758   0.00000  Uiso   1.00
H25    H     0.78447   0.45426   0.52741   0.00000  Uiso   1.00
H26    H     0.59549   0.19441   0.48331   0.00000  Uiso   1.00
H27    H     0.58817   0.47568   0.65472   0.00000  Uiso   1.00
H28    H     0.93288   0.48963   0.50541   0.00000  Uiso   1.00
H29    H     0.53437   0.94171   0.41243   0.00000  Uiso   1.00
H30    H     0.51894   0.53484   0.77390   0.00000  Uiso   1.00
H31    H     0.71837   0.82984   0.64594   0.00000  Uiso   1.00
H32    H     0.84846   0.89475   0.62062   0.00000  Uiso   1.00
H33    H     0.65948   0.63489   0.57652   0.00000  Uiso   1.00
H34    H     0.65216   0.91617   0.74793   0.00000  Uiso   1.00
H35    H     0.98481   0.03550   0.58106   0.00000  Uiso   1.00
H36    H     0.58630   0.48759   0.48808   0.00000  Uiso   1.00
H37    H     0.57087   0.08071   0.84955   0.00000  Uiso   1.00
O38    O     0.04333   0.31481   0.52497   0.00000  Uiso   1.00
O39    O     0.52049   0.59597   0.40299   0.00000  Uiso   1.00
O40    O     0.50024   0.37414   0.87723   0.00000  Uiso   1.00
N41    N     0.92725   0.37386   0.52670   0.00000  Uiso   1.00
N42    N     0.55468   0.86159   0.43976   0.00000  Uiso   1.00
N43    N     0.54023   0.41609   0.77770   0.00000  Uiso   1.00
N44    N     0.95519   0.12950   0.56741   0.00000  Uiso   1.00
N45    N     0.58262   0.61723   0.48047   0.00000  Uiso   1.00
N46    N     0.56818   0.17173   0.81841   0.00000  Uiso   1.00
C47    C     0.32838   0.73874   0.92218   0.00000  Uiso   1.00
C48    C     0.25110   0.71627   0.92631   0.00000  Uiso   1.00
C49    C     0.20169   0.83349   0.95247   0.00000  Uiso   1.00
C50    C     0.13371   0.78905   0.95171   0.00000  Uiso   1.00
C51    C     0.01643   0.77787   0.96211   0.00000  Uiso   1.00
C52    C     0.35378   0.57508   0.95028   0.00000  Uiso   1.00
C53    C     0.39070   0.57360   0.99658   0.00000  Uiso   1.00
C54    C     0.40916   0.41029   0.01599   0.00000  Uiso   1.00
C55    C     0.45133   0.17992   0.06357   0.00000  Uiso   1.00
C56    C     0.35775   0.72792   0.85714   0.00000  Uiso   1.00
C57    C     0.39803   0.85491   0.82514   0.00000  Uiso   1.00
C58    C     0.41984   0.82026   0.76613   0.00000  Uiso   1.00
C59    C     0.46817   0.82719   0.66911   0.00000  Uiso   1.00
C60    C     0.29552   0.45137   0.87431   0.00000  Uiso   1.00
C61    C     0.23326   0.56018   0.90031   0.00000  Uiso   1.00
C62    C     0.16533   0.51555   0.89950   0.00000  Uiso   1.00
C63    C     0.11583   0.63268   0.92566   0.00000  Uiso   1.00
C64    C     0.33593   0.41900   0.92428   0.00000  Uiso   1.00
C65    C     0.35434   0.25566   0.94362   0.00000  Uiso   1.00
C66    C     0.39128   0.25392   0.98994   0.00000  Uiso   1.00
C67    C     0.33990   0.57183   0.83114   0.00000  Uiso   1.00
C68    C     0.36166   0.53697   0.77217   0.00000  Uiso   1.00
C69    C     0.40196   0.66389   0.74009   0.00000  Uiso   1.00
H70    H     0.34228   0.86025   0.94242   0.00000  Uiso   1.00
H71    H     0.21553   0.95426   0.97259   0.00000  Uiso   1.00
H72    H     0.40451   0.69441   0.01669   0.00000  Uiso   1.00
H73    H     0.41183   0.97568   0.84528   0.00000  Uiso   1.00
H74    H     0.06712   0.98963   0.99459   0.00000  Uiso   1.00
H75    H     0.46563   0.44171   0.08757   0.00000  Uiso   1.00
H76    H     0.48106   0.03484   0.72610   0.00000  Uiso   1.00
H77    H     0.28163   0.32984   0.85406   0.00000  Uiso   1.00
H78    H     0.15154   0.39475   0.87938   0.00000  Uiso   1.00
H79    H     0.34052   0.13489   0.92348   0.00000  Uiso   1.00
H80    H     0.34784   0.41617   0.75207   0.00000  Uiso   1.00
H81    H     0.01519   0.53550   0.91894   0.00000  Uiso   1.00
H82    H     0.41370   0.98759   0.01192   0.00000  Uiso   1.00
H83    H     0.42913   0.58071   0.65045   0.00000  Uiso   1.00
O84    O     0.95667   0.81481   0.97503   0.00000  Uiso   1.00
O85    O     0.47951   0.09597   0.09701   0.00000  Uiso   1.00
O86    O     0.49976   0.87414   0.62277   0.00000  Uiso   1.00
N87    N     0.07275   0.87386   0.97330   0.00000  Uiso   1.00
N88    N     0.44532   0.36159   0.06024   0.00000  Uiso   1.00
N89    N     0.45977   0.91609   0.72230   0.00000  Uiso   1.00
N90    N     0.04481   0.62950   0.93259   0.00000  Uiso   1.00
N91    N     0.41738   0.11723   0.01953   0.00000  Uiso   1.00
N92    N     0.43182   0.67173   0.68159   0.00000  Uiso   1.00
C93    C     0.32838   0.76126   0.42218   0.00000  Uiso   1.00
C94    C     0.25110   0.78373   0.42631   0.00000  Uiso   1.00
C95    C     0.20169   0.66651   0.45247   0.00000  Uiso   1.00
C96    C     0.13371   0.71095   0.45171   0.00000  Uiso   1.00
C97    C     0.01643   0.72213   0.46211   0.00000  Uiso   1.00
C98    C     0.35378   0.92492   0.45028   0.00000  Uiso   1.00
C99    C     0.39070   0.92640   0.49658   0.00000  Uiso   1.00
C100   C     0.40916   0.08971   0.51599   0.00000  Uiso   1.00
C101   C     0.45133   0.32008   0.56357   0.00000  Uiso   1.00
C102   C     0.35775   0.77208   0.35714   0.00000  Uiso   1.00
C103   C     0.39803   0.64509   0.32514   0.00000  Uiso   1.00
C104   C     0.41984   0.67974   0.26613   0.00000  Uiso   1.00
C105   C     0.46817   0.67281   0.16911   0.00000  Uiso   1.00
C106   C     0.29552   0.04863   0.37431   0.00000  Uiso   1.00
C107   C     0.23326   0.93982   0.40031   0.00000  Uiso   1.00
C108   C     0.16533   0.98445   0.39950   0.00000  Uiso   1.00
C109   C     0.11583   0.86732   0.42566   0.00000  Uiso   1.00
C110   C     0.33593   0.08100   0.42428   0.00000  Uiso   1.00
C111   C     0.35434   0.24434   0.44362   0.00000  Uiso   1.00
C112   C     0.39128   0.24608   0.48994   0.00000  Uiso   1.00
C113   C     0.33990   0.92817   0.33114   0.00000  Uiso   1.00
C114   C     0.36166   0.96303   0.27217   0.00000  Uiso   1.00
C115   C     0.40196   0.83611   0.24009   0.00000  Uiso   1.00
H116   H     0.34228   0.63975   0.44242   0.00000  Uiso   1.00
H117   H     0.21553   0.54574   0.47259   0.00000  Uiso   1.00
H118   H     0.40451   0.80559   0.51669   0.00000  Uiso   1.00
H119   H     0.41183   0.52432   0.34528   0.00000  Uiso   1.00
H120   H     0.06712   0.51037   0.49459   0.00000  Uiso   1.00
H121   H     0.46563   0.05829   0.58757   0.00000  Uiso   1.00
H122   H     0.48106   0.46516   0.22610   0.00000  Uiso   1.00
H123   H     0.28163   0.17016   0.35406   0.00000  Uiso   1.00
H124   H     0.15154   0.10525   0.37938   0.00000  Uiso   1.00
H125   H     0.34052   0.36511   0.42348   0.00000  Uiso   1.00
H126   H     0.34784   0.08383   0.25207   0.00000  Uiso   1.00
H127   H     0.01519   0.96450   0.41894   0.00000  Uiso   1.00
H128   H     0.41370   0.51241   0.51192   0.00000  Uiso   1.00
H129   H     0.42913   0.91929   0.15045   0.00000  Uiso   1.00
O130   O     0.95667   0.68519   0.47503   0.00000  Uiso   1.00
O131   O     0.47951   0.40403   0.59701   0.00000  Uiso   1.00
O132   O     0.49976   0.62586   0.12277   0.00000  Uiso   1.00
N133   N     0.07275   0.62614   0.47330   0.00000  Uiso   1.00
N134   N     0.44532   0.13841   0.56024   0.00000  Uiso   1.00
N135   N     0.45977   0.58391   0.22230   0.00000  Uiso   1.00
N136   N     0.04481   0.87050   0.43259   0.00000  Uiso   1.00
N137   N     0.41738   0.38277   0.51953   0.00000  Uiso   1.00
N138   N     0.43182   0.82827   0.18159   0.00000  Uiso   1.00
C139   C     0.67162   0.26126   0.07782   0.00000  Uiso   1.00
C140   C     0.74890   0.28373   0.07369   0.00000  Uiso   1.00
C141   C     0.79831   0.16651   0.04753   0.00000  Uiso   1.00
C142   C     0.86629   0.21095   0.04829   0.00000  Uiso   1.00
C143   C     0.98357   0.22213   0.03789   0.00000  Uiso   1.00
C144   C     0.64622   0.42492   0.04972   0.00000  Uiso   1.00
C145   C     0.60930   0.42640   0.00342   0.00000  Uiso   1.00
C146   C     0.59084   0.58971   0.98401   0.00000  Uiso   1.00
C147   C     0.54867   0.82008   0.93643   0.00000  Uiso   1.00
C148   C     0.64225   0.27208   0.14286   0.00000  Uiso   1.00
C149   C     0.60197   0.14509   0.17486   0.00000  Uiso   1.00
C150   C     0.58016   0.17974   0.23387   0.00000  Uiso   1.00
C151   C     0.53183   0.17281   0.33089   0.00000  Uiso   1.00
C152   C     0.70448   0.54863   0.12569   0.00000  Uiso   1.00
C153   C     0.76674   0.43982   0.09969   0.00000  Uiso   1.00
C154   C     0.83467   0.48445   0.10050   0.00000  Uiso   1.00
C155   C     0.88417   0.36732   0.07434   0.00000  Uiso   1.00
C156   C     0.66407   0.58100   0.07572   0.00000  Uiso   1.00
C157   C     0.64566   0.74434   0.05638   0.00000  Uiso   1.00
C158   C     0.60872   0.74608   0.01006   0.00000  Uiso   1.00
C159   C     0.66010   0.42817   0.16886   0.00000  Uiso   1.00
C160   C     0.63834   0.46303   0.22783   0.00000  Uiso   1.00
C161   C     0.59804   0.33611   0.25991   0.00000  Uiso   1.00
H162   H     0.65772   0.13975   0.05758   0.00000  Uiso   1.00
H163   H     0.78447   0.04574   0.02741   0.00000  Uiso   1.00
H164   H     0.59549   0.30559   0.98331   0.00000  Uiso   1.00
H165   H     0.58817   0.02432   0.15472   0.00000  Uiso   1.00
H166   H     0.93288   0.01037   0.00541   0.00000  Uiso   1.00
H167   H     0.53437   0.55829   0.91243   0.00000  Uiso   1.00
H168   H     0.51894   0.96516   0.27390   0.00000  Uiso   1.00
H169   H     0.71837   0.67016   0.14594   0.00000  Uiso   1.00
H170   H     0.84846   0.60525   0.12062   0.00000  Uiso   1.00
H171   H     0.65948   0.86511   0.07652   0.00000  Uiso   1.00
H172   H     0.65216   0.58383   0.24793   0.00000  Uiso   1.00
H173   H     0.98481   0.46450   0.08106   0.00000  Uiso   1.00
H174   H     0.58630   0.01241   0.98808   0.00000  Uiso   1.00
H175   H     0.57087   0.41929   0.34955   0.00000  Uiso   1.00
O176   O     0.04333   0.18519   0.02497   0.00000  Uiso   1.00
O177   O     0.52049   0.90403   0.90299   0.00000  Uiso   1.00
O178   O     0.50024   0.12586   0.37723   0.00000  Uiso   1.00
N179   N     0.92725   0.12614   0.02670   0.00000  Uiso   1.00
N180   N     0.55468   0.63841   0.93976   0.00000  Uiso   1.00
N181   N     0.54023   0.08391   0.27770   0.00000  Uiso   1.00
N182   N     0.95519   0.37050   0.06741   0.00000  Uiso   1.00
N183   N     0.58262   0.88277   0.98047   0.00000  Uiso   1.00
N184   N     0.56818   0.32827   0.31841   0.00000  Uiso   1.00
