data_job_00648
_audit_creation_date              2018-12-19
_audit_creation_method            'Materials Studio'
_symmetry_space_group_name_H-M    'P1'
_symmetry_Int_Tables_number       1
_symmetry_cell_setting            triclinic
loop_
_symmetry_equiv_pos_as_xyz
  x,y,z
_cell_length_a                    9.0613
_cell_length_b                    12.3714
_cell_length_c                    12.3739
_cell_angle_alpha                 107.1145
_cell_angle_beta                  98.3486
_cell_angle_gamma                 98.4742
loop_
_atom_site_label
_atom_site_type_symbol
_atom_site_fract_x
_atom_site_fract_y
_atom_site_fract_z
_atom_site_U_iso_or_equiv
_atom_site_adp_type
_atom_site_occupancy
C1     C     0.12021   0.22420   0.65343   0.00000  Uiso   1.00
C2     C     0.11371   0.27992   0.77973   0.00000  Uiso   1.00
C3     C     0.98570   0.26881   0.82812   0.00000  Uiso   1.00
C4     C     0.00320   0.32660   0.94527   0.00000  Uiso   1.00
C5     C     0.97172   0.40305   0.13128   0.00000  Uiso   1.00
C6     C     0.17932   0.32279   0.61061   0.00000  Uiso   1.00
C7     C     0.10649   0.34770   0.51680   0.00000  Uiso   1.00
C8     C     0.17924   0.44157   0.49159   0.00000  Uiso   1.00
C9     C     0.24968   0.58451   0.41499   0.00000  Uiso   1.00
C10    C     0.24487   0.15379   0.65357   0.00000  Uiso   1.00
C11    C     0.22716   0.03661   0.59586   0.00000  Uiso   1.00
C12    C     0.35510   0.98819   0.60679   0.00000  Uiso   1.00
C13    C     0.52731   0.86874   0.59689   0.00000  Uiso   1.00
C14    C     0.37891   0.34659   0.77544   0.00000  Uiso   1.00
C15    C     0.25423   0.34640   0.84599   0.00000  Uiso   1.00
C16    C     0.27193   0.40421   0.96310   0.00000  Uiso   1.00
C17    C     0.14397   0.39319   0.01166   0.00000  Uiso   1.00
C18    C     0.31983   0.38926   0.67687   0.00000  Uiso   1.00
C19    C     0.39271   0.48311   0.65179   0.00000  Uiso   1.00
C20    C     0.32001   0.50816   0.55797   0.00000  Uiso   1.00
C21    C     0.38539   0.22026   0.71984   0.00000  Uiso   1.00
C22    C     0.51338   0.17202   0.73085   0.00000  Uiso   1.00
C23    C     0.49587   0.05479   0.67317   0.00000  Uiso   1.00
H24    H     0.01081   0.17246   0.60184   0.00000  Uiso   1.00
H25    H     0.87697   0.21737   0.77680   0.00000  Uiso   1.00
H26    H     0.99776   0.29624   0.46553   0.00000  Uiso   1.00
H27    H     0.11841   0.98520   0.54458   0.00000  Uiso   1.00
H28    H     0.79055   0.29651  -0.00000   0.00000  Uiso   1.00
H29    H     0.04525   0.46279   0.34364   0.00000  Uiso   1.00
H30    H     0.29966   0.80689   0.51033   0.00000  Uiso   1.00
H31    H     0.48831   0.39835   0.82703   0.00000  Uiso   1.00
H32    H     0.38068   0.45565   0.01436   0.00000  Uiso   1.00
H33    H     0.50146   0.53452   0.70309   0.00000  Uiso   1.00
H34    H     0.62210   0.22348   0.78214   0.00000  Uiso   1.00
H35    H     0.19937   0.48991   0.19281   0.00000  Uiso   1.00
H36    H     0.45407   0.65619   0.53645   0.00000  Uiso   1.00
H37    H     0.70848   0.00030   0.70315   0.00000  Uiso   1.00
O38    O     0.91553   0.42686   0.21556   0.00000  Uiso   1.00
O39    O     0.24969   0.64500   0.35443   0.00000  Uiso   1.00
O40    O     0.58347   0.78449   0.57314   0.00000  Uiso   1.00
N41    N     0.90155   0.33414   0.01967   0.00000  Uiso   1.00
N42    N     0.13966   0.48962   0.40603   0.00000  Uiso   1.00
N43    N     0.37752   0.87642   0.56185   0.00000  Uiso   1.00
N44    N     0.12153   0.43821   0.12342   0.00000  Uiso   1.00
N45    N     0.35964   0.59369   0.50978   0.00000  Uiso   1.00
N46    N     0.59751   0.98049   0.66560   0.00000  Uiso   1.00
C47    C     0.87979   0.77580   0.34657   0.00000  Uiso   1.00
C48    C     0.88629   0.72008   0.22027   0.00000  Uiso   1.00
C49    C     0.01430   0.73119   0.17188   0.00000  Uiso   1.00
C50    C     0.99680   0.67340   0.05473   0.00000  Uiso   1.00
C51    C     0.02828   0.59695   0.86872   0.00000  Uiso   1.00
C52    C     0.82068   0.67721   0.38939   0.00000  Uiso   1.00
C53    C     0.89351   0.65230   0.48320   0.00000  Uiso   1.00
C54    C     0.82076   0.55843   0.50841   0.00000  Uiso   1.00
C55    C     0.75032   0.41549   0.58501   0.00000  Uiso   1.00
C56    C     0.75513   0.84621   0.34643   0.00000  Uiso   1.00
C57    C     0.77284   0.96339   0.40414   0.00000  Uiso   1.00
C58    C     0.64490   0.01181   0.39321   0.00000  Uiso   1.00
C59    C     0.47269   0.13126   0.40311   0.00000  Uiso   1.00
C60    C     0.62109   0.65341   0.22456   0.00000  Uiso   1.00
C61    C     0.74577   0.65360   0.15401   0.00000  Uiso   1.00
C62    C     0.72807   0.59579   0.03690   0.00000  Uiso   1.00
C63    C     0.85603   0.60681   0.98834   0.00000  Uiso   1.00
C64    C     0.68017   0.61074   0.32313   0.00000  Uiso   1.00
C65    C     0.60729   0.51689   0.34821   0.00000  Uiso   1.00
C66    C     0.67999   0.49184   0.44203   0.00000  Uiso   1.00
C67    C     0.61461   0.77974   0.28016   0.00000  Uiso   1.00
C68    C     0.48662   0.82798   0.26915   0.00000  Uiso   1.00
C69    C     0.50413   0.94521   0.32683   0.00000  Uiso   1.00
H70    H     0.98919   0.82754   0.39816   0.00000  Uiso   1.00
H71    H     0.12303   0.78263   0.22320   0.00000  Uiso   1.00
H72    H     0.00224   0.70376   0.53447   0.00000  Uiso   1.00
H73    H     0.88159   0.01480   0.45542   0.00000  Uiso   1.00
H74    H     0.20945   0.70349   0.00000   0.00000  Uiso   1.00
H75    H     0.95475   0.53721   0.65636   0.00000  Uiso   1.00
H76    H     0.70034   0.19311   0.48967   0.00000  Uiso   1.00
H77    H     0.51169   0.60165   0.17297   0.00000  Uiso   1.00
H78    H     0.61932   0.54435   0.98564   0.00000  Uiso   1.00
H79    H     0.49854   0.46548   0.29691   0.00000  Uiso   1.00
H80    H     0.37790   0.77652   0.21786   0.00000  Uiso   1.00
H81    H     0.80063   0.51009   0.80719   0.00000  Uiso   1.00
H82    H     0.54593   0.34381   0.46355   0.00000  Uiso   1.00
H83    H     0.29152   0.99970   0.29685   0.00000  Uiso   1.00
O84    O     0.08447   0.57314   0.78444   0.00000  Uiso   1.00
O85    O     0.75031   0.35500   0.64557   0.00000  Uiso   1.00
O86    O     0.41653   0.21551   0.42686   0.00000  Uiso   1.00
N87    N     0.09845   0.66586   0.98033   0.00000  Uiso   1.00
N88    N     0.86034   0.51038   0.59397   0.00000  Uiso   1.00
N89    N     0.62248   0.12358   0.43815   0.00000  Uiso   1.00
N90    N     0.87847   0.56179   0.87658   0.00000  Uiso   1.00
N91    N     0.64036   0.40631   0.49022   0.00000  Uiso   1.00
N92    N     0.40249   0.01951   0.33440   0.00000  Uiso   1.00
