data_job_06159
_audit_creation_date              2018-12-19
_audit_creation_method            'Materials Studio'
_symmetry_space_group_name_H-M    'P1'
_symmetry_Int_Tables_number       1
_symmetry_cell_setting            triclinic
loop_
_symmetry_equiv_pos_as_xyz
  x,y,z
_cell_length_a                    13.6970
_cell_length_b                    17.7653
_cell_length_c                    18.4449
_cell_angle_alpha                 113.9130
_cell_angle_beta                  74.4934
_cell_angle_gamma                 79.3520
loop_
_atom_site_label
_atom_site_type_symbol
_atom_site_fract_x
_atom_site_fract_y
_atom_site_fract_z
_atom_site_U_iso_or_equiv
_atom_site_adp_type
_atom_site_occupancy
C1     C     0.87277   0.39868   0.20349   0.00000  Uiso   1.00
C2     C     0.79922   0.40347   0.15520   0.00000  Uiso   1.00
C3     C     0.71482   0.37053   0.15672   0.00000  Uiso   1.00
C4     C     0.65714   0.38148   0.10815   0.00000  Uiso   1.00
C5     C     0.53902   0.38244   0.04048   0.00000  Uiso   1.00
C6     C     0.98691   0.35345   0.13590   0.00000  Uiso   1.00
C7     C     0.06032   0.27846   0.12121   0.00000  Uiso   1.00
C8     C     0.16064   0.24731   0.05641   0.00000  Uiso   1.00
C9     C     0.33394   0.17065   0.95882   0.00000  Uiso   1.00
C10    C     0.86485   0.49258   0.25840   0.00000  Uiso   1.00
C11    C     0.83566   0.53457   0.34671   0.00000  Uiso   1.00
C12    C     0.83324   0.62056   0.38504   0.00000  Uiso   1.00
C13    C     0.81704   0.75992   0.47765   0.00000  Uiso   1.00
C14    C     0.92042   0.47673   0.11452   0.00000  Uiso   1.00
C15    C     0.82510   0.44586   0.10687   0.00000  Uiso   1.00
C16    C     0.76753   0.45688   0.05829   0.00000  Uiso   1.00
C17    C     0.68306   0.42395   0.05974   0.00000  Uiso   1.00
C18    C     0.01279   0.39584   0.08758   0.00000  Uiso   1.00
C19    C     0.11303   0.36481   0.02278   0.00000  Uiso   1.00
C20    C     0.18657   0.28978   0.00799   0.00000  Uiso   1.00
C21    C     0.89073   0.53498   0.21008   0.00000  Uiso   1.00
C22    C     0.88837   0.62092   0.24828   0.00000  Uiso   1.00
C23    C     0.85917   0.66303   0.33663   0.00000  Uiso   1.00
H24    H     0.85263   0.36567   0.24111   0.00000  Uiso   1.00
H25    H     0.69482   0.33771   0.19412   0.00000  Uiso   1.00
H26    H     0.04027   0.24567   0.15862   0.00000  Uiso   1.00
H27    H     0.81564   0.50174   0.38408   0.00000  Uiso   1.00
H28    H     0.53130   0.32539   0.12069   0.00000  Uiso   1.00
H29    H     0.25970   0.13132   0.04586   0.00000  Uiso   1.00
H30    H     0.78604   0.67130   0.52129   0.00000  Uiso   1.00
H31    H     0.94057   0.50973   0.07690   0.00000  Uiso   1.00
H32    H     0.78758   0.48968   0.02090   0.00000  Uiso   1.00
H33    H     0.13303   0.39763   0.98540   0.00000  Uiso   1.00
H34    H     0.90840   0.65370   0.21086   0.00000  Uiso   1.00
H35    H     0.60658   0.44873   0.98009   0.00000  Uiso   1.00
H36    H     0.33499   0.25466   0.90527   0.00000  Uiso   1.00
H37    H     0.86132   0.79463   0.38069   0.00000  Uiso   1.00
O38    O     0.46673   0.37124   0.01649   0.00000  Uiso   1.00
O39    O     0.42238   0.11664   0.91833   0.00000  Uiso   1.00
O40    O     0.80093   0.82508   0.54208   0.00000  Uiso   1.00
N41    N     0.57000   0.35718   0.09530   0.00000  Uiso   1.00
N42    N     0.25101   0.17573   0.02533   0.00000  Uiso   1.00
N43    N     0.80820   0.68056   0.46981   0.00000  Uiso   1.00
N44    N     0.61051   0.42355   0.01965   0.00000  Uiso   1.00
N45    N     0.29152   0.24210   0.94968   0.00000  Uiso   1.00
N46    N     0.84871   0.74692   0.39416   0.00000  Uiso   1.00
C47    C     0.07870   0.79210   0.20271   0.00000  Uiso   1.00
C48    C     0.95851   0.83585   0.25630   0.00000  Uiso   1.00
C49    C     0.87724   0.83029   0.22482   0.00000  Uiso   1.00
C50    C     0.77234   0.87508   0.28428   0.00000  Uiso   1.00
C51    C     0.58917   0.93566   0.35413   0.00000  Uiso   1.00
C52    C     0.12725   0.86517   0.22301   0.00000  Uiso   1.00
C53    C     0.18787   0.88424   0.16353   0.00000  Uiso   1.00
C54    C     0.22503   0.95369   0.19496   0.00000  Uiso   1.00
C55    C     0.30391   0.05974   0.21311   0.00000  Uiso   1.00
C56    C     0.12171   0.73657   0.23956   0.00000  Uiso   1.00
C57    C     0.17770   0.64753   0.19400   0.00000  Uiso   1.00
C58    C     0.21023   0.60872   0.23938   0.00000  Uiso   1.00
C59    C     0.28051   0.51511   0.28324   0.00000  Uiso   1.00
C60    C     0.03694   0.88152   0.36429   0.00000  Uiso   1.00
C61    C     0.93583   0.88442   0.34406   0.00000  Uiso   1.00
C62    C     0.83103   0.92922   0.40359   0.00000  Uiso   1.00
C63    C     0.74962   0.92373   0.37220   0.00000  Uiso   1.00
C64    C     0.10457   0.91373   0.31077   0.00000  Uiso   1.00
C65    C     0.14166   0.98317   0.34230   0.00000  Uiso   1.00
C66    C     0.20231   0.00235   0.28288   0.00000  Uiso   1.00
C67    C     0.09903   0.78514   0.32733   0.00000  Uiso   1.00
C68    C     0.13149   0.74646   0.37278   0.00000  Uiso   1.00
C69    C     0.18751   0.65738   0.32730   0.00000  Uiso   1.00
H70    H     0.09636   0.75429   0.13438   0.00000  Uiso   1.00
H71    H     0.89482   0.79271   0.15689   0.00000  Uiso   1.00
H72    H     0.20541   0.84664   0.09561   0.00000  Uiso   1.00
H73    H     0.19524   0.60997   0.12609   0.00000  Uiso   1.00
H74    H     0.66138   0.85674   0.22055   0.00000  Uiso   1.00
H75    H     0.31631   0.97044   0.09133   0.00000  Uiso   1.00
H76    H     0.29486   0.47137   0.15559   0.00000  Uiso   1.00
H77    H     0.01928   0.91934   0.43263   0.00000  Uiso   1.00
H78    H     0.81351   0.96681   0.47150   0.00000  Uiso   1.00
H79    H     0.12410   0.02074   0.41022   0.00000  Uiso   1.00
H80    H     0.11392   0.78407   0.44070   0.00000  Uiso   1.00
H81    H     0.59538   0.99805   0.47589   0.00000  Uiso   1.00
H82    H     0.25032   0.11175   0.34668   0.00000  Uiso   1.00
H83    H     0.22886   0.61268   0.41094   0.00000  Uiso   1.00
O84    O     0.49441   0.95567   0.36841   0.00000  Uiso   1.00
O85    O     0.35367   0.10482   0.19888   0.00000  Uiso   1.00
O86    O     0.32552   0.45006   0.28319   0.00000  Uiso   1.00
N87    N     0.67409   0.88347   0.27531   0.00000  Uiso   1.00
N88    N     0.28639   0.98978   0.15450   0.00000  Uiso   1.00
N89    N     0.26637   0.52320   0.21458   0.00000  Uiso   1.00
N90    N     0.63857   0.95951   0.41271   0.00000  Uiso   1.00
N91    N     0.25088   0.06582   0.29190   0.00000  Uiso   1.00
N92    N     0.23085   0.59923   0.35198   0.00000  Uiso   1.00
C93    C     0.28787   0.79291   0.59002   0.00000  Uiso   1.00
C94    C     0.21970   0.73336   0.58218   0.00000  Uiso   1.00
C95    C     0.10855   0.76023   0.60944   0.00000  Uiso   1.00
C96    C     0.06124   0.69568   0.59651   0.00000  Uiso   1.00
C97    C     0.94599   0.61663   0.59028   0.00000  Uiso   1.00
C98    C     0.35373   0.77468   0.63954   0.00000  Uiso   1.00
C99    C     0.35528   0.83629   0.71503   0.00000  Uiso   1.00
C100   C     0.42081   0.80651   0.75037   0.00000  Uiso   1.00
C101   C     0.51371   0.79163   0.83317   0.00000  Uiso   1.00
C102   C     0.36806   0.75938   0.49938   0.00000  Uiso   1.00
C103   C     0.38170   0.80814   0.45702   0.00000  Uiso   1.00
C104   C     0.45932   0.76548   0.37437   0.00000  Uiso   1.00
C105   C     0.57448   0.72684   0.23954   0.00000  Uiso   1.00
C106   C     0.40151   0.63047   0.51857   0.00000  Uiso   1.00
C107   C     0.28142   0.64513   0.54337   0.00000  Uiso   1.00
C108   C     0.23427   0.58051   0.53039   0.00000  Uiso   1.00
C109   C     0.12307   0.60728   0.55763   0.00000  Uiso   1.00
C110   C     0.41545   0.68645   0.60073   0.00000  Uiso   1.00
C111   C     0.48100   0.65657   0.63598   0.00000  Uiso   1.00
C112   C     0.48265   0.71812   0.71150   0.00000  Uiso   1.00
C113   C     0.42979   0.67114   0.46057   0.00000  Uiso   1.00
C114   C     0.50742   0.62841   0.37797   0.00000  Uiso   1.00
C115   C     0.52116   0.67709   0.33549   0.00000  Uiso   1.00
H116   H     0.23982   0.86160   0.62024   0.00000  Uiso   1.00
H117   H     0.06081   0.82852   0.63948   0.00000  Uiso   1.00
H118   H     0.30751   0.90457   0.74504   0.00000  Uiso   1.00
H119   H     0.33392   0.87641   0.48708   0.00000  Uiso   1.00
H120   H     0.88956   0.75294   0.64373   0.00000  Uiso   1.00
H121   H     0.40977   0.91330   0.86629   0.00000  Uiso   1.00
H122   H     0.46546   0.85392   0.32233   0.00000  Uiso   1.00
H123   H     0.44957   0.56177   0.48835   0.00000  Uiso   1.00
H124   H     0.28206   0.51223   0.50036   0.00000  Uiso   1.00
H125   H     0.52876   0.58828   0.60592   0.00000  Uiso   1.00
H126   H     0.55517   0.56013   0.34796   0.00000  Uiso   1.00
H127   H     0.06913   0.49623   0.53081   0.00000  Uiso   1.00
H128   H     0.58935   0.65659   0.75338   0.00000  Uiso   1.00
H129   H     0.64503   0.59721   0.20941   0.00000  Uiso   1.00
O130   O     0.86537   0.59741   0.59757   0.00000  Uiso   1.00
O131   O     0.54788   0.80779   0.88956   0.00000  Uiso   1.00
O132   O     0.62093   0.72990   0.17589   0.00000  Uiso   1.00
N133   N     0.95481   0.69932   0.61549   0.00000  Uiso   1.00
N134   N     0.44117   0.84924   0.82359   0.00000  Uiso   1.00
N135   N     0.49325   0.79374   0.31503   0.00000  Uiso   1.00
N136   N     0.05144   0.56118   0.55473   0.00000  Uiso   1.00
N137   N     0.53779   0.71111   0.76283   0.00000  Uiso   1.00
N138   N     0.58987   0.65560   0.25427   0.00000  Uiso   1.00
C139   C     0.12723   0.60132   0.79651   0.00000  Uiso   1.00
C140   C     0.20078   0.59653   0.84480   0.00000  Uiso   1.00
C141   C     0.28518   0.62947   0.84328   0.00000  Uiso   1.00
C142   C     0.34287   0.61852   0.89185   0.00000  Uiso   1.00
C143   C     0.46098   0.61756   0.95952   0.00000  Uiso   1.00
C144   C     0.01309   0.64655   0.86410   0.00000  Uiso   1.00
C145   C     0.93968   0.72154   0.87879   0.00000  Uiso   1.00
C146   C     0.83936   0.75269   0.94359   0.00000  Uiso   1.00
C147   C     0.66606   0.82935   0.04118   0.00000  Uiso   1.00
C148   C     0.13515   0.50742   0.74160   0.00000  Uiso   1.00
C149   C     0.16434   0.46543   0.65329   0.00000  Uiso   1.00
C150   C     0.16676   0.37944   0.61496   0.00000  Uiso   1.00
C151   C     0.18296   0.24008   0.52235   0.00000  Uiso   1.00
C152   C     0.07958   0.52327   0.88548   0.00000  Uiso   1.00
C153   C     0.17490   0.55414   0.89313   0.00000  Uiso   1.00
C154   C     0.23247   0.54312   0.94171   0.00000  Uiso   1.00
C155   C     0.31694   0.57605   0.94026   0.00000  Uiso   1.00
C156   C     0.98721   0.60416   0.91242   0.00000  Uiso   1.00
C157   C     0.88697   0.63519   0.97722   0.00000  Uiso   1.00
C158   C     0.81344   0.71022   0.99201   0.00000  Uiso   1.00
C159   C     0.10927   0.46502   0.78992   0.00000  Uiso   1.00
C160   C     0.11163   0.37908   0.75172   0.00000  Uiso   1.00
C161   C     0.14083   0.33697   0.66337   0.00000  Uiso   1.00
H162   H     0.14737   0.63433   0.75889   0.00000  Uiso   1.00
H163   H     0.30518   0.66229   0.80588   0.00000  Uiso   1.00
H164   H     0.95973   0.75433   0.84138   0.00000  Uiso   1.00
H165   H     0.18436   0.49826   0.61592   0.00000  Uiso   1.00
H166   H     0.46870   0.67461   0.87931   0.00000  Uiso   1.00
H167   H     0.74030   0.86868   0.95414   0.00000  Uiso   1.00
H168   H     0.21396   0.32870   0.47871   0.00000  Uiso   1.00
H169   H     0.05943   0.49027   0.92310   0.00000  Uiso   1.00
H170   H     0.21242   0.51032   0.97910   0.00000  Uiso   1.00
H171   H     0.86697   0.60237   0.01460   0.00000  Uiso   1.00
H172   H     0.09160   0.34630   0.78914   0.00000  Uiso   1.00
H173   H     0.39342   0.55127   0.01991   0.00000  Uiso   1.00
H174   H     0.66501   0.74534   0.09473   0.00000  Uiso   1.00
H175   H     0.13868   0.20537   0.61931   0.00000  Uiso   1.00
O176   O     0.53327   0.62876   0.98351   0.00000  Uiso   1.00
O177   O     0.57762   0.88335   0.08167   0.00000  Uiso   1.00
O178   O     0.19907   0.17492   0.45792   0.00000  Uiso   1.00
N179   N     0.43000   0.64282   0.90470   0.00000  Uiso   1.00
N180   N     0.74899   0.82427   0.97467   0.00000  Uiso   1.00
N181   N     0.19180   0.31944   0.53019   0.00000  Uiso   1.00
N182   N     0.38949   0.57645   0.98035   0.00000  Uiso   1.00
N183   N     0.70848   0.75790   0.05032   0.00000  Uiso   1.00
N184   N     0.15129   0.25307   0.60584   0.00000  Uiso   1.00
C185   C     0.92130   0.20790   0.79729   0.00000  Uiso   1.00
C186   C     0.04149   0.16415   0.74370   0.00000  Uiso   1.00
C187   C     0.12276   0.16971   0.77518   0.00000  Uiso   1.00
C188   C     0.22766   0.12492   0.71572   0.00000  Uiso   1.00
C189   C     0.41083   0.06434   0.64587   0.00000  Uiso   1.00
C190   C     0.87275   0.13483   0.77699   0.00000  Uiso   1.00
C191   C     0.81213   0.11576   0.83647   0.00000  Uiso   1.00
C192   C     0.77496   0.04631   0.80504   0.00000  Uiso   1.00
C193   C     0.69609   0.94026   0.78689   0.00000  Uiso   1.00
C194   C     0.87829   0.26343   0.76043   0.00000  Uiso   1.00
C195   C     0.82230   0.35247   0.80600   0.00000  Uiso   1.00
C196   C     0.78977   0.39128   0.76062   0.00000  Uiso   1.00
C197   C     0.71949   0.48489   0.71676   0.00000  Uiso   1.00
C198   C     0.96306   0.11848   0.63571   0.00000  Uiso   1.00
C199   C     0.06417   0.11558   0.65594   0.00000  Uiso   1.00
C200   C     0.16897   0.07077   0.59641   0.00000  Uiso   1.00
C201   C     0.25038   0.07627   0.62780   0.00000  Uiso   1.00
C202   C     0.89543   0.08626   0.68923   0.00000  Uiso   1.00
C203   C     0.85834   0.01683   0.65770   0.00000  Uiso   1.00
C204   C     0.79769   0.99765   0.71712   0.00000  Uiso   1.00
C205   C     0.90097   0.21486   0.67267   0.00000  Uiso   1.00
C206   C     0.86851   0.25353   0.62722   0.00000  Uiso   1.00
C207   C     0.81249   0.34262   0.67270   0.00000  Uiso   1.00
H208   H     0.90364   0.24571   0.86562   0.00000  Uiso   1.00
H209   H     0.10518   0.20729   0.84311   0.00000  Uiso   1.00
H210   H     0.79459   0.15336   0.90439   0.00000  Uiso   1.00
H211   H     0.80476   0.39003   0.87391   0.00000  Uiso   1.00
H212   H     0.33862   0.14326   0.77945   0.00000  Uiso   1.00
H213   H     0.68369   0.02956   0.90867   0.00000  Uiso   1.00
H214   H     0.70514   0.52863   0.84441   0.00000  Uiso   1.00
H215   H     0.98072   0.08066   0.56737   0.00000  Uiso   1.00
H216   H     0.18649   0.03319   0.52850   0.00000  Uiso   1.00
H217   H     0.87590   0.97926   0.58978   0.00000  Uiso   1.00
H218   H     0.88608   0.21593   0.55930   0.00000  Uiso   1.00
H219   H     0.40462   0.00195   0.52411   0.00000  Uiso   1.00
H220   H     0.74968   0.88825   0.65332   0.00000  Uiso   1.00
H221   H     0.77114   0.38732   0.58906   0.00000  Uiso   1.00
O222   O     0.50559   0.04433   0.63159   0.00000  Uiso   1.00
O223   O     0.64633   0.89517   0.80112   0.00000  Uiso   1.00
O224   O     0.67448   0.54994   0.71681   0.00000  Uiso   1.00
N225   N     0.32591   0.11653   0.72469   0.00000  Uiso   1.00
N226   N     0.71361   0.01022   0.84550   0.00000  Uiso   1.00
N227   N     0.73363   0.47680   0.78542   0.00000  Uiso   1.00
N228   N     0.36143   0.04049   0.58729   0.00000  Uiso   1.00
N229   N     0.74912   0.93418   0.70810   0.00000  Uiso   1.00
N230   N     0.76915   0.40077   0.64802   0.00000  Uiso   1.00
C231   C     0.71213   0.20709   0.40998   0.00000  Uiso   1.00
C232   C     0.78030   0.26664   0.41782   0.00000  Uiso   1.00
C233   C     0.89145   0.23977   0.39056   0.00000  Uiso   1.00
C234   C     0.93876   0.30432   0.40349   0.00000  Uiso   1.00
C235   C     0.05401   0.38337   0.40972   0.00000  Uiso   1.00
C236   C     0.64627   0.22532   0.36046   0.00000  Uiso   1.00
C237   C     0.64472   0.16370   0.28497   0.00000  Uiso   1.00
C238   C     0.57919   0.19348   0.24963   0.00000  Uiso   1.00
C239   C     0.48629   0.20837   0.16683   0.00000  Uiso   1.00
C240   C     0.63194   0.24062   0.50062   0.00000  Uiso   1.00
C241   C     0.61830   0.19186   0.54298   0.00000  Uiso   1.00
C242   C     0.54068   0.23452   0.62563   0.00000  Uiso   1.00
C243   C     0.42552   0.27316   0.76046   0.00000  Uiso   1.00
C244   C     0.59849   0.36953   0.48143   0.00000  Uiso   1.00
C245   C     0.71858   0.35487   0.45663   0.00000  Uiso   1.00
C246   C     0.76573   0.41949   0.46961   0.00000  Uiso   1.00
C247   C     0.87693   0.39272   0.44237   0.00000  Uiso   1.00
C248   C     0.58455   0.31355   0.39927   0.00000  Uiso   1.00
C249   C     0.51900   0.34343   0.36402   0.00000  Uiso   1.00
C250   C     0.51735   0.28188   0.28850   0.00000  Uiso   1.00
C251   C     0.57021   0.32886   0.53943   0.00000  Uiso   1.00
C252   C     0.49258   0.37159   0.62203   0.00000  Uiso   1.00
C253   C     0.47884   0.32291   0.66451   0.00000  Uiso   1.00
H254   H     0.76018   0.13840   0.37976   0.00000  Uiso   1.00
H255   H     0.93919   0.17148   0.36052   0.00000  Uiso   1.00
H256   H     0.69249   0.09543   0.25496   0.00000  Uiso   1.00
H257   H     0.66608   0.12359   0.51292   0.00000  Uiso   1.00
H258   H     0.11044   0.24706   0.35627   0.00000  Uiso   1.00
H259   H     0.59023   0.08670   0.13371   0.00000  Uiso   1.00
H260   H     0.53454   0.14608   0.67767   0.00000  Uiso   1.00
H261   H     0.55043   0.43823   0.51165   0.00000  Uiso   1.00
H262   H     0.71794   0.48777   0.49964   0.00000  Uiso   1.00
H263   H     0.47124   0.41171   0.39408   0.00000  Uiso   1.00
H264   H     0.44483   0.43987   0.65204   0.00000  Uiso   1.00
H265   H     0.93087   0.50377   0.46919   0.00000  Uiso   1.00
H266   H     0.41065   0.34341   0.24662   0.00000  Uiso   1.00
H267   H     0.35497   0.40279   0.79059   0.00000  Uiso   1.00
O268   O     0.13463   0.40259   0.40243   0.00000  Uiso   1.00
O269   O     0.45212   0.19220   0.11044   0.00000  Uiso   1.00
O270   O     0.37907   0.27010   0.82411   0.00000  Uiso   1.00
N271   N     0.04519   0.30068   0.38451   0.00000  Uiso   1.00
N272   N     0.55883   0.15076   0.17641   0.00000  Uiso   1.00
N273   N     0.50675   0.20626   0.68497   0.00000  Uiso   1.00
N274   N     0.94856   0.43882   0.44527   0.00000  Uiso   1.00
N275   N     0.46221   0.28889   0.23717   0.00000  Uiso   1.00
N276   N     0.41013   0.34439   0.74573   0.00000  Uiso   1.00
