data_job_01268
_audit_creation_date              2018-12-19
_audit_creation_method            'Materials Studio'
_symmetry_space_group_name_H-M    'P1'
_symmetry_Int_Tables_number       1
_symmetry_cell_setting            triclinic
loop_
_symmetry_equiv_pos_as_xyz
  x,y,z
_cell_length_a                    16.5439
_cell_length_b                    11.9041
_cell_length_c                    23.9234
_cell_angle_alpha                 90.0000
_cell_angle_beta                  95.8977
_cell_angle_gamma                 90.0000
loop_
_atom_site_label
_atom_site_type_symbol
_atom_site_fract_x
_atom_site_fract_y
_atom_site_fract_z
_atom_site_U_iso_or_equiv
_atom_site_adp_type
_atom_site_occupancy
C1     C     0.00360   0.62712   0.92027   0.00000  Uiso   1.00
C2     C     0.94791   0.69924   0.95248   0.00000  Uiso   1.00
C3     C     0.91555   0.66845   0.00151   0.00000  Uiso   1.00
C4     C     0.86595   0.74629   0.02451   0.00000  Uiso   1.00
C5     C     0.78198   0.84231   0.07834   0.00000  Uiso   1.00
C6     C     0.96188   0.61760   0.86058   0.00000  Uiso   1.00
C7     C     0.94127   0.51817   0.83235   0.00000  Uiso   1.00
C8     C     0.90343   0.52730   0.77798   0.00000  Uiso   1.00
C9     C     0.84119   0.49657   0.68913   0.00000  Uiso   1.00
C10    C     0.08006   0.69678   0.91597   0.00000  Uiso   1.00
C11    C     0.15883   0.66391   0.93430   0.00000  Uiso   1.00
C12    C     0.22051   0.73969   0.92656   0.00000  Uiso   1.00
C13    C     0.34177   0.83189   0.92372   0.00000  Uiso   1.00
C14    C     0.97306   0.82012   0.87392   0.00000  Uiso   1.00
C15    C     0.93133   0.80407   0.92730   0.00000  Uiso   1.00
C16    C     0.88176   0.88198   0.95024   0.00000  Uiso   1.00
C17    C     0.84933   0.85132   0.99929   0.00000  Uiso   1.00
C18    C     0.94529   0.72243   0.83541   0.00000  Uiso   1.00
C19    C     0.90748   0.73170   0.78107   0.00000  Uiso   1.00
C20    C     0.88681   0.63232   0.75276   0.00000  Uiso   1.00
C21    C     0.06348   0.80161   0.89080   0.00000  Uiso   1.00
C22    C     0.12504   0.87745   0.88303   0.00000  Uiso   1.00
C23    C     0.20389   0.84471   0.90134   0.00000  Uiso   1.00
H24    H     0.01651   0.54551   0.93986   0.00000  Uiso   1.00
H25    H     0.92839   0.58731   0.02097   0.00000  Uiso   1.00
H26    H     0.95412   0.43706   0.85183   0.00000  Uiso   1.00
H27    H     0.17165   0.58279   0.95378   0.00000  Uiso   1.00
H28    H     0.82336   0.67988   0.09979   0.00000  Uiso   1.00
H29    H     0.87763   0.36307   0.74315   0.00000  Uiso   1.00
H30    H     0.33633   0.67034   0.95811   0.00000  Uiso   1.00
H31    H     0.96014   0.90174   0.85432   0.00000  Uiso   1.00
H32    H     0.86894   0.96310   0.93075   0.00000  Uiso   1.00
H33    H     0.89466   0.81284   0.76161   0.00000  Uiso   1.00
H34    H     0.11219   0.95856   0.86355   0.00000  Uiso   1.00
H35    H     0.77510   0.98488   0.02656   0.00000  Uiso   1.00
H36    H     0.82937   0.66806   0.66991   0.00000  Uiso   1.00
H37    H     0.28807   0.97534   0.88488   0.00000  Uiso   1.00
O38    O     0.74023   0.86630   0.11498   0.00000  Uiso   1.00
O39    O     0.81144   0.45065   0.64707   0.00000  Uiso   1.00
O40    O     0.41324   0.85379   0.92911   0.00000  Uiso   1.00
N41    N     0.82454   0.74325   0.07207   0.00000  Uiso   1.00
N42    N     0.87526   0.44705   0.73863   0.00000  Uiso   1.00
N43    N     0.30411   0.73431   0.93959   0.00000  Uiso   1.00
N44    N     0.79857   0.90737   0.03267   0.00000  Uiso   1.00
N45    N     0.84929   0.61116   0.69923   0.00000  Uiso   1.00
N46    N     0.27814   0.89843   0.90019   0.00000  Uiso   1.00
C47    C     0.50360   0.12712   0.92027   0.00000  Uiso   1.00
C48    C     0.44791   0.19924   0.95248   0.00000  Uiso   1.00
C49    C     0.41555   0.16845   0.00151   0.00000  Uiso   1.00
C50    C     0.36595   0.24629   0.02451   0.00000  Uiso   1.00
C51    C     0.28198   0.34231   0.07834   0.00000  Uiso   1.00
C52    C     0.46188   0.11760   0.86058   0.00000  Uiso   1.00
C53    C     0.44127   0.01817   0.83235   0.00000  Uiso   1.00
C54    C     0.40343   0.02730   0.77798   0.00000  Uiso   1.00
C55    C     0.34119   0.99657   0.68913   0.00000  Uiso   1.00
C56    C     0.58006   0.19678   0.91597   0.00000  Uiso   1.00
C57    C     0.65883   0.16391   0.93430   0.00000  Uiso   1.00
C58    C     0.72051   0.23969   0.92656   0.00000  Uiso   1.00
C59    C     0.84177   0.33189   0.92372   0.00000  Uiso   1.00
C60    C     0.47306   0.32012   0.87392   0.00000  Uiso   1.00
C61    C     0.43133   0.30407   0.92730   0.00000  Uiso   1.00
C62    C     0.38176   0.38198   0.95024   0.00000  Uiso   1.00
C63    C     0.34933   0.35132   0.99929   0.00000  Uiso   1.00
C64    C     0.44529   0.22243   0.83541   0.00000  Uiso   1.00
C65    C     0.40748   0.23170   0.78107   0.00000  Uiso   1.00
C66    C     0.38681   0.13232   0.75276   0.00000  Uiso   1.00
C67    C     0.56348   0.30161   0.89080   0.00000  Uiso   1.00
C68    C     0.62504   0.37745   0.88303   0.00000  Uiso   1.00
C69    C     0.70389   0.34471   0.90134   0.00000  Uiso   1.00
H70    H     0.51651   0.04551   0.93986   0.00000  Uiso   1.00
H71    H     0.42839   0.08731   0.02097   0.00000  Uiso   1.00
H72    H     0.45412   0.93706   0.85183   0.00000  Uiso   1.00
H73    H     0.67165   0.08279   0.95378   0.00000  Uiso   1.00
H74    H     0.32336   0.17988   0.09979   0.00000  Uiso   1.00
H75    H     0.37763   0.86307   0.74315   0.00000  Uiso   1.00
H76    H     0.83633   0.17034   0.95811   0.00000  Uiso   1.00
H77    H     0.46014   0.40174   0.85432   0.00000  Uiso   1.00
H78    H     0.36894   0.46310   0.93075   0.00000  Uiso   1.00
H79    H     0.39466   0.31284   0.76161   0.00000  Uiso   1.00
H80    H     0.61219   0.45856   0.86355   0.00000  Uiso   1.00
H81    H     0.27510   0.48488   0.02656   0.00000  Uiso   1.00
H82    H     0.32937   0.16806   0.66991   0.00000  Uiso   1.00
H83    H     0.78807   0.47534   0.88488   0.00000  Uiso   1.00
O84    O     0.24023   0.36630   0.11498   0.00000  Uiso   1.00
O85    O     0.31144   0.95065   0.64707   0.00000  Uiso   1.00
O86    O     0.91324   0.35379   0.92911   0.00000  Uiso   1.00
N87    N     0.32454   0.24325   0.07207   0.00000  Uiso   1.00
N88    N     0.37526   0.94705   0.73863   0.00000  Uiso   1.00
N89    N     0.80411   0.23431   0.93959   0.00000  Uiso   1.00
N90    N     0.29857   0.40737   0.03267   0.00000  Uiso   1.00
N91    N     0.34929   0.11116   0.69923   0.00000  Uiso   1.00
N92    N     0.77814   0.39843   0.90019   0.00000  Uiso   1.00
C93    C     0.99640   0.62712   0.57973   0.00000  Uiso   1.00
C94    C     0.05209   0.69924   0.54752   0.00000  Uiso   1.00
C95    C     0.08445   0.66845   0.49849   0.00000  Uiso   1.00
C96    C     0.13405   0.74629   0.47549   0.00000  Uiso   1.00
C97    C     0.21802   0.84231   0.42166   0.00000  Uiso   1.00
C98    C     0.03812   0.61760   0.63942   0.00000  Uiso   1.00
C99    C     0.05873   0.51817   0.66765   0.00000  Uiso   1.00
C100   C     0.09657   0.52730   0.72202   0.00000  Uiso   1.00
C101   C     0.15881   0.49657   0.81087   0.00000  Uiso   1.00
C102   C     0.91994   0.69678   0.58403   0.00000  Uiso   1.00
C103   C     0.84117   0.66391   0.56570   0.00000  Uiso   1.00
C104   C     0.77949   0.73969   0.57344   0.00000  Uiso   1.00
C105   C     0.65823   0.83189   0.57628   0.00000  Uiso   1.00
C106   C     0.02694   0.82012   0.62608   0.00000  Uiso   1.00
C107   C     0.06867   0.80407   0.57270   0.00000  Uiso   1.00
C108   C     0.11824   0.88198   0.54976   0.00000  Uiso   1.00
C109   C     0.15067   0.85132   0.50071   0.00000  Uiso   1.00
C110   C     0.05471   0.72243   0.66459   0.00000  Uiso   1.00
C111   C     0.09252   0.73170   0.71893   0.00000  Uiso   1.00
C112   C     0.11319   0.63232   0.74724   0.00000  Uiso   1.00
C113   C     0.93652   0.80161   0.60920   0.00000  Uiso   1.00
C114   C     0.87496   0.87745   0.61697   0.00000  Uiso   1.00
C115   C     0.79611   0.84471   0.59866   0.00000  Uiso   1.00
H116   H     0.98349   0.54551   0.56014   0.00000  Uiso   1.00
H117   H     0.07161   0.58731   0.47903   0.00000  Uiso   1.00
H118   H     0.04588   0.43706   0.64817   0.00000  Uiso   1.00
H119   H     0.82835   0.58279   0.54622   0.00000  Uiso   1.00
H120   H     0.17664   0.67988   0.40021   0.00000  Uiso   1.00
H121   H     0.12237   0.36307   0.75685   0.00000  Uiso   1.00
H122   H     0.66367   0.67034   0.54189   0.00000  Uiso   1.00
H123   H     0.03986   0.90174   0.64568   0.00000  Uiso   1.00
H124   H     0.13106   0.96310   0.56925   0.00000  Uiso   1.00
H125   H     0.10534   0.81284   0.73839   0.00000  Uiso   1.00
H126   H     0.88781   0.95856   0.63645   0.00000  Uiso   1.00
H127   H     0.22490   0.98488   0.47344   0.00000  Uiso   1.00
H128   H     0.17063   0.66806   0.83009   0.00000  Uiso   1.00
H129   H     0.71193   0.97534   0.61512   0.00000  Uiso   1.00
O130   O     0.25977   0.86630   0.38502   0.00000  Uiso   1.00
O131   O     0.18856   0.45065   0.85293   0.00000  Uiso   1.00
O132   O     0.58676   0.85379   0.57089   0.00000  Uiso   1.00
N133   N     0.17546   0.74325   0.42793   0.00000  Uiso   1.00
N134   N     0.12474   0.44705   0.76137   0.00000  Uiso   1.00
N135   N     0.69589   0.73431   0.56041   0.00000  Uiso   1.00
N136   N     0.20143   0.90737   0.46733   0.00000  Uiso   1.00
N137   N     0.15071   0.61116   0.80077   0.00000  Uiso   1.00
N138   N     0.72186   0.89843   0.59981   0.00000  Uiso   1.00
C139   C     0.49640   0.12712   0.57973   0.00000  Uiso   1.00
C140   C     0.55209   0.19924   0.54752   0.00000  Uiso   1.00
C141   C     0.58445   0.16845   0.49849   0.00000  Uiso   1.00
C142   C     0.63405   0.24629   0.47549   0.00000  Uiso   1.00
C143   C     0.71802   0.34231   0.42166   0.00000  Uiso   1.00
C144   C     0.53812   0.11760   0.63942   0.00000  Uiso   1.00
C145   C     0.55873   0.01817   0.66765   0.00000  Uiso   1.00
C146   C     0.59657   0.02730   0.72202   0.00000  Uiso   1.00
C147   C     0.65881   0.99657   0.81087   0.00000  Uiso   1.00
C148   C     0.41994   0.19678   0.58403   0.00000  Uiso   1.00
C149   C     0.34117   0.16391   0.56570   0.00000  Uiso   1.00
C150   C     0.27949   0.23969   0.57344   0.00000  Uiso   1.00
C151   C     0.15823   0.33189   0.57628   0.00000  Uiso   1.00
C152   C     0.52694   0.32012   0.62608   0.00000  Uiso   1.00
C153   C     0.56867   0.30407   0.57270   0.00000  Uiso   1.00
C154   C     0.61824   0.38198   0.54976   0.00000  Uiso   1.00
C155   C     0.65067   0.35132   0.50071   0.00000  Uiso   1.00
C156   C     0.55471   0.22243   0.66459   0.00000  Uiso   1.00
C157   C     0.59252   0.23170   0.71893   0.00000  Uiso   1.00
C158   C     0.61319   0.13232   0.74724   0.00000  Uiso   1.00
C159   C     0.43652   0.30161   0.60920   0.00000  Uiso   1.00
C160   C     0.37496   0.37745   0.61697   0.00000  Uiso   1.00
C161   C     0.29611   0.34471   0.59866   0.00000  Uiso   1.00
H162   H     0.48349   0.04551   0.56014   0.00000  Uiso   1.00
H163   H     0.57161   0.08731   0.47903   0.00000  Uiso   1.00
H164   H     0.54588   0.93706   0.64817   0.00000  Uiso   1.00
H165   H     0.32835   0.08279   0.54622   0.00000  Uiso   1.00
H166   H     0.67664   0.17988   0.40021   0.00000  Uiso   1.00
H167   H     0.62237   0.86307   0.75685   0.00000  Uiso   1.00
H168   H     0.16367   0.17034   0.54189   0.00000  Uiso   1.00
H169   H     0.53986   0.40174   0.64568   0.00000  Uiso   1.00
H170   H     0.63106   0.46310   0.56925   0.00000  Uiso   1.00
H171   H     0.60534   0.31284   0.73839   0.00000  Uiso   1.00
H172   H     0.38781   0.45856   0.63645   0.00000  Uiso   1.00
H173   H     0.72490   0.48488   0.47344   0.00000  Uiso   1.00
H174   H     0.67063   0.16806   0.83009   0.00000  Uiso   1.00
H175   H     0.21193   0.47534   0.61512   0.00000  Uiso   1.00
O176   O     0.75977   0.36630   0.38502   0.00000  Uiso   1.00
O177   O     0.68856   0.95065   0.85293   0.00000  Uiso   1.00
O178   O     0.08676   0.35379   0.57089   0.00000  Uiso   1.00
N179   N     0.67546   0.24325   0.42793   0.00000  Uiso   1.00
N180   N     0.62474   0.94705   0.76137   0.00000  Uiso   1.00
N181   N     0.19589   0.23431   0.56041   0.00000  Uiso   1.00
N182   N     0.70143   0.40737   0.46733   0.00000  Uiso   1.00
N183   N     0.65071   0.11116   0.80077   0.00000  Uiso   1.00
N184   N     0.22186   0.39843   0.59981   0.00000  Uiso   1.00
C185   C     0.99640   0.37288   0.07973   0.00000  Uiso   1.00
C186   C     0.05209   0.30076   0.04752   0.00000  Uiso   1.00
C187   C     0.08445   0.33155   0.99849   0.00000  Uiso   1.00
C188   C     0.13405   0.25371   0.97549   0.00000  Uiso   1.00
C189   C     0.21802   0.15769   0.92166   0.00000  Uiso   1.00
C190   C     0.03812   0.38240   0.13942   0.00000  Uiso   1.00
C191   C     0.05873   0.48183   0.16765   0.00000  Uiso   1.00
C192   C     0.09657   0.47270   0.22202   0.00000  Uiso   1.00
C193   C     0.15881   0.50343   0.31087   0.00000  Uiso   1.00
C194   C     0.91994   0.30322   0.08403   0.00000  Uiso   1.00
C195   C     0.84117   0.33609   0.06570   0.00000  Uiso   1.00
C196   C     0.77949   0.26031   0.07344   0.00000  Uiso   1.00
C197   C     0.65823   0.16811   0.07628   0.00000  Uiso   1.00
C198   C     0.02694   0.17988   0.12608   0.00000  Uiso   1.00
C199   C     0.06867   0.19593   0.07270   0.00000  Uiso   1.00
C200   C     0.11824   0.11802   0.04976   0.00000  Uiso   1.00
C201   C     0.15067   0.14868   0.00071   0.00000  Uiso   1.00
C202   C     0.05471   0.27757   0.16459   0.00000  Uiso   1.00
C203   C     0.09252   0.26830   0.21893   0.00000  Uiso   1.00
C204   C     0.11319   0.36768   0.24724   0.00000  Uiso   1.00
C205   C     0.93652   0.19839   0.10920   0.00000  Uiso   1.00
C206   C     0.87496   0.12255   0.11697   0.00000  Uiso   1.00
C207   C     0.79611   0.15529   0.09866   0.00000  Uiso   1.00
H208   H     0.98349   0.45449   0.06014   0.00000  Uiso   1.00
H209   H     0.07161   0.41269   0.97903   0.00000  Uiso   1.00
H210   H     0.04588   0.56294   0.14817   0.00000  Uiso   1.00
H211   H     0.82835   0.41721   0.04622   0.00000  Uiso   1.00
H212   H     0.17664   0.32012   0.90021   0.00000  Uiso   1.00
H213   H     0.12237   0.63693   0.25685   0.00000  Uiso   1.00
H214   H     0.66367   0.32966   0.04189   0.00000  Uiso   1.00
H215   H     0.03986   0.09826   0.14568   0.00000  Uiso   1.00
H216   H     0.13106   0.03690   0.06925   0.00000  Uiso   1.00
H217   H     0.10534   0.18716   0.23839   0.00000  Uiso   1.00
H218   H     0.88781   0.04144   0.13645   0.00000  Uiso   1.00
H219   H     0.22490   0.01512   0.97344   0.00000  Uiso   1.00
H220   H     0.17063   0.33194   0.33009   0.00000  Uiso   1.00
H221   H     0.71193   0.02466   0.11512   0.00000  Uiso   1.00
O222   O     0.25977   0.13370   0.88502   0.00000  Uiso   1.00
O223   O     0.18856   0.54935   0.35293   0.00000  Uiso   1.00
O224   O     0.58676   0.14621   0.07089   0.00000  Uiso   1.00
N225   N     0.17546   0.25675   0.92793   0.00000  Uiso   1.00
N226   N     0.12474   0.55295   0.26137   0.00000  Uiso   1.00
N227   N     0.69589   0.26569   0.06041   0.00000  Uiso   1.00
N228   N     0.20143   0.09263   0.96733   0.00000  Uiso   1.00
N229   N     0.15071   0.38884   0.30077   0.00000  Uiso   1.00
N230   N     0.72186   0.10157   0.09981   0.00000  Uiso   1.00
C231   C     0.49640   0.87288   0.07973   0.00000  Uiso   1.00
C232   C     0.55209   0.80076   0.04752   0.00000  Uiso   1.00
C233   C     0.58445   0.83155   0.99849   0.00000  Uiso   1.00
C234   C     0.63405   0.75371   0.97549   0.00000  Uiso   1.00
C235   C     0.71802   0.65769   0.92166   0.00000  Uiso   1.00
C236   C     0.53812   0.88240   0.13942   0.00000  Uiso   1.00
C237   C     0.55873   0.98183   0.16765   0.00000  Uiso   1.00
C238   C     0.59657   0.97270   0.22202   0.00000  Uiso   1.00
C239   C     0.65881   0.00343   0.31087   0.00000  Uiso   1.00
C240   C     0.41994   0.80322   0.08403   0.00000  Uiso   1.00
C241   C     0.34117   0.83609   0.06570   0.00000  Uiso   1.00
C242   C     0.27949   0.76031   0.07344   0.00000  Uiso   1.00
C243   C     0.15823   0.66811   0.07628   0.00000  Uiso   1.00
C244   C     0.52694   0.67988   0.12608   0.00000  Uiso   1.00
C245   C     0.56867   0.69593   0.07270   0.00000  Uiso   1.00
C246   C     0.61824   0.61802   0.04976   0.00000  Uiso   1.00
C247   C     0.65067   0.64868   0.00071   0.00000  Uiso   1.00
C248   C     0.55471   0.77757   0.16459   0.00000  Uiso   1.00
C249   C     0.59252   0.76830   0.21893   0.00000  Uiso   1.00
C250   C     0.61319   0.86768   0.24724   0.00000  Uiso   1.00
C251   C     0.43652   0.69839   0.10920   0.00000  Uiso   1.00
C252   C     0.37496   0.62255   0.11697   0.00000  Uiso   1.00
C253   C     0.29611   0.65529   0.09866   0.00000  Uiso   1.00
H254   H     0.48349   0.95449   0.06014   0.00000  Uiso   1.00
H255   H     0.57161   0.91269   0.97903   0.00000  Uiso   1.00
H256   H     0.54588   0.06294   0.14817   0.00000  Uiso   1.00
H257   H     0.32835   0.91721   0.04622   0.00000  Uiso   1.00
H258   H     0.67664   0.82012   0.90021   0.00000  Uiso   1.00
H259   H     0.62237   0.13693   0.25685   0.00000  Uiso   1.00
H260   H     0.16367   0.82966   0.04189   0.00000  Uiso   1.00
H261   H     0.53986   0.59826   0.14568   0.00000  Uiso   1.00
H262   H     0.63106   0.53690   0.06925   0.00000  Uiso   1.00
H263   H     0.60534   0.68716   0.23839   0.00000  Uiso   1.00
H264   H     0.38781   0.54144   0.13645   0.00000  Uiso   1.00
H265   H     0.72490   0.51512   0.97344   0.00000  Uiso   1.00
H266   H     0.67063   0.83194   0.33009   0.00000  Uiso   1.00
H267   H     0.21193   0.52466   0.11512   0.00000  Uiso   1.00
O268   O     0.75977   0.63370   0.88502   0.00000  Uiso   1.00
O269   O     0.68856   0.04935   0.35293   0.00000  Uiso   1.00
O270   O     0.08676   0.64621   0.07089   0.00000  Uiso   1.00
N271   N     0.67546   0.75675   0.92793   0.00000  Uiso   1.00
N272   N     0.62474   0.05295   0.26137   0.00000  Uiso   1.00
N273   N     0.19589   0.76569   0.06041   0.00000  Uiso   1.00
N274   N     0.70143   0.59263   0.96733   0.00000  Uiso   1.00
N275   N     0.65071   0.88884   0.30077   0.00000  Uiso   1.00
N276   N     0.22186   0.60157   0.09981   0.00000  Uiso   1.00
C277   C     0.00360   0.37288   0.42027   0.00000  Uiso   1.00
C278   C     0.94791   0.30076   0.45248   0.00000  Uiso   1.00
C279   C     0.91555   0.33155   0.50151   0.00000  Uiso   1.00
C280   C     0.86595   0.25371   0.52451   0.00000  Uiso   1.00
C281   C     0.78198   0.15769   0.57834   0.00000  Uiso   1.00
C282   C     0.96188   0.38240   0.36058   0.00000  Uiso   1.00
C283   C     0.94127   0.48183   0.33235   0.00000  Uiso   1.00
C284   C     0.90343   0.47270   0.27798   0.00000  Uiso   1.00
C285   C     0.84119   0.50343   0.18913   0.00000  Uiso   1.00
C286   C     0.08006   0.30322   0.41597   0.00000  Uiso   1.00
C287   C     0.15883   0.33609   0.43430   0.00000  Uiso   1.00
C288   C     0.22051   0.26031   0.42656   0.00000  Uiso   1.00
C289   C     0.34177   0.16811   0.42372   0.00000  Uiso   1.00
C290   C     0.97306   0.17988   0.37392   0.00000  Uiso   1.00
C291   C     0.93133   0.19593   0.42730   0.00000  Uiso   1.00
C292   C     0.88176   0.11802   0.45024   0.00000  Uiso   1.00
C293   C     0.84933   0.14868   0.49929   0.00000  Uiso   1.00
C294   C     0.94529   0.27757   0.33541   0.00000  Uiso   1.00
C295   C     0.90748   0.26830   0.28107   0.00000  Uiso   1.00
C296   C     0.88681   0.36768   0.25276   0.00000  Uiso   1.00
C297   C     0.06348   0.19839   0.39080   0.00000  Uiso   1.00
C298   C     0.12504   0.12255   0.38303   0.00000  Uiso   1.00
C299   C     0.20389   0.15529   0.40134   0.00000  Uiso   1.00
H300   H     0.01651   0.45449   0.43986   0.00000  Uiso   1.00
H301   H     0.92839   0.41269   0.52097   0.00000  Uiso   1.00
H302   H     0.95412   0.56294   0.35183   0.00000  Uiso   1.00
H303   H     0.17165   0.41721   0.45378   0.00000  Uiso   1.00
H304   H     0.82336   0.32012   0.59979   0.00000  Uiso   1.00
H305   H     0.87763   0.63693   0.24315   0.00000  Uiso   1.00
H306   H     0.33633   0.32966   0.45811   0.00000  Uiso   1.00
H307   H     0.96014   0.09826   0.35432   0.00000  Uiso   1.00
H308   H     0.86894   0.03690   0.43075   0.00000  Uiso   1.00
H309   H     0.89466   0.18716   0.26161   0.00000  Uiso   1.00
H310   H     0.11219   0.04144   0.36355   0.00000  Uiso   1.00
H311   H     0.77510   0.01512   0.52656   0.00000  Uiso   1.00
H312   H     0.82937   0.33194   0.16991   0.00000  Uiso   1.00
H313   H     0.28807   0.02466   0.38488   0.00000  Uiso   1.00
O314   O     0.74023   0.13370   0.61498   0.00000  Uiso   1.00
O315   O     0.81144   0.54935   0.14707   0.00000  Uiso   1.00
O316   O     0.41324   0.14621   0.42911   0.00000  Uiso   1.00
N317   N     0.82454   0.25675   0.57207   0.00000  Uiso   1.00
N318   N     0.87526   0.55295   0.23863   0.00000  Uiso   1.00
N319   N     0.30411   0.26569   0.43959   0.00000  Uiso   1.00
N320   N     0.79857   0.09263   0.53267   0.00000  Uiso   1.00
N321   N     0.84929   0.38884   0.19923   0.00000  Uiso   1.00
N322   N     0.27814   0.10157   0.40019   0.00000  Uiso   1.00
C323   C     0.50360   0.87288   0.42027   0.00000  Uiso   1.00
C324   C     0.44791   0.80076   0.45248   0.00000  Uiso   1.00
C325   C     0.41555   0.83155   0.50151   0.00000  Uiso   1.00
C326   C     0.36595   0.75371   0.52451   0.00000  Uiso   1.00
C327   C     0.28198   0.65769   0.57834   0.00000  Uiso   1.00
C328   C     0.46188   0.88240   0.36058   0.00000  Uiso   1.00
C329   C     0.44127   0.98183   0.33235   0.00000  Uiso   1.00
C330   C     0.40343   0.97270   0.27798   0.00000  Uiso   1.00
C331   C     0.34119   0.00343   0.18913   0.00000  Uiso   1.00
C332   C     0.58006   0.80322   0.41597   0.00000  Uiso   1.00
C333   C     0.65883   0.83609   0.43430   0.00000  Uiso   1.00
C334   C     0.72051   0.76031   0.42656   0.00000  Uiso   1.00
C335   C     0.84177   0.66811   0.42372   0.00000  Uiso   1.00
C336   C     0.47306   0.67988   0.37392   0.00000  Uiso   1.00
C337   C     0.43133   0.69593   0.42730   0.00000  Uiso   1.00
C338   C     0.38176   0.61802   0.45024   0.00000  Uiso   1.00
C339   C     0.34933   0.64868   0.49929   0.00000  Uiso   1.00
C340   C     0.44529   0.77757   0.33541   0.00000  Uiso   1.00
C341   C     0.40748   0.76830   0.28107   0.00000  Uiso   1.00
C342   C     0.38681   0.86768   0.25276   0.00000  Uiso   1.00
C343   C     0.56348   0.69839   0.39080   0.00000  Uiso   1.00
C344   C     0.62504   0.62255   0.38303   0.00000  Uiso   1.00
C345   C     0.70389   0.65529   0.40134   0.00000  Uiso   1.00
H346   H     0.51651   0.95449   0.43986   0.00000  Uiso   1.00
H347   H     0.42839   0.91269   0.52097   0.00000  Uiso   1.00
H348   H     0.45412   0.06294   0.35183   0.00000  Uiso   1.00
H349   H     0.67165   0.91721   0.45378   0.00000  Uiso   1.00
H350   H     0.32336   0.82012   0.59979   0.00000  Uiso   1.00
H351   H     0.37763   0.13693   0.24315   0.00000  Uiso   1.00
H352   H     0.83633   0.82966   0.45811   0.00000  Uiso   1.00
H353   H     0.46014   0.59826   0.35432   0.00000  Uiso   1.00
H354   H     0.36894   0.53690   0.43075   0.00000  Uiso   1.00
H355   H     0.39466   0.68716   0.26161   0.00000  Uiso   1.00
H356   H     0.61219   0.54144   0.36355   0.00000  Uiso   1.00
H357   H     0.27510   0.51512   0.52656   0.00000  Uiso   1.00
H358   H     0.32937   0.83194   0.16991   0.00000  Uiso   1.00
H359   H     0.78807   0.52466   0.38488   0.00000  Uiso   1.00
O360   O     0.24023   0.63370   0.61498   0.00000  Uiso   1.00
O361   O     0.31144   0.04935   0.14707   0.00000  Uiso   1.00
O362   O     0.91324   0.64621   0.42911   0.00000  Uiso   1.00
N363   N     0.32454   0.75675   0.57207   0.00000  Uiso   1.00
N364   N     0.37526   0.05295   0.23863   0.00000  Uiso   1.00
N365   N     0.80411   0.76569   0.43959   0.00000  Uiso   1.00
N366   N     0.29857   0.59263   0.53267   0.00000  Uiso   1.00
N367   N     0.34929   0.88884   0.19923   0.00000  Uiso   1.00
N368   N     0.77814   0.60157   0.40019   0.00000  Uiso   1.00
