data_job_06995
_audit_creation_date              2018-12-19
_audit_creation_method            'Materials Studio'
_symmetry_space_group_name_H-M    'P1'
_symmetry_Int_Tables_number       1
_symmetry_cell_setting            triclinic
loop_
_symmetry_equiv_pos_as_xyz
  x,y,z
_cell_length_a                    24.6321
_cell_length_b                    24.5414
_cell_length_c                    24.6551
_cell_angle_alpha                 107.7860
_cell_angle_beta                  106.7240
_cell_angle_gamma                 107.0640
loop_
_atom_site_label
_atom_site_type_symbol
_atom_site_fract_x
_atom_site_fract_y
_atom_site_fract_z
_atom_site_U_iso_or_equiv
_atom_site_adp_type
_atom_site_occupancy
C1     C     0.78393   0.86955   0.32586   0.00000  Uiso   1.00
C2     C     0.82379   0.94042   0.36009   0.00000  Uiso   1.00
C3     C     0.82065   0.98384   0.33548   0.00000  Uiso   1.00
C4     C     0.86109   0.04654   0.37429   0.00000  Uiso   1.00
C5     C     0.91660   0.15376   0.41811   0.00000  Uiso   1.00
C6     C     0.82959   0.83878   0.32833   0.00000  Uiso   1.00
C7     C     0.83132   0.79674   0.27702   0.00000  Uiso   1.00
C8     C     0.87663   0.77387   0.28910   0.00000  Uiso   1.00
C9     C     0.94111   0.72326   0.28362   0.00000  Uiso   1.00
C10    C     0.75146   0.85283   0.36640   0.00000  Uiso   1.00
C11    C     0.68749   0.82258   0.34710   0.00000  Uiso   1.00
C12    C     0.66702   0.81153   0.39123   0.00000  Uiso   1.00
C13    C     0.61020   0.78273   0.44486   0.00000  Uiso   1.00
C14    C     0.86131   0.90368   0.43855   0.00000  Uiso   1.00
C15    C     0.86582   0.95895   0.42129   0.00000  Uiso   1.00
C16    C     0.90626   0.02160   0.46016   0.00000  Uiso   1.00
C17    C     0.90319   0.06511   0.43561   0.00000  Uiso   1.00
C18    C     0.87162   0.85732   0.38953   0.00000  Uiso   1.00
C19    C     0.91693   0.83450   0.40170   0.00000  Uiso   1.00
C20    C     0.91873   0.79244   0.35042   0.00000  Uiso   1.00
C21    C     0.79348   0.87137   0.42761   0.00000  Uiso   1.00
C22    C     0.77311   0.86035   0.47178   0.00000  Uiso   1.00
C23    C     0.70913   0.83009   0.45255   0.00000  Uiso   1.00
H24    H     0.75122   0.85511   0.27821   0.00000  Uiso   1.00
H25    H     0.78813   0.96948   0.28810   0.00000  Uiso   1.00
H26    H     0.79879   0.78240   0.22966   0.00000  Uiso   1.00
H27    H     0.65499   0.80825   0.29973   0.00000  Uiso   1.00
H28    H     0.84760   0.10444   0.32606   0.00000  Uiso   1.00
H29    H     0.87006   0.70997   0.20282   0.00000  Uiso   1.00
H30    H     0.56683   0.76446   0.35058   0.00000  Uiso   1.00
H31    H     0.89404   0.91811   0.48621   0.00000  Uiso   1.00
H32    H     0.93878   0.03593   0.50752   0.00000  Uiso   1.00
H33    H     0.94944   0.84885   0.44907   0.00000  Uiso   1.00
H34    H     0.80564   0.87470   0.51914   0.00000  Uiso   1.00
H35    H     0.96988   0.15838   0.50415   0.00000  Uiso   1.00
H36    H     0.99234   0.76390   0.38091   0.00000  Uiso   1.00
H37    H     0.68911   0.81840   0.52867   0.00000  Uiso   1.00
O38    O     0.93562   0.20778   0.42537   0.00000  Uiso   1.00
O39    O     0.96508   0.69023   0.26368   0.00000  Uiso   1.00
O40    O     0.56724   0.76173   0.45753   0.00000  Uiso   1.00
N41    N     0.87023   0.10097   0.36505   0.00000  Uiso   1.00
N42    N     0.89124   0.73216   0.24983   0.00000  Uiso   1.00
N43    N     0.60774   0.78310   0.38797   0.00000  Uiso   1.00
N44    N     0.93603   0.12999   0.46088   0.00000  Uiso   1.00
N45    N     0.95704   0.76119   0.34566   0.00000  Uiso   1.00
N46    N     0.67354   0.81212   0.48379   0.00000  Uiso   1.00
C47    C     0.35078   0.73624   0.91448   0.00000  Uiso   1.00
C48    C     0.39932   0.77030   0.98216   0.00000  Uiso   1.00
C49    C     0.38725   0.77361   0.03442   0.00000  Uiso   1.00
C50    C     0.43802   0.80704   0.09226   0.00000  Uiso   1.00
C51    C     0.50416   0.85554   0.19654   0.00000  Uiso   1.00
C52    C     0.35755   0.78546   0.88827   0.00000  Uiso   1.00
C53    C     0.31036   0.80152   0.86159   0.00000  Uiso   1.00
C54    C     0.32597   0.84771   0.84039   0.00000  Uiso   1.00
C55    C     0.32725   0.91971   0.79887   0.00000  Uiso   1.00
C56    C     0.37197   0.68961   0.87973   0.00000  Uiso   1.00
C57    C     0.33690   0.62507   0.84584   0.00000  Uiso   1.00
C58    C     0.36465   0.59056   0.81744   0.00000  Uiso   1.00
C59    C     0.38833   0.51373   0.76265   0.00000  Uiso   1.00
C60    C     0.46241   0.78971   0.92427   0.00000  Uiso   1.00
C61    C     0.45995   0.79934   0.98747   0.00000  Uiso   1.00
C62    C     0.51075   0.83277   0.04525   0.00000  Uiso   1.00
C63    C     0.49876   0.83614   0.09759   0.00000  Uiso   1.00
C64    C     0.41818   0.81451   0.89359   0.00000  Uiso   1.00
C65    C     0.43386   0.86068   0.87242   0.00000  Uiso   1.00
C66    C     0.38671   0.87681   0.84572   0.00000  Uiso   1.00
C67    C     0.43260   0.71865   0.88504   0.00000  Uiso   1.00
C68    C     0.46041   0.68423   0.85668   0.00000  Uiso   1.00
C69    C     0.42539   0.61966   0.82277   0.00000  Uiso   1.00
H70    H     0.30358   0.71363   0.91034   0.00000  Uiso   1.00
H71    H     0.34032   0.75113   0.03029   0.00000  Uiso   1.00
H72    H     0.26344   0.77903   0.85748   0.00000  Uiso   1.00
H73    H     0.28999   0.60261   0.84174   0.00000  Uiso   1.00
H74    H     0.40780   0.80554   0.16561   0.00000  Uiso   1.00
H75    H     0.24569   0.86435   0.80122   0.00000  Uiso   1.00
H76    H     0.30166   0.49233   0.76803   0.00000  Uiso   1.00
H77    H     0.50961   0.81233   0.92841   0.00000  Uiso   1.00
H78    H     0.55767   0.85525   0.04935   0.00000  Uiso   1.00
H79    H     0.48079   0.88314   0.87654   0.00000  Uiso   1.00
H80    H     0.50733   0.70673   0.86080   0.00000  Uiso   1.00
H81    H     0.58420   0.89005   0.18109   0.00000  Uiso   1.00
H82    H     0.42209   0.94885   0.81669   0.00000  Uiso   1.00
H83    H     0.47806   0.57684   0.78351   0.00000  Uiso   1.00
O84    O     0.52389   0.87427   0.25258   0.00000  Uiso   1.00
O85    O     0.31121   0.95141   0.77450   0.00000  Uiso   1.00
O86    O     0.38464   0.46333   0.73097   0.00000  Uiso   1.00
N87    N     0.44272   0.81953   0.15266   0.00000  Uiso   1.00
N88    N     0.29116   0.87451   0.81198   0.00000  Uiso   1.00
N89    N     0.34348   0.52671   0.78094   0.00000  Uiso   1.00
N90    N     0.53764   0.86500   0.16098   0.00000  Uiso   1.00
N91    N     0.38608   0.91999   0.82030   0.00000  Uiso   1.00
N92    N     0.43840   0.57219   0.78926   0.00000  Uiso   1.00
C93    C     0.95201   0.31412   0.70677   0.00000  Uiso   1.00
C94    C     0.01896   0.36188   0.75044   0.00000  Uiso   1.00
C95    C     0.07172   0.34992   0.75838   0.00000  Uiso   1.00
C96    C     0.12874   0.39990   0.80055   0.00000  Uiso   1.00
C97    C     0.23208   0.46496   0.86337   0.00000  Uiso   1.00
C98    C     0.91597   0.31352   0.74773   0.00000  Uiso   1.00
C99    C     0.88213   0.26090   0.75336   0.00000  Uiso   1.00
C100   C     0.85245   0.27017   0.79324   0.00000  Uiso   1.00
C101   C     0.79585   0.26014   0.85180   0.00000  Uiso   1.00
C102   C     0.92620   0.34234   0.66380   0.00000  Uiso   1.00
C103   C     0.90096   0.31396   0.59887   0.00000  Uiso   1.00
C104   C     0.87988   0.34748   0.56810   0.00000  Uiso   1.00
C105   C     0.83918   0.38221   0.49635   0.00000  Uiso   1.00
C106   C     0.95945   0.42412   0.76756   0.00000  Uiso   1.00
C107   C     0.02300   0.42163   0.78346   0.00000  Uiso   1.00
C108   C     0.07996   0.47163   0.82563   0.00000  Uiso   1.00
C109   C     0.13280   0.45975   0.83363   0.00000  Uiso   1.00
C110   C     0.92001   0.37327   0.78074   0.00000  Uiso   1.00
C111   C     0.89037   0.38261   0.82062   0.00000  Uiso   1.00
C112   C     0.85650   0.33002   0.82632   0.00000  Uiso   1.00
C113   C     0.93025   0.40209   0.69682   0.00000  Uiso   1.00
C114   C     0.90920   0.43567   0.66613   0.00000  Uiso   1.00
C115   C     0.88393   0.40734   0.60118   0.00000  Uiso   1.00
H116   H     0.94886   0.26760   0.68106   0.00000  Uiso   1.00
H117   H     0.06857   0.30367   0.73282   0.00000  Uiso   1.00
H118   H     0.87900   0.21467   0.72780   0.00000  Uiso   1.00
H119   H     0.89783   0.26772   0.57334   0.00000  Uiso   1.00
H120   H     0.20308   0.37002   0.80478   0.00000  Uiso   1.00
H121   H     0.80334   0.18234   0.79418   0.00000  Uiso   1.00
H122   H     0.84305   0.29420   0.46847   0.00000  Uiso   1.00
H123   H     0.96260   0.47064   0.79327   0.00000  Uiso   1.00
H124   H     0.08307   0.51787   0.85118   0.00000  Uiso   1.00
H125   H     0.89350   0.42886   0.84616   0.00000  Uiso   1.00
H126   H     0.91234   0.48191   0.69170   0.00000  Uiso   1.00
H127   H     0.21485   0.54386   0.90085   0.00000  Uiso   1.00
H128   H     0.81511   0.35618   0.89025   0.00000  Uiso   1.00
H129   H     0.85482   0.46805   0.56453   0.00000  Uiso   1.00
O130   O     0.28796   0.48433   0.88890   0.00000  Uiso   1.00
O131   O     0.76352   0.23810   0.87499   0.00000  Uiso   1.00
O132   O     0.81562   0.38487   0.44766   0.00000  Uiso   1.00
N133   N     0.18931   0.40445   0.81943   0.00000  Uiso   1.00
N134   N     0.81560   0.22899   0.80953   0.00000  Uiso   1.00
N135   N     0.85270   0.33356   0.50501   0.00000  Uiso   1.00
N136   N     0.19565   0.49800   0.87113   0.00000  Uiso   1.00
N137   N     0.82193   0.32253   0.86122   0.00000  Uiso   1.00
N138   N     0.85904   0.42711   0.55671   0.00000  Uiso   1.00
C139   C     0.28975   0.78103   0.41229   0.00000  Uiso   1.00
C140   C     0.32572   0.83268   0.47900   0.00000  Uiso   1.00
C141   C     0.33109   0.82410   0.53308   0.00000  Uiso   1.00
C142   C     0.36604   0.87733   0.58962   0.00000  Uiso   1.00
C143   C     0.41758   0.94844   0.69286   0.00000  Uiso   1.00
C144   C     0.33651   0.78426   0.38280   0.00000  Uiso   1.00
C145   C     0.35095   0.73496   0.35598   0.00000  Uiso   1.00
C146   C     0.39498   0.74743   0.33152   0.00000  Uiso   1.00
C147   C     0.46324   0.74336   0.28536   0.00000  Uiso   1.00
C148   C     0.24303   0.80140   0.37798   0.00000  Uiso   1.00
C149   C     0.17886   0.76650   0.34711   0.00000  Uiso   1.00
C150   C     0.14419   0.79339   0.31859   0.00000  Uiso   1.00
C151   C     0.06729   0.81593   0.26495   0.00000  Uiso   1.00
C152   C     0.34228   0.89082   0.41654   0.00000  Uiso   1.00
C153   C     0.35425   0.89231   0.48131   0.00000  Uiso   1.00
C154   C     0.38920   0.94556   0.53778   0.00000  Uiso   1.00
C155   C     0.39462   0.93706   0.59193   0.00000  Uiso   1.00
C156   C     0.36505   0.84389   0.38510   0.00000  Uiso   1.00
C157   C     0.40906   0.85643   0.36068   0.00000  Uiso   1.00
C158   C     0.42356   0.80717   0.33383   0.00000  Uiso   1.00
C159   C     0.27156   0.86103   0.38029   0.00000  Uiso   1.00
C160   C     0.23698   0.88797   0.35181   0.00000  Uiso   1.00
C161   C     0.17277   0.85313   0.32090   0.00000  Uiso   1.00
H162   H     0.26754   0.73461   0.41049   0.00000  Uiso   1.00
H163   H     0.30901   0.77794   0.53128   0.00000  Uiso   1.00
H164   H     0.32886   0.68882   0.35419   0.00000  Uiso   1.00
H165   H     0.15680   0.72036   0.34533   0.00000  Uiso   1.00
H166   H     0.36758   0.85228   0.66620   0.00000  Uiso   1.00
H167   H     0.40942   0.66436   0.29280   0.00000  Uiso   1.00
H168   H     0.04660   0.73086   0.27410   0.00000  Uiso   1.00
H169   H     0.36450   0.93724   0.41833   0.00000  Uiso   1.00
H170   H     0.41128   0.99170   0.53955   0.00000  Uiso   1.00
H171   H     0.43113   0.90258   0.36247   0.00000  Uiso   1.00
H172   H     0.25907   0.93412   0.35361   0.00000  Uiso   1.00
H173   H     0.45059   0.02578   0.67292   0.00000  Uiso   1.00
H174   H     0.49243   0.83785   0.29951   0.00000  Uiso   1.00
H175   H     0.12961   0.90435   0.28082   0.00000  Uiso   1.00
O176   O     0.43813   0.97119   0.74916   0.00000  Uiso   1.00
O177   O     0.49301   0.72464   0.25926   0.00000  Uiso   1.00
O178   O     0.01700   0.81189   0.23474   0.00000  Uiso   1.00
N179   N     0.38068   0.88564   0.65115   0.00000  Uiso   1.00
N180   N     0.41981   0.70995   0.30205   0.00000  Uiso   1.00
N181   N     0.08060   0.77212   0.28455   0.00000  Uiso   1.00
N182   N     0.42535   0.97900   0.65477   0.00000  Uiso   1.00
N183   N     0.46447   0.80330   0.30566   0.00000  Uiso   1.00
N184   N     0.12527   0.86547   0.28817   0.00000  Uiso   1.00
C185   C     0.85316   0.39453   0.22300   0.00000  Uiso   1.00
C186   C     0.90228   0.46047   0.27012   0.00000  Uiso   1.00
C187   C     0.89246   0.51501   0.28498   0.00000  Uiso   1.00
C188   C     0.94339   0.57069   0.32930   0.00000  Uiso   1.00
C189   C     0.01073   0.67291   0.39818   0.00000  Uiso   1.00
C190   C     0.85201   0.35359   0.25874   0.00000  Uiso   1.00
C191   C     0.79993   0.31828   0.26402   0.00000  Uiso   1.00
C192   C     0.80855   0.28398   0.29876   0.00000  Uiso   1.00
C193   C     0.79784   0.22024   0.34992   0.00000  Uiso   1.00
C194   C     0.87914   0.37082   0.17598   0.00000  Uiso   1.00
C195   C     0.84986   0.34997   0.11166   0.00000  Uiso   1.00
C196   C     0.88130   0.33016   0.07671   0.00000  Uiso   1.00
C197   C     0.91271   0.29317   0.99937   0.00000  Uiso   1.00
C198   C     0.96106   0.39641   0.27530   0.00000  Uiso   1.00
C199   C     0.96088   0.46148   0.29853   0.00000  Uiso   1.00
C200   C     0.01183   0.51709   0.34284   0.00000  Uiso   1.00
C201   C     0.00210   0.57171   0.35776   0.00000  Uiso   1.00
C202   C     0.91061   0.35461   0.28715   0.00000  Uiso   1.00
C203   C     0.91930   0.32035   0.32188   0.00000  Uiso   1.00
C204   C     0.86725   0.28500   0.32722   0.00000  Uiso   1.00
C205   C     0.93774   0.37184   0.20438   0.00000  Uiso   1.00
C206   C     0.96923   0.35205   0.16953   0.00000  Uiso   1.00
C207   C     0.94001   0.33118   0.10517   0.00000  Uiso   1.00
H208   H     0.80754   0.39374   0.20088   0.00000  Uiso   1.00
H209   H     0.84710   0.51420   0.26299   0.00000  Uiso   1.00
H210   H     0.75459   0.31749   0.24203   0.00000  Uiso   1.00
H211   H     0.80451   0.34919   0.08969   0.00000  Uiso   1.00
H212   H     0.91681   0.64821   0.34439   0.00000  Uiso   1.00
H213   H     0.72173   0.23342   0.30017   0.00000  Uiso   1.00
H214   H     0.82700   0.30025   0.97895   0.00000  Uiso   1.00
H215   H     0.00668   0.39720   0.29742   0.00000  Uiso   1.00
H216   H     0.05718   0.51786   0.36482   0.00000  Uiso   1.00
H217   H     0.96466   0.32115   0.34386   0.00000  Uiso   1.00
H218   H     0.01458   0.35285   0.19153   0.00000  Uiso   1.00
H219   H     0.08731   0.65118   0.42704   0.00000  Uiso   1.00
H220   H     0.89223   0.23638   0.38282   0.00000  Uiso   1.00
H221   H     0.99750   0.30322   0.06160   0.00000  Uiso   1.00
O222   O     0.03168   0.72900   0.42833   0.00000  Uiso   1.00
O223   O     0.77574   0.18480   0.37030   0.00000  Uiso   1.00
O224   O     0.91385   0.27250   0.94887   0.00000  Uiso   1.00
N225   N     0.95001   0.63235   0.35458   0.00000  Uiso   1.00
N226   N     0.76762   0.24455   0.31325   0.00000  Uiso   1.00
N227   N     0.86603   0.30702   0.01293   0.00000  Uiso   1.00
N228   N     0.04176   0.63395   0.39906   0.00000  Uiso   1.00
N229   N     0.85937   0.24615   0.35772   0.00000  Uiso   1.00
N230   N     0.95778   0.30862   0.05740   0.00000  Uiso   1.00
C231   C     0.43958   0.22739   0.82573   0.00000  Uiso   1.00
C232   C     0.50939   0.26929   0.86096   0.00000  Uiso   1.00
C233   C     0.55453   0.26451   0.83904   0.00000  Uiso   1.00
C234   C     0.61584   0.30729   0.87836   0.00000  Uiso   1.00
C235   C     0.72186   0.36539   0.92406   0.00000  Uiso   1.00
C236   C     0.40766   0.27168   0.82241   0.00000  Uiso   1.00
C237   C     0.36726   0.26890   0.76808   0.00000  Uiso   1.00
C238   C     0.34293   0.31369   0.77495   0.00000  Uiso   1.00
C239   C     0.29098   0.37547   0.76080   0.00000  Uiso   1.00
C240   C     0.42130   0.19910   0.86837   0.00000  Uiso   1.00
C241   C     0.39236   0.13529   0.85269   0.00000  Uiso   1.00
C242   C     0.37949   0.11897   0.89825   0.00000  Uiso   1.00
C243   C     0.34872   0.06806   0.95547   0.00000  Uiso   1.00
C244   C     0.46818   0.31187   0.93452   0.00000  Uiso   1.00
C245   C     0.52492   0.31518   0.92005   0.00000  Uiso   1.00
C246   C     0.58617   0.35798   0.95941   0.00000  Uiso   1.00
C247   C     0.63140   0.35326   0.93756   0.00000  Uiso   1.00
C248   C     0.42319   0.31756   0.88150   0.00000  Uiso   1.00
C249   C     0.39890   0.36236   0.88845   0.00000  Uiso   1.00
C250   C     0.35849   0.35966   0.83414   0.00000  Uiso   1.00
C251   C     0.43683   0.24498   0.92747   0.00000  Uiso   1.00
C252   C     0.42400   0.22876   0.97306   0.00000  Uiso   1.00
C253   C     0.39505   0.16494   0.95745   0.00000  Uiso   1.00
H254   H     0.42749   0.19166   0.77972   0.00000  Uiso   1.00
H255   H     0.54249   0.22899   0.79331   0.00000  Uiso   1.00
H256   H     0.35525   0.23338   0.72236   0.00000  Uiso   1.00
H257   H     0.38035   0.09979   0.80696   0.00000  Uiso   1.00
H258   H     0.67684   0.29063   0.83442   0.00000  Uiso   1.00
H259   H     0.28202   0.29986   0.68482   0.00000  Uiso   1.00
H260   H     0.33493   0.01817   0.86321   0.00000  Uiso   1.00
H261   H     0.48027   0.34760   0.98053   0.00000  Uiso   1.00
H262   H     0.59818   0.39348   0.00514   0.00000  Uiso   1.00
H263   H     0.41093   0.39787   0.93418   0.00000  Uiso   1.00
H264   H     0.43603   0.26428   0.01878   0.00000  Uiso   1.00
H265   H     0.72204   0.42413   0.00634   0.00000  Uiso   1.00
H266   H     0.32720   0.43337   0.85674   0.00000  Uiso   1.00
H267   H     0.38012   0.15168   0.03514   0.00000  Uiso   1.00
O268   O     0.77605   0.38477   0.93294   0.00000  Uiso   1.00
O269   O     0.25804   0.39687   0.73667   0.00000  Uiso   1.00
O270   O     0.32747   0.02731   0.97071   0.00000  Uiso   1.00
N271   N     0.67130   0.31574   0.87151   0.00000  Uiso   1.00
N272   N     0.30217   0.32438   0.73164   0.00000  Uiso   1.00
N273   N     0.35162   0.06103   0.89842   0.00000  Uiso   1.00
N274   N     0.69562   0.38758   0.96402   0.00000  Uiso   1.00
N275   N     0.32649   0.39622   0.82415   0.00000  Uiso   1.00
N276   N     0.37594   0.13287   0.99093   0.00000  Uiso   1.00
C277   C     0.30597   0.05993   0.65684   0.00000  Uiso   1.00
C278   C     0.26808   0.99063   0.61118   0.00000  Uiso   1.00
C279   C     0.26441   0.93986   0.62603   0.00000  Uiso   1.00
C280   C     0.22722   0.88010   0.57761   0.00000  Uiso   1.00
C281   C     0.17327   0.77379   0.51601   0.00000  Uiso   1.00
C282   C     0.25982   0.09012   0.65266   0.00000  Uiso   1.00
C283   C     0.24922   0.12302   0.70238   0.00000  Uiso   1.00
C284   C     0.20508   0.14703   0.68887   0.00000  Uiso   1.00
C285   C     0.13835   0.19524   0.69167   0.00000  Uiso   1.00
C286   C     0.34921   0.08819   0.62967   0.00000  Uiso   1.00
C287   C     0.41378   0.11948   0.66006   0.00000  Uiso   1.00
C288   C     0.44489   0.14188   0.62721   0.00000  Uiso   1.00
C289   C     0.51696   0.18708   0.59431   0.00000  Uiso   1.00
C290   C     0.24644   0.04408   0.54446   0.00000  Uiso   1.00
C291   C     0.23574   0.98202   0.55014   0.00000  Uiso   1.00
C292   C     0.19854   0.92232   0.50169   0.00000  Uiso   1.00
C293   C     0.19482   0.87148   0.51646   0.00000  Uiso   1.00
C294   C     0.22749   0.08152   0.59162   0.00000  Uiso   1.00
C295   C     0.18335   0.10549   0.57804   0.00000  Uiso   1.00
C296   C     0.17268   0.13841   0.62772   0.00000  Uiso   1.00
C297   C     0.31688   0.07958   0.56862   0.00000  Uiso   1.00
C298   C     0.34790   0.10194   0.53572   0.00000  Uiso   1.00
C299   C     0.41250   0.13326   0.56605   0.00000  Uiso   1.00
H300   H     0.33115   0.06664   0.70436   0.00000  Uiso   1.00
H301   H     0.28944   0.94654   0.67327   0.00000  Uiso   1.00
H302   H     0.27426   0.12968   0.74961   0.00000  Uiso   1.00
H303   H     0.43878   0.12614   0.70730   0.00000  Uiso   1.00
H304   H     0.22892   0.80959   0.61189   0.00000  Uiso   1.00
H305   H     0.19692   0.19577   0.77285   0.00000  Uiso   1.00
H306   H     0.54386   0.18830   0.68363   0.00000  Uiso   1.00
H307   H     0.22126   0.03738   0.49693   0.00000  Uiso   1.00
H308   H     0.17352   0.91567   0.45445   0.00000  Uiso   1.00
H309   H     0.15834   0.09882   0.53079   0.00000  Uiso   1.00
H310   H     0.32287   0.09527   0.48848   0.00000  Uiso   1.00
H311   H     0.13484   0.78454   0.43429   0.00000  Uiso   1.00
H312   H     0.10284   0.17073   0.59526   0.00000  Uiso   1.00
H313   H     0.44977   0.16325   0.50603   0.00000  Uiso   1.00
O314   O     0.15244   0.71753   0.49889   0.00000  Uiso   1.00
O315   O     0.11047   0.22420   0.71008   0.00000  Uiso   1.00
O316   O     0.56564   0.21439   0.59302   0.00000  Uiso   1.00
N317   N     0.21334   0.82040   0.57592   0.00000  Uiso   1.00
N318   N     0.18341   0.18145   0.72641   0.00000  Uiso   1.00
N319   N     0.50777   0.17448   0.64300   0.00000  Uiso   1.00
N320   N     0.16271   0.80692   0.48035   0.00000  Uiso   1.00
N321   N     0.13279   0.16797   0.63084   0.00000  Uiso   1.00
N322   N     0.45714   0.16099   0.54743   0.00000  Uiso   1.00
C323   C     0.69199   0.24159   0.06946   0.00000  Uiso   1.00
C324   C     0.65066   0.20012   0.00006   0.00000  Uiso   1.00
C325   C     0.66751   0.20109   0.95117   0.00000  Uiso   1.00
C326   C     0.62304   0.15945   0.89097   0.00000  Uiso   1.00
C327   C     0.56788   0.10128   0.78486   0.00000  Uiso   1.00
C328   C     0.69481   0.19670   0.10034   0.00000  Uiso   1.00
C329   C     0.74880   0.19479   0.13576   0.00000  Uiso   1.00
C330   C     0.74150   0.15027   0.15998   0.00000  Uiso   1.00
C331   C     0.75490   0.08681   0.20959   0.00000  Uiso   1.00
C332   C     0.65584   0.27611   0.09431   0.00000  Uiso   1.00
C333   C     0.67705   0.34097   0.12468   0.00000  Uiso   1.00
C334   C     0.63695   0.36331   0.14384   0.00000  Uiso   1.00
C335   C     0.58983   0.42316   0.18409   0.00000  Uiso   1.00
C336   C     0.58305   0.16594   0.04951   0.00000  Uiso   1.00
C337   C     0.59149   0.15903   0.98923   0.00000  Uiso   1.00
C338   C     0.54699   0.11738   0.92909   0.00000  Uiso   1.00
C339   C     0.56377   0.11828   0.88011   0.00000  Uiso   1.00
C340   C     0.63565   0.15560   0.08950   0.00000  Uiso   1.00
C341   C     0.62827   0.11108   0.11368   0.00000  Uiso   1.00
C342   C     0.68223   0.10910   0.14912   0.00000  Uiso   1.00
C343   C     0.59667   0.23502   0.08347   0.00000  Uiso   1.00
C344   C     0.55653   0.25726   0.10260   0.00000  Uiso   1.00
C345   C     0.57767   0.32215   0.13299   0.00000  Uiso   1.00
H346   H     0.73805   0.27359   0.07790   0.00000  Uiso   1.00
H347   H     0.71330   0.23289   0.95957   0.00000  Uiso   1.00
H348   H     0.79458   0.22660   0.14414   0.00000  Uiso   1.00
H349   H     0.72284   0.37276   0.13306   0.00000  Uiso   1.00
H350   H     0.65978   0.16963   0.82361   0.00000  Uiso   1.00
H351   H     0.83115   0.15638   0.21279   0.00000  Uiso   1.00
H352   H     0.67989   0.46459   0.18943   0.00000  Uiso   1.00
H353   H     0.53699   0.13394   0.04107   0.00000  Uiso   1.00
H354   H     0.50120   0.08558   0.92072   0.00000  Uiso   1.00
H355   H     0.58248   0.07929   0.10529   0.00000  Uiso   1.00
H356   H     0.51074   0.22545   0.09420   0.00000  Uiso   1.00
H357   H     0.48763   0.05007   0.79207   0.00000  Uiso   1.00
H358   H     0.65901   0.03681   0.18126   0.00000  Uiso   1.00
H359   H     0.50774   0.34502   0.15789   0.00000  Uiso   1.00
O360   O     0.55380   0.08055   0.72933   0.00000  Uiso   1.00
O361   O     0.77864   0.06316   0.23994   0.00000  Uiso   1.00
O362   O     0.58018   0.46753   0.20928   0.00000  Uiso   1.00
N363   N     0.62417   0.14814   0.83270   0.00000  Uiso   1.00
N364   N     0.78439   0.13574   0.19656   0.00000  Uiso   1.00
N365   N     0.64298   0.42389   0.17473   0.00000  Uiso   1.00
N366   N     0.53154   0.08380   0.81573   0.00000  Uiso   1.00
N367   N     0.69176   0.07140   0.17959   0.00000  Uiso   1.00
N368   N     0.55035   0.35955   0.15776   0.00000  Uiso   1.00
C369   C     0.10884   0.54476   0.21639   0.00000  Uiso   1.00
C370   C     0.04124   0.52455   0.17319   0.00000  Uiso   1.00
C371   C     0.99784   0.54133   0.19110   0.00000  Uiso   1.00
C372   C     0.93841   0.51800   0.14456   0.00000  Uiso   1.00
C373   C     0.83579   0.49253   0.08693   0.00000  Uiso   1.00
C374   C     0.14872   0.57678   0.18842   0.00000  Uiso   1.00
C375   C     0.19571   0.63747   0.21915   0.00000  Uiso   1.00
C376   C     0.22676   0.65809   0.18544   0.00000  Uiso   1.00
C377   C     0.29104   0.71370   0.15149   0.00000  Uiso   1.00
C378   C     0.11712   0.48410   0.20909   0.00000  Uiso   1.00
C379   C     0.13755   0.46688   0.25719   0.00000  Uiso   1.00
C380   C     0.14200   0.40948   0.24087   0.00000  Uiso   1.00
C381   C     0.15722   0.32120   0.23900   0.00000  Uiso   1.00
C382   C     0.08045   0.47347   0.10189   0.00000  Uiso   1.00
C383   C     0.02582   0.48583   0.11099   0.00000  Uiso   1.00
C384   C     0.96643   0.46246   0.06442   0.00000  Uiso   1.00
C385   C     0.92296   0.47921   0.08225   0.00000  Uiso   1.00
C386   C     0.13330   0.53806   0.12624   0.00000  Uiso   1.00
C387   C     0.16429   0.55860   0.09247   0.00000  Uiso   1.00
C388   C     0.21131   0.61930   0.12314   0.00000  Uiso   1.00
C389   C     0.10170   0.44538   0.14690   0.00000  Uiso   1.00
C390   C     0.10613   0.38801   0.13051   0.00000  Uiso   1.00
C391   C     0.12656   0.37070   0.17857   0.00000  Uiso   1.00
H392   H     0.12085   0.57490   0.26481   0.00000  Uiso   1.00
H393   H     0.00980   0.57130   0.23923   0.00000  Uiso   1.00
H394   H     0.20763   0.66742   0.26728   0.00000  Uiso   1.00
H395   H     0.14947   0.49685   0.30531   0.00000  Uiso   1.00
H396   H     0.87988   0.55025   0.18344   0.00000  Uiso   1.00
H397   H     0.29704   0.75291   0.24260   0.00000  Uiso   1.00
H398   H     0.17441   0.39324   0.32279   0.00000  Uiso   1.00
H399   H     0.06845   0.44333   0.05347   0.00000  Uiso   1.00
H400   H     0.95451   0.43250   0.01629   0.00000  Uiso   1.00
H401   H     0.15235   0.52862   0.04435   0.00000  Uiso   1.00
H402   H     0.09419   0.35806   0.08237   0.00000  Uiso   1.00
H403   H     0.83501   0.43760   0.00250   0.00000  Uiso   1.00
H404   H     0.25217   0.64026   0.06165   0.00000  Uiso   1.00
H405   H     0.12954   0.28059   0.14184   0.00000  Uiso   1.00
O406   O     0.78345   0.48919   0.07232   0.00000  Uiso   1.00
O407   O     0.33075   0.75507   0.14994   0.00000  Uiso   1.00
O408   O     0.16986   0.28319   0.25515   0.00000  Uiso   1.00
N409   N     0.88495   0.52521   0.14596   0.00000  Uiso   1.00
N410   N     0.27496   0.71469   0.20126   0.00000  Uiso   1.00
N411   N     0.16033   0.37844   0.27624   0.00000  Uiso   1.00
N412   N     0.86081   0.46459   0.04860   0.00000  Uiso   1.00
N413   N     0.25082   0.65407   0.10390   0.00000  Uiso   1.00
N414   N     0.13619   0.31782   0.17887   0.00000  Uiso   1.00
C415   C     0.80771   0.13742   0.57043   0.00000  Uiso   1.00
C416   C     0.76699   0.09073   0.50221   0.00000  Uiso   1.00
C417   C     0.76449   0.10327   0.45056   0.00000  Uiso   1.00
C418   C     0.72425   0.05426   0.39205   0.00000  Uiso   1.00
C419   C     0.66654   0.99080   0.28712   0.00000  Uiso   1.00
C420   C     0.76333   0.13972   0.60242   0.00000  Uiso   1.00
C421   C     0.75777   0.19345   0.63504   0.00000  Uiso   1.00
C422   C     0.71445   0.18567   0.66090   0.00000  Uiso   1.00
C423   C     0.65109   0.19827   0.71159   0.00000  Uiso   1.00
C424   C     0.84686   0.10688   0.59840   0.00000  Uiso   1.00
C425   C     0.91154   0.13301   0.62766   0.00000  Uiso   1.00
C426   C     0.93856   0.09759   0.65015   0.00000  Uiso   1.00
C427   C     0.00491   0.05921   0.69459   0.00000  Uiso   1.00
C428   C     0.74068   0.02806   0.55838   0.00000  Uiso   1.00
C429   C     0.73058   0.03133   0.49566   0.00000  Uiso   1.00
C430   C     0.69034   0.98227   0.43722   0.00000  Uiso   1.00
C431   C     0.68778   0.99474   0.38549   0.00000  Uiso   1.00
C432   C     0.72692   0.08032   0.59588   0.00000  Uiso   1.00
C433   C     0.68361   0.07245   0.62170   0.00000  Uiso   1.00
C434   C     0.67798   0.12616   0.65434   0.00000  Uiso   1.00
C435   C     0.81046   0.04748   0.59186   0.00000  Uiso   1.00
C436   C     0.83738   0.01201   0.61431   0.00000  Uiso   1.00
C437   C     0.90209   0.03808   0.64359   0.00000  Uiso   1.00
H438   H     0.83605   0.18367   0.57553   0.00000  Uiso   1.00
H439   H     0.79267   0.14926   0.45564   0.00000  Uiso   1.00
H440   H     0.78595   0.23942   0.64010   0.00000  Uiso   1.00
H441   H     0.93970   0.17898   0.63271   0.00000  Uiso   1.00
H442   H     0.72850   0.08490   0.31984   0.00000  Uiso   1.00
H443   H     0.71435   0.27502   0.70880   0.00000  Uiso   1.00
H444   H     0.03856   0.14759   0.69322   0.00000  Uiso   1.00
H445   H     0.71233   0.98181   0.55328   0.00000  Uiso   1.00
H446   H     0.66217   0.93631   0.43217   0.00000  Uiso   1.00
H447   H     0.65545   0.02648   0.61663   0.00000  Uiso   1.00
H448   H     0.80920   0.96604   0.60924   0.00000  Uiso   1.00
H449   H     0.62258   0.91207   0.30079   0.00000  Uiso   1.00
H450   H     0.60843   0.10219   0.68975   0.00000  Uiso   1.00
H451   H     0.93264   0.97475   0.67417   0.00000  Uiso   1.00
O452   O     0.64476   0.97221   0.23104   0.00000  Uiso   1.00
O453   O     0.62620   0.22164   0.74135   0.00000  Uiso   1.00
O454   O     0.05156   0.05444   0.72091   0.00000  Uiso   1.00
N455   N     0.71047   0.05047   0.33198   0.00000  Uiso   1.00
N456   N     0.69723   0.22822   0.69562   0.00000  Uiso   1.00
N457   N     0.00034   0.10908   0.68107   0.00000  Uiso   1.00
N458   N     0.65347   0.95747   0.32172   0.00000  Uiso   1.00
N459   N     0.64023   0.13522   0.68537   0.00000  Uiso   1.00
N460   N     0.94335   0.01608   0.67082   0.00000  Uiso   1.00
C461   C     0.24792   0.52282   0.59862   0.00000  Uiso   1.00
C462   C     0.19639   0.45884   0.57910   0.00000  Uiso   1.00
C463   C     0.19974   0.41887   0.60817   0.00000  Uiso   1.00
C464   C     0.14762   0.36241   0.58320   0.00000  Uiso   1.00
C465   C     0.07576   0.26545   0.56081   0.00000  Uiso   1.00
C466   C     0.26071   0.51952   0.54101   0.00000  Uiso   1.00
C467   C     0.31814   0.53058   0.53807   0.00000  Uiso   1.00
C468   C     0.32016   0.52520   0.48103   0.00000  Uiso   1.00
C469   C     0.34816   0.52250   0.39952   0.00000  Uiso   1.00
C470   C     0.21913   0.57009   0.60992   0.00000  Uiso   1.00
C471   C     0.24162   0.62369   0.66492   0.00000  Uiso   1.00
C472   C     0.20864   0.66090   0.66590   0.00000  Uiso   1.00
C473   C     0.17209   0.73673   0.69138   0.00000  Uiso   1.00
C474   C     0.14938   0.49362   0.50257   0.00000  Uiso   1.00
C475   C     0.14287   0.44297   0.52692   0.00000  Uiso   1.00
C476   C     0.09072   0.38656   0.50190   0.00000  Uiso   1.00
C477   C     0.09399   0.34651   0.53094   0.00000  Uiso   1.00
C478   C     0.20719   0.50365   0.48884   0.00000  Uiso   1.00
C479   C     0.20912   0.49827   0.43180   0.00000  Uiso   1.00
C480   C     0.26654   0.50931   0.42877   0.00000  Uiso   1.00
C481   C     0.16561   0.55423   0.55775   0.00000  Uiso   1.00
C482   C     0.13259   0.59137   0.55865   0.00000  Uiso   1.00
C483   C     0.15502   0.64501   0.61363   0.00000  Uiso   1.00
H484   H     0.28959   0.53517   0.63923   0.00000  Uiso   1.00
H485   H     0.24118   0.43116   0.64854   0.00000  Uiso   1.00
H486   H     0.35956   0.54286   0.57845   0.00000  Uiso   1.00
H487   H     0.28304   0.63595   0.70528   0.00000  Uiso   1.00
H488   H     0.16390   0.30884   0.63585   0.00000  Uiso   1.00
H489   H     0.41352   0.54438   0.48805   0.00000  Uiso   1.00
H490   H     0.25217   0.74068   0.75550   0.00000  Uiso   1.00
H491   H     0.10770   0.48126   0.46194   0.00000  Uiso   1.00
H492   H     0.04930   0.37429   0.46153   0.00000  Uiso   1.00
H493   H     0.16769   0.48599   0.39143   0.00000  Uiso   1.00
H494   H     0.09117   0.57908   0.51826   0.00000  Uiso   1.00
H495   H     0.00817   0.26268   0.48406   0.00000  Uiso   1.00
H496   H     0.25779   0.49823   0.33626   0.00000  Uiso   1.00
H497   H     0.09644   0.69452   0.60371   0.00000  Uiso   1.00
O498   O     0.05091   0.21636   0.56286   0.00000  Uiso   1.00
O499   O     0.37840   0.52539   0.36897   0.00000  Uiso   1.00
O500   O     0.16671   0.78293   0.71985   0.00000  Uiso   1.00
N501   N     0.13526   0.31266   0.60019   0.00000  Uiso   1.00
N502   N     0.36864   0.53287   0.46201   0.00000  Uiso   1.00
N503   N     0.21780   0.71640   0.71204   0.00000  Uiso   1.00
N504   N     0.05146   0.28783   0.51851   0.00000  Uiso   1.00
N505   N     0.28484   0.50803   0.38033   0.00000  Uiso   1.00
N506   N     0.13400   0.69157   0.63037   0.00000  Uiso   1.00
C507   C     0.61972   0.74392   0.15498   0.00000  Uiso   1.00
C508   C     0.55107   0.70697   0.10957   0.00000  Uiso   1.00
C509   C     0.50076   0.70571   0.12467   0.00000  Uiso   1.00
C510   C     0.44158   0.66900   0.07645   0.00000  Uiso   1.00
C511   C     0.33628   0.61680   0.01523   0.00000  Uiso   1.00
C512   C     0.64773   0.69581   0.15071   0.00000  Uiso   1.00
C513   C     0.67870   0.68517   0.20042   0.00000  Uiso   1.00
C514   C     0.70089   0.63908   0.18683   0.00000  Uiso   1.00
C515   C     0.74570   0.56958   0.18950   0.00000  Uiso   1.00
C516   C     0.64964   0.78585   0.12757   0.00000  Uiso   1.00
C517   C     0.68223   0.85092   0.15782   0.00000  Uiso   1.00
C518   C     0.70604   0.88062   0.12475   0.00000  Uiso   1.00
C519   C     0.75381   0.95093   0.09149   0.00000  Uiso   1.00
C520   C     0.60409   0.68098   0.04247   0.00000  Uiso   1.00
C521   C     0.54259   0.67278   0.04846   0.00000  Uiso   1.00
C522   C     0.48347   0.63607   0.00020   0.00000  Uiso   1.00
C523   C     0.43307   0.63475   0.01523   0.00000  Uiso   1.00
C524   C     0.63925   0.66162   0.08961   0.00000  Uiso   1.00
C525   C     0.66141   0.61554   0.07594   0.00000  Uiso   1.00
C526   C     0.69239   0.60483   0.12561   0.00000  Uiso   1.00
C527   C     0.64115   0.75166   0.06646   0.00000  Uiso   1.00
C528   C     0.66493   0.78128   0.03334   0.00000  Uiso   1.00
C529   C     0.69754   0.84638   0.06353   0.00000  Uiso   1.00
H530   H     0.62633   0.77054   0.20256   0.00000  Uiso   1.00
H531   H     0.50735   0.73216   0.17197   0.00000  Uiso   1.00
H532   H     0.68526   0.71164   0.24771   0.00000  Uiso   1.00
H533   H     0.68879   0.87735   0.20511   0.00000  Uiso   1.00
H534   H     0.37169   0.67453   0.11112   0.00000  Uiso   1.00
H535   H     0.74685   0.63127   0.27081   0.00000  Uiso   1.00
H536   H     0.75429   0.98071   0.18099   0.00000  Uiso   1.00
H537   H     0.59749   0.65436   0.99490   0.00000  Uiso   1.00
H538   H     0.47691   0.60962   0.95291   0.00000  Uiso   1.00
H539   H     0.65483   0.58909   0.02865   0.00000  Uiso   1.00
H540   H     0.65835   0.75481   0.98605   0.00000  Uiso   1.00
H541   H     0.34699   0.57506   0.93332   0.00000  Uiso   1.00
H542   H     0.72216   0.53180   0.09301   0.00000  Uiso   1.00
H543   H     0.72958   0.88124   0.00319   0.00000  Uiso   1.00
O544   O     0.28054   0.59744   0.99835   0.00000  Uiso   1.00
O545   O     0.77276   0.54069   0.20786   0.00000  Uiso   1.00
O546   O     0.78250   0.99915   0.09002   0.00000  Uiso   1.00
N547   N     0.38242   0.65727   0.07503   0.00000  Uiso   1.00
N548   N     0.73317   0.61682   0.22433   0.00000  Uiso   1.00
N549   N     0.74013   0.94351   0.14037   0.00000  Uiso   1.00
N550   N     0.36913   0.60375   0.97936   0.00000  Uiso   1.00
N551   N     0.71988   0.56329   0.12866   0.00000  Uiso   1.00
N552   N     0.72684   0.88999   0.04469   0.00000  Uiso   1.00
