data_job_04053
_audit_creation_date              2018-12-19
_audit_creation_method            'Materials Studio'
_symmetry_space_group_name_H-M    'P1'
_symmetry_Int_Tables_number       1
_symmetry_cell_setting            triclinic
loop_
_symmetry_equiv_pos_as_xyz
  x,y,z
_cell_length_a                    12.1223
_cell_length_b                    20.4042
_cell_length_c                    12.0871
_cell_angle_alpha                 90.0000
_cell_angle_beta                  68.3975
_cell_angle_gamma                 90.0000
loop_
_atom_site_label
_atom_site_type_symbol
_atom_site_fract_x
_atom_site_fract_y
_atom_site_fract_z
_atom_site_U_iso_or_equiv
_atom_site_adp_type
_atom_site_occupancy
C1     C     0.35569   0.95225   0.21312   0.00000  Uiso   1.00
C2     C     0.27928   0.98626   0.15448   0.00000  Uiso   1.00
C3     C     0.31695   0.00616   0.03655   0.00000  Uiso   1.00
C4     C     0.23353   0.03643   0.00005   0.00000  Uiso   1.00
C5     C     0.13267   0.08776   0.89704   0.00000  Uiso   1.00
C6     C     0.34827   0.99468   0.31950   0.00000  Uiso   1.00
C7     C     0.44396   0.02163   0.34031   0.00000  Uiso   1.00
C8     C     0.41860   0.05898   0.44273   0.00000  Uiso   1.00
C9     C     0.42487   0.12332   0.59595   0.00000  Uiso   1.00
C10    C     0.29207   0.88843   0.26469   0.00000  Uiso   1.00
C11    C     0.34051   0.82605   0.23945   0.00000  Uiso   1.00
C12    C     0.26784   0.77394   0.29576   0.00000  Uiso   1.00
C13    C     0.18685   0.67332   0.36388   0.00000  Uiso   1.00
C14    C     0.14052   0.97065   0.35802   0.00000  Uiso   1.00
C15    C     0.16241   0.99626   0.23319   0.00000  Uiso   1.00
C16    C     0.07890   0.02651   0.19686   0.00000  Uiso   1.00
C17    C     0.11644   0.04644   0.07889   0.00000  Uiso   1.00
C18    C     0.23141   0.00467   0.39820   0.00000  Uiso   1.00
C19    C     0.20590   0.04198   0.50062   0.00000  Uiso   1.00
C20    C     0.30152   0.06899   0.52158   0.00000  Uiso   1.00
C21    C     0.17520   0.89842   0.34339   0.00000  Uiso   1.00
C22    C     0.10245   0.84640   0.39976   0.00000  Uiso   1.00
C23    C     0.15077   0.78395   0.37460   0.00000  Uiso   1.00
H24    H     0.44667   0.94447   0.15186   0.00000  Uiso   1.00
H25    H     0.40741   0.99842   0.97567   0.00000  Uiso   1.00
H26    H     0.53439   0.01388   0.27939   0.00000  Uiso   1.00
H27    H     0.43095   0.81833   0.17854   0.00000  Uiso   1.00
H28    H     0.31234   0.06266   0.81506   0.00000  Uiso   1.00
H29    H     0.58009   0.09525   0.45549   0.00000  Uiso   1.00
H30    H     0.36198   0.68289   0.24283   0.00000  Uiso   1.00
H31    H     0.04953   0.97843   0.41930   0.00000  Uiso   1.00
H32    H     0.98847   0.03424   0.25778   0.00000  Uiso   1.00
H33    H     0.11545   0.04970   0.56150   0.00000  Uiso   1.00
H34    H     0.01202   0.85415   0.46065   0.00000  Uiso   1.00
H35    H     0.97232   0.09173   0.04403   0.00000  Uiso   1.00
H36    H     0.24007   0.12432   0.68447   0.00000  Uiso   1.00
H37    H     0.02195   0.71196   0.47181   0.00000  Uiso   1.00
O38    O     0.10934   0.11331   0.81848   0.00000  Uiso   1.00
O39    O     0.46062   0.15606   0.65871   0.00000  Uiso   1.00
O40    O     0.17445   0.61506   0.37971   0.00000  Uiso   1.00
N41    N     0.24069   0.06183   0.89111   0.00000  Uiso   1.00
N42    N     0.49102   0.09231   0.48986   0.00000  Uiso   1.00
N43    N     0.28711   0.70679   0.29107   0.00000  Uiso   1.00
N44    N     0.05773   0.07747   0.01432   0.00000  Uiso   1.00
N45    N     0.30806   0.10795   0.61307   0.00000  Uiso   1.00
N46    N     0.10415   0.72243   0.41428   0.00000  Uiso   1.00
C47    C     0.64431   0.45225   0.28688   0.00000  Uiso   1.00
C48    C     0.72072   0.48626   0.34552   0.00000  Uiso   1.00
C49    C     0.68305   0.50616   0.46345   0.00000  Uiso   1.00
C50    C     0.76647   0.53643   0.49995   0.00000  Uiso   1.00
C51    C     0.86733   0.58776   0.60296   0.00000  Uiso   1.00
C52    C     0.65173   0.49468   0.18050   0.00000  Uiso   1.00
C53    C     0.55604   0.52163   0.15969   0.00000  Uiso   1.00
C54    C     0.58140   0.55898   0.05727   0.00000  Uiso   1.00
C55    C     0.57513   0.62332   0.90405   0.00000  Uiso   1.00
C56    C     0.70793   0.38843   0.23531   0.00000  Uiso   1.00
C57    C     0.65949   0.32605   0.26055   0.00000  Uiso   1.00
C58    C     0.73216   0.27394   0.20424   0.00000  Uiso   1.00
C59    C     0.81315   0.17332   0.13612   0.00000  Uiso   1.00
C60    C     0.85948   0.47065   0.14198   0.00000  Uiso   1.00
C61    C     0.83759   0.49626   0.26681   0.00000  Uiso   1.00
C62    C     0.92110   0.52651   0.30314   0.00000  Uiso   1.00
C63    C     0.88356   0.54644   0.42111   0.00000  Uiso   1.00
C64    C     0.76859   0.50467   0.10180   0.00000  Uiso   1.00
C65    C     0.79410   0.54198   0.99938   0.00000  Uiso   1.00
C66    C     0.69848   0.56899   0.97842   0.00000  Uiso   1.00
C67    C     0.82480   0.39842   0.15661   0.00000  Uiso   1.00
C68    C     0.89755   0.34640   0.10024   0.00000  Uiso   1.00
C69    C     0.84923   0.28395   0.12540   0.00000  Uiso   1.00
H70    H     0.55333   0.44447   0.34814   0.00000  Uiso   1.00
H71    H     0.59259   0.49842   0.52433   0.00000  Uiso   1.00
H72    H     0.46561   0.51388   0.22061   0.00000  Uiso   1.00
H73    H     0.56905   0.31833   0.32146   0.00000  Uiso   1.00
H74    H     0.68766   0.56266   0.68494   0.00000  Uiso   1.00
H75    H     0.41991   0.59525   0.04451   0.00000  Uiso   1.00
H76    H     0.63802   0.18289   0.25717   0.00000  Uiso   1.00
H77    H     0.95047   0.47843   0.08070   0.00000  Uiso   1.00
H78    H     0.01153   0.53424   0.24222   0.00000  Uiso   1.00
H79    H     0.88455   0.54970   0.93850   0.00000  Uiso   1.00
H80    H     0.98798   0.35415   0.03935   0.00000  Uiso   1.00
H81    H     0.02768   0.59173   0.45597   0.00000  Uiso   1.00
H82    H     0.75993   0.62432   0.81553   0.00000  Uiso   1.00
H83    H     0.97805   0.21196   0.02819   0.00000  Uiso   1.00
O84    O     0.89066   0.61331   0.68152   0.00000  Uiso   1.00
O85    O     0.53938   0.65606   0.84129   0.00000  Uiso   1.00
O86    O     0.82555   0.11506   0.12029   0.00000  Uiso   1.00
N87    N     0.75931   0.56183   0.60889   0.00000  Uiso   1.00
N88    N     0.50898   0.59231   0.01014   0.00000  Uiso   1.00
N89    N     0.71289   0.20679   0.20893   0.00000  Uiso   1.00
N90    N     0.94227   0.57747   0.48568   0.00000  Uiso   1.00
N91    N     0.69194   0.60795   0.88693   0.00000  Uiso   1.00
N92    N     0.89585   0.22243   0.08572   0.00000  Uiso   1.00
C93    C     0.64431   0.04775   0.78688   0.00000  Uiso   1.00
C94    C     0.72072   0.01374   0.84552   0.00000  Uiso   1.00
C95    C     0.68305   0.99384   0.96345   0.00000  Uiso   1.00
C96    C     0.76647   0.96357   0.99995   0.00000  Uiso   1.00
C97    C     0.86733   0.91224   0.10296   0.00000  Uiso   1.00
C98    C     0.65173   0.00532   0.68050   0.00000  Uiso   1.00
C99    C     0.55604   0.97837   0.65969   0.00000  Uiso   1.00
C100   C     0.58140   0.94102   0.55727   0.00000  Uiso   1.00
C101   C     0.57513   0.87668   0.40405   0.00000  Uiso   1.00
C102   C     0.70793   0.11157   0.73531   0.00000  Uiso   1.00
C103   C     0.65949   0.17395   0.76055   0.00000  Uiso   1.00
C104   C     0.73216   0.22606   0.70424   0.00000  Uiso   1.00
C105   C     0.81315   0.32668   0.63612   0.00000  Uiso   1.00
C106   C     0.85948   0.02935   0.64198   0.00000  Uiso   1.00
C107   C     0.83759   0.00374   0.76681   0.00000  Uiso   1.00
C108   C     0.92110   0.97349   0.80314   0.00000  Uiso   1.00
C109   C     0.88356   0.95356   0.92111   0.00000  Uiso   1.00
C110   C     0.76859   0.99533   0.60180   0.00000  Uiso   1.00
C111   C     0.79410   0.95802   0.49938   0.00000  Uiso   1.00
C112   C     0.69848   0.93101   0.47842   0.00000  Uiso   1.00
C113   C     0.82480   0.10158   0.65661   0.00000  Uiso   1.00
C114   C     0.89755   0.15360   0.60024   0.00000  Uiso   1.00
C115   C     0.84923   0.21605   0.62540   0.00000  Uiso   1.00
H116   H     0.55333   0.05553   0.84814   0.00000  Uiso   1.00
H117   H     0.59259   0.00158   0.02433   0.00000  Uiso   1.00
H118   H     0.46561   0.98612   0.72061   0.00000  Uiso   1.00
H119   H     0.56905   0.18167   0.82146   0.00000  Uiso   1.00
H120   H     0.68766   0.93734   0.18494   0.00000  Uiso   1.00
H121   H     0.41991   0.90475   0.54451   0.00000  Uiso   1.00
H122   H     0.63802   0.31711   0.75717   0.00000  Uiso   1.00
H123   H     0.95047   0.02157   0.58070   0.00000  Uiso   1.00
H124   H     0.01153   0.96576   0.74222   0.00000  Uiso   1.00
H125   H     0.88455   0.95030   0.43850   0.00000  Uiso   1.00
H126   H     0.98798   0.14585   0.53935   0.00000  Uiso   1.00
H127   H     0.02768   0.90827   0.95597   0.00000  Uiso   1.00
H128   H     0.75993   0.87568   0.31553   0.00000  Uiso   1.00
H129   H     0.97805   0.28804   0.52819   0.00000  Uiso   1.00
O130   O     0.89066   0.88669   0.18152   0.00000  Uiso   1.00
O131   O     0.53938   0.84394   0.34129   0.00000  Uiso   1.00
O132   O     0.82555   0.38494   0.62029   0.00000  Uiso   1.00
N133   N     0.75931   0.93817   0.10889   0.00000  Uiso   1.00
N134   N     0.50898   0.90769   0.51014   0.00000  Uiso   1.00
N135   N     0.71289   0.29321   0.70893   0.00000  Uiso   1.00
N136   N     0.94227   0.92253   0.98568   0.00000  Uiso   1.00
N137   N     0.69194   0.89205   0.38693   0.00000  Uiso   1.00
N138   N     0.89585   0.27757   0.58572   0.00000  Uiso   1.00
C139   C     0.35569   0.54775   0.71312   0.00000  Uiso   1.00
C140   C     0.27928   0.51374   0.65448   0.00000  Uiso   1.00
C141   C     0.31695   0.49384   0.53655   0.00000  Uiso   1.00
C142   C     0.23353   0.46357   0.50005   0.00000  Uiso   1.00
C143   C     0.13267   0.41224   0.39704   0.00000  Uiso   1.00
C144   C     0.34827   0.50532   0.81950   0.00000  Uiso   1.00
C145   C     0.44396   0.47837   0.84031   0.00000  Uiso   1.00
C146   C     0.41860   0.44102   0.94273   0.00000  Uiso   1.00
C147   C     0.42487   0.37668   0.09595   0.00000  Uiso   1.00
C148   C     0.29207   0.61157   0.76469   0.00000  Uiso   1.00
C149   C     0.34051   0.67395   0.73945   0.00000  Uiso   1.00
C150   C     0.26784   0.72606   0.79576   0.00000  Uiso   1.00
C151   C     0.18685   0.82668   0.86388   0.00000  Uiso   1.00
C152   C     0.14052   0.52935   0.85802   0.00000  Uiso   1.00
C153   C     0.16241   0.50374   0.73319   0.00000  Uiso   1.00
C154   C     0.07890   0.47349   0.69686   0.00000  Uiso   1.00
C155   C     0.11644   0.45356   0.57889   0.00000  Uiso   1.00
C156   C     0.23141   0.49533   0.89820   0.00000  Uiso   1.00
C157   C     0.20590   0.45802   0.00062   0.00000  Uiso   1.00
C158   C     0.30152   0.43101   0.02158   0.00000  Uiso   1.00
C159   C     0.17520   0.60158   0.84339   0.00000  Uiso   1.00
C160   C     0.10245   0.65360   0.89976   0.00000  Uiso   1.00
C161   C     0.15077   0.71605   0.87460   0.00000  Uiso   1.00
H162   H     0.44667   0.55553   0.65186   0.00000  Uiso   1.00
H163   H     0.40741   0.50158   0.47567   0.00000  Uiso   1.00
H164   H     0.53439   0.48612   0.77939   0.00000  Uiso   1.00
H165   H     0.43095   0.68167   0.67854   0.00000  Uiso   1.00
H166   H     0.31234   0.43734   0.31506   0.00000  Uiso   1.00
H167   H     0.58009   0.40475   0.95549   0.00000  Uiso   1.00
H168   H     0.36198   0.81711   0.74283   0.00000  Uiso   1.00
H169   H     0.04953   0.52157   0.91930   0.00000  Uiso   1.00
H170   H     0.98847   0.46576   0.75778   0.00000  Uiso   1.00
H171   H     0.11545   0.45030   0.06150   0.00000  Uiso   1.00
H172   H     0.01202   0.64585   0.96065   0.00000  Uiso   1.00
H173   H     0.97232   0.40827   0.54403   0.00000  Uiso   1.00
H174   H     0.24007   0.37568   0.18447   0.00000  Uiso   1.00
H175   H     0.02195   0.78804   0.97181   0.00000  Uiso   1.00
O176   O     0.10934   0.38669   0.31848   0.00000  Uiso   1.00
O177   O     0.46062   0.34394   0.15871   0.00000  Uiso   1.00
O178   O     0.17445   0.88494   0.87971   0.00000  Uiso   1.00
N179   N     0.24069   0.43817   0.39111   0.00000  Uiso   1.00
N180   N     0.49102   0.40769   0.98986   0.00000  Uiso   1.00
N181   N     0.28711   0.79321   0.79107   0.00000  Uiso   1.00
N182   N     0.05773   0.42253   0.51432   0.00000  Uiso   1.00
N183   N     0.30806   0.39205   0.11307   0.00000  Uiso   1.00
N184   N     0.10415   0.77757   0.91428   0.00000  Uiso   1.00
