data_job_03769
_audit_creation_date              2018-12-19
_audit_creation_method            'Materials Studio'
_symmetry_space_group_name_H-M    'P1'
_symmetry_Int_Tables_number       1
_symmetry_cell_setting            triclinic
loop_
_symmetry_equiv_pos_as_xyz
  x,y,z
_cell_length_a                    30.4851
_cell_length_b                    19.3174
_cell_length_c                    10.4409
_cell_angle_alpha                 90.0000
_cell_angle_beta                  89.5846
_cell_angle_gamma                 90.0000
loop_
_atom_site_label
_atom_site_type_symbol
_atom_site_fract_x
_atom_site_fract_y
_atom_site_fract_z
_atom_site_U_iso_or_equiv
_atom_site_adp_type
_atom_site_occupancy
C1     C     0.11488   0.83069   0.30889   0.00000  Uiso   1.00
C2     C     0.13319   0.76269   0.35991   0.00000  Uiso   1.00
C3     C     0.11404   0.72191   0.45438   0.00000  Uiso   1.00
C4     C     0.13595   0.66159   0.48768   0.00000  Uiso   1.00
C5     C     0.15837   0.55888   0.57595   0.00000  Uiso   1.00
C6     C     0.15088   0.88446   0.32763   0.00000  Uiso   1.00
C7     C     0.14660   0.94607   0.39494   0.00000  Uiso   1.00
C8     C     0.18339   0.98827   0.40106   0.00000  Uiso   1.00
C9     C     0.23327   0.07464   0.43913   0.00000  Uiso   1.00
C10    C     0.11055   0.82120   0.16454   0.00000  Uiso   1.00
C11    C     0.07235   0.82965   0.09471   0.00000  Uiso   1.00
C12    C     0.07519   0.81860   0.96351   0.00000  Uiso   1.00
C13    C     0.06244   0.80676   0.74835   0.00000  Uiso   1.00
C14    C     0.18783   0.79609   0.20004   0.00000  Uiso   1.00
C15    C     0.17282   0.74390   0.30079   0.00000  Uiso   1.00
C16    C     0.19476   0.68363   0.33395   0.00000  Uiso   1.00
C17    C     0.17564   0.64276   0.42845   0.00000  Uiso   1.00
C18    C     0.19051   0.86567   0.26851   0.00000  Uiso   1.00
C19    C     0.22731   0.90779   0.27452   0.00000  Uiso   1.00
C20    C     0.22309   0.96945   0.34183   0.00000  Uiso   1.00
C21    C     0.15017   0.80241   0.10541   0.00000  Uiso   1.00
C22    C     0.15307   0.79136   0.97429   0.00000  Uiso   1.00
C23    C     0.11489   0.79978   0.90428   0.00000  Uiso   1.00
H24    H     0.08403   0.84532   0.35492   0.00000  Uiso   1.00
H25    H     0.08338   0.73647   0.50012   0.00000  Uiso   1.00
H26    H     0.11593   0.96060   0.44067   0.00000  Uiso   1.00
H27    H     0.04170   0.84419   0.14050   0.00000  Uiso   1.00
H28    H     0.10014   0.60752   0.63506   0.00000  Uiso   1.00
H29    H     0.16878   0.08012   0.50969   0.00000  Uiso   1.00
H30    H     0.01224   0.83464   0.87670   0.00000  Uiso   1.00
H31    H     0.21868   0.78146   0.15401   0.00000  Uiso   1.00
H32    H     0.22542   0.66910   0.28818   0.00000  Uiso   1.00
H33    H     0.25797   0.89323   0.22875   0.00000  Uiso   1.00
H34    H     0.18374   0.77682   0.92857   0.00000  Uiso   1.00
H35    H     0.21543   0.55283   0.46305   0.00000  Uiso   1.00
H36    H     0.28406   0.02544   0.33768   0.00000  Uiso   1.00
H37    H     0.12752   0.77996   0.70469   0.00000  Uiso   1.00
O38    O     0.15980   0.50743   0.64098   0.00000  Uiso   1.00
O39    O     0.24984   0.12747   0.47647   0.00000  Uiso   1.00
O40    O     0.04446   0.80541   0.64601   0.00000  Uiso   1.00
N41    N     0.12635   0.61006   0.57615   0.00000  Uiso   1.00
N42    N     0.19052   0.05191   0.45895   0.00000  Uiso   1.00
N43    N     0.04417   0.82243   0.86715   0.00000  Uiso   1.00
N44    N     0.18838   0.58063   0.48359   0.00000  Uiso   1.00
N45    N     0.25255   0.02249   0.36639   0.00000  Uiso   1.00
N46    N     0.10620   0.79300   0.77460   0.00000  Uiso   1.00
C47    C     0.61488   0.33069   0.30889   0.00000  Uiso   1.00
C48    C     0.63319   0.26269   0.35991   0.00000  Uiso   1.00
C49    C     0.61404   0.22191   0.45438   0.00000  Uiso   1.00
C50    C     0.63595   0.16159   0.48768   0.00000  Uiso   1.00
C51    C     0.65837   0.05888   0.57595   0.00000  Uiso   1.00
C52    C     0.65088   0.38446   0.32763   0.00000  Uiso   1.00
C53    C     0.64660   0.44607   0.39494   0.00000  Uiso   1.00
C54    C     0.68339   0.48827   0.40106   0.00000  Uiso   1.00
C55    C     0.73327   0.57464   0.43913   0.00000  Uiso   1.00
C56    C     0.61055   0.32120   0.16454   0.00000  Uiso   1.00
C57    C     0.57235   0.32965   0.09471   0.00000  Uiso   1.00
C58    C     0.57519   0.31860   0.96351   0.00000  Uiso   1.00
C59    C     0.56244   0.30676   0.74835   0.00000  Uiso   1.00
C60    C     0.68783   0.29609   0.20004   0.00000  Uiso   1.00
C61    C     0.67282   0.24390   0.30079   0.00000  Uiso   1.00
C62    C     0.69476   0.18363   0.33395   0.00000  Uiso   1.00
C63    C     0.67564   0.14276   0.42845   0.00000  Uiso   1.00
C64    C     0.69051   0.36567   0.26851   0.00000  Uiso   1.00
C65    C     0.72731   0.40779   0.27452   0.00000  Uiso   1.00
C66    C     0.72309   0.46945   0.34183   0.00000  Uiso   1.00
C67    C     0.65017   0.30241   0.10541   0.00000  Uiso   1.00
C68    C     0.65307   0.29136   0.97429   0.00000  Uiso   1.00
C69    C     0.61489   0.29978   0.90428   0.00000  Uiso   1.00
H70    H     0.58403   0.34532   0.35492   0.00000  Uiso   1.00
H71    H     0.58338   0.23647   0.50012   0.00000  Uiso   1.00
H72    H     0.61593   0.46060   0.44067   0.00000  Uiso   1.00
H73    H     0.54170   0.34419   0.14050   0.00000  Uiso   1.00
H74    H     0.60014   0.10752   0.63506   0.00000  Uiso   1.00
H75    H     0.66878   0.58012   0.50969   0.00000  Uiso   1.00
H76    H     0.51224   0.33464   0.87670   0.00000  Uiso   1.00
H77    H     0.71868   0.28146   0.15401   0.00000  Uiso   1.00
H78    H     0.72542   0.16910   0.28818   0.00000  Uiso   1.00
H79    H     0.75797   0.39323   0.22875   0.00000  Uiso   1.00
H80    H     0.68374   0.27682   0.92857   0.00000  Uiso   1.00
H81    H     0.71543   0.05283   0.46305   0.00000  Uiso   1.00
H82    H     0.78406   0.52544   0.33768   0.00000  Uiso   1.00
H83    H     0.62752   0.27996   0.70469   0.00000  Uiso   1.00
O84    O     0.65980   0.00743   0.64098   0.00000  Uiso   1.00
O85    O     0.74984   0.62747   0.47647   0.00000  Uiso   1.00
O86    O     0.54446   0.30541   0.64601   0.00000  Uiso   1.00
N87    N     0.62635   0.11006   0.57615   0.00000  Uiso   1.00
N88    N     0.69052   0.55191   0.45895   0.00000  Uiso   1.00
N89    N     0.54417   0.32243   0.86715   0.00000  Uiso   1.00
N90    N     0.68838   0.08063   0.48359   0.00000  Uiso   1.00
N91    N     0.75255   0.52249   0.36639   0.00000  Uiso   1.00
N92    N     0.60620   0.29300   0.77460   0.00000  Uiso   1.00
C93    C     0.88512   0.83069   0.19111   0.00000  Uiso   1.00
C94    C     0.86681   0.76269   0.14009   0.00000  Uiso   1.00
C95    C     0.88596   0.72191   0.04562   0.00000  Uiso   1.00
C96    C     0.86405   0.66159   0.01232   0.00000  Uiso   1.00
C97    C     0.84163   0.55888   0.92405   0.00000  Uiso   1.00
C98    C     0.84912   0.88446   0.17237   0.00000  Uiso   1.00
C99    C     0.85340   0.94607   0.10506   0.00000  Uiso   1.00
C100   C     0.81661   0.98827   0.09894   0.00000  Uiso   1.00
C101   C     0.76673   0.07464   0.06087   0.00000  Uiso   1.00
C102   C     0.88945   0.82120   0.33546   0.00000  Uiso   1.00
C103   C     0.92765   0.82965   0.40529   0.00000  Uiso   1.00
C104   C     0.92481   0.81860   0.53649   0.00000  Uiso   1.00
C105   C     0.93756   0.80676   0.75165   0.00000  Uiso   1.00
C106   C     0.81217   0.79609   0.29996   0.00000  Uiso   1.00
C107   C     0.82718   0.74390   0.19921   0.00000  Uiso   1.00
C108   C     0.80524   0.68363   0.16605   0.00000  Uiso   1.00
C109   C     0.82436   0.64276   0.07155   0.00000  Uiso   1.00
C110   C     0.80949   0.86567   0.23149   0.00000  Uiso   1.00
C111   C     0.77269   0.90779   0.22548   0.00000  Uiso   1.00
C112   C     0.77691   0.96945   0.15817   0.00000  Uiso   1.00
C113   C     0.84983   0.80241   0.39459   0.00000  Uiso   1.00
C114   C     0.84693   0.79136   0.52571   0.00000  Uiso   1.00
C115   C     0.88511   0.79978   0.59572   0.00000  Uiso   1.00
H116   H     0.91597   0.84532   0.14508   0.00000  Uiso   1.00
H117   H     0.91662   0.73647   0.99988   0.00000  Uiso   1.00
H118   H     0.88407   0.96060   0.05933   0.00000  Uiso   1.00
H119   H     0.95830   0.84419   0.35950   0.00000  Uiso   1.00
H120   H     0.89986   0.60752   0.86494   0.00000  Uiso   1.00
H121   H     0.83122   0.08012   0.99031   0.00000  Uiso   1.00
H122   H     0.98776   0.83464   0.62330   0.00000  Uiso   1.00
H123   H     0.78132   0.78146   0.34599   0.00000  Uiso   1.00
H124   H     0.77458   0.66910   0.21182   0.00000  Uiso   1.00
H125   H     0.74203   0.89323   0.27125   0.00000  Uiso   1.00
H126   H     0.81626   0.77682   0.57143   0.00000  Uiso   1.00
H127   H     0.78457   0.55283   0.03695   0.00000  Uiso   1.00
H128   H     0.71594   0.02544   0.16232   0.00000  Uiso   1.00
H129   H     0.87248   0.77996   0.79531   0.00000  Uiso   1.00
O130   O     0.84020   0.50743   0.85902   0.00000  Uiso   1.00
O131   O     0.75016   0.12747   0.02353   0.00000  Uiso   1.00
O132   O     0.95554   0.80541   0.85399   0.00000  Uiso   1.00
N133   N     0.87365   0.61006   0.92385   0.00000  Uiso   1.00
N134   N     0.80948   0.05191   0.04105   0.00000  Uiso   1.00
N135   N     0.95583   0.82243   0.63285   0.00000  Uiso   1.00
N136   N     0.81162   0.58063   0.01641   0.00000  Uiso   1.00
N137   N     0.74745   0.02249   0.13361   0.00000  Uiso   1.00
N138   N     0.89380   0.79300   0.72540   0.00000  Uiso   1.00
C139   C     0.38512   0.33069   0.19111   0.00000  Uiso   1.00
C140   C     0.36681   0.26269   0.14009   0.00000  Uiso   1.00
C141   C     0.38596   0.22191   0.04562   0.00000  Uiso   1.00
C142   C     0.36405   0.16159   0.01232   0.00000  Uiso   1.00
C143   C     0.34163   0.05888   0.92405   0.00000  Uiso   1.00
C144   C     0.34912   0.38446   0.17237   0.00000  Uiso   1.00
C145   C     0.35340   0.44607   0.10506   0.00000  Uiso   1.00
C146   C     0.31661   0.48827   0.09894   0.00000  Uiso   1.00
C147   C     0.26673   0.57464   0.06087   0.00000  Uiso   1.00
C148   C     0.38945   0.32120   0.33546   0.00000  Uiso   1.00
C149   C     0.42765   0.32965   0.40529   0.00000  Uiso   1.00
C150   C     0.42481   0.31860   0.53649   0.00000  Uiso   1.00
C151   C     0.43756   0.30676   0.75165   0.00000  Uiso   1.00
C152   C     0.31217   0.29609   0.29996   0.00000  Uiso   1.00
C153   C     0.32718   0.24390   0.19921   0.00000  Uiso   1.00
C154   C     0.30524   0.18363   0.16605   0.00000  Uiso   1.00
C155   C     0.32436   0.14276   0.07155   0.00000  Uiso   1.00
C156   C     0.30949   0.36567   0.23149   0.00000  Uiso   1.00
C157   C     0.27269   0.40779   0.22548   0.00000  Uiso   1.00
C158   C     0.27691   0.46945   0.15817   0.00000  Uiso   1.00
C159   C     0.34983   0.30241   0.39459   0.00000  Uiso   1.00
C160   C     0.34693   0.29136   0.52571   0.00000  Uiso   1.00
C161   C     0.38511   0.29978   0.59572   0.00000  Uiso   1.00
H162   H     0.41597   0.34532   0.14508   0.00000  Uiso   1.00
H163   H     0.41662   0.23647   0.99988   0.00000  Uiso   1.00
H164   H     0.38407   0.46060   0.05933   0.00000  Uiso   1.00
H165   H     0.45830   0.34419   0.35950   0.00000  Uiso   1.00
H166   H     0.39986   0.10752   0.86494   0.00000  Uiso   1.00
H167   H     0.33122   0.58012   0.99031   0.00000  Uiso   1.00
H168   H     0.48776   0.33464   0.62330   0.00000  Uiso   1.00
H169   H     0.28132   0.28146   0.34599   0.00000  Uiso   1.00
H170   H     0.27458   0.16910   0.21182   0.00000  Uiso   1.00
H171   H     0.24203   0.39323   0.27125   0.00000  Uiso   1.00
H172   H     0.31626   0.27682   0.57143   0.00000  Uiso   1.00
H173   H     0.28457   0.05283   0.03695   0.00000  Uiso   1.00
H174   H     0.21594   0.52544   0.16232   0.00000  Uiso   1.00
H175   H     0.37248   0.27996   0.79531   0.00000  Uiso   1.00
O176   O     0.34020   0.00743   0.85902   0.00000  Uiso   1.00
O177   O     0.25016   0.62747   0.02353   0.00000  Uiso   1.00
O178   O     0.45554   0.30541   0.85399   0.00000  Uiso   1.00
N179   N     0.37365   0.11006   0.92385   0.00000  Uiso   1.00
N180   N     0.30948   0.55191   0.04105   0.00000  Uiso   1.00
N181   N     0.45583   0.32243   0.63285   0.00000  Uiso   1.00
N182   N     0.31162   0.08063   0.01641   0.00000  Uiso   1.00
N183   N     0.24745   0.52249   0.13361   0.00000  Uiso   1.00
N184   N     0.39380   0.29300   0.72540   0.00000  Uiso   1.00
C185   C     0.88512   0.16931   0.69111   0.00000  Uiso   1.00
C186   C     0.86681   0.23731   0.64009   0.00000  Uiso   1.00
C187   C     0.88596   0.27809   0.54562   0.00000  Uiso   1.00
C188   C     0.86405   0.33841   0.51232   0.00000  Uiso   1.00
C189   C     0.84163   0.44112   0.42405   0.00000  Uiso   1.00
C190   C     0.84912   0.11554   0.67237   0.00000  Uiso   1.00
C191   C     0.85340   0.05393   0.60506   0.00000  Uiso   1.00
C192   C     0.81661   0.01173   0.59894   0.00000  Uiso   1.00
C193   C     0.76673   0.92536   0.56087   0.00000  Uiso   1.00
C194   C     0.88945   0.17880   0.83546   0.00000  Uiso   1.00
C195   C     0.92765   0.17035   0.90529   0.00000  Uiso   1.00
C196   C     0.92481   0.18140   0.03649   0.00000  Uiso   1.00
C197   C     0.93756   0.19324   0.25165   0.00000  Uiso   1.00
C198   C     0.81217   0.20391   0.79996   0.00000  Uiso   1.00
C199   C     0.82718   0.25610   0.69921   0.00000  Uiso   1.00
C200   C     0.80524   0.31637   0.66605   0.00000  Uiso   1.00
C201   C     0.82436   0.35724   0.57155   0.00000  Uiso   1.00
C202   C     0.80949   0.13433   0.73149   0.00000  Uiso   1.00
C203   C     0.77269   0.09221   0.72548   0.00000  Uiso   1.00
C204   C     0.77691   0.03055   0.65817   0.00000  Uiso   1.00
C205   C     0.84983   0.19759   0.89459   0.00000  Uiso   1.00
C206   C     0.84693   0.20864   0.02571   0.00000  Uiso   1.00
C207   C     0.88511   0.20022   0.09572   0.00000  Uiso   1.00
H208   H     0.91597   0.15468   0.64508   0.00000  Uiso   1.00
H209   H     0.91662   0.26353   0.49988   0.00000  Uiso   1.00
H210   H     0.88407   0.03940   0.55933   0.00000  Uiso   1.00
H211   H     0.95830   0.15581   0.85950   0.00000  Uiso   1.00
H212   H     0.89986   0.39248   0.36494   0.00000  Uiso   1.00
H213   H     0.83122   0.91988   0.49031   0.00000  Uiso   1.00
H214   H     0.98776   0.16536   0.12330   0.00000  Uiso   1.00
H215   H     0.78132   0.21854   0.84599   0.00000  Uiso   1.00
H216   H     0.77458   0.33090   0.71182   0.00000  Uiso   1.00
H217   H     0.74203   0.10677   0.77125   0.00000  Uiso   1.00
H218   H     0.81626   0.22318   0.07143   0.00000  Uiso   1.00
H219   H     0.78457   0.44717   0.53695   0.00000  Uiso   1.00
H220   H     0.71594   0.97456   0.66232   0.00000  Uiso   1.00
H221   H     0.87248   0.22004   0.29531   0.00000  Uiso   1.00
O222   O     0.84020   0.49257   0.35902   0.00000  Uiso   1.00
O223   O     0.75016   0.87253   0.52353   0.00000  Uiso   1.00
O224   O     0.95554   0.19459   0.35399   0.00000  Uiso   1.00
N225   N     0.87365   0.38994   0.42385   0.00000  Uiso   1.00
N226   N     0.80948   0.94809   0.54105   0.00000  Uiso   1.00
N227   N     0.95583   0.17757   0.13285   0.00000  Uiso   1.00
N228   N     0.81162   0.41937   0.51641   0.00000  Uiso   1.00
N229   N     0.74745   0.97751   0.63361   0.00000  Uiso   1.00
N230   N     0.89380   0.20700   0.22540   0.00000  Uiso   1.00
C231   C     0.38512   0.66931   0.69111   0.00000  Uiso   1.00
C232   C     0.36681   0.73731   0.64009   0.00000  Uiso   1.00
C233   C     0.38596   0.77809   0.54562   0.00000  Uiso   1.00
C234   C     0.36405   0.83841   0.51232   0.00000  Uiso   1.00
C235   C     0.34163   0.94112   0.42405   0.00000  Uiso   1.00
C236   C     0.34912   0.61554   0.67237   0.00000  Uiso   1.00
C237   C     0.35340   0.55393   0.60506   0.00000  Uiso   1.00
C238   C     0.31661   0.51173   0.59894   0.00000  Uiso   1.00
C239   C     0.26673   0.42536   0.56087   0.00000  Uiso   1.00
C240   C     0.38945   0.67880   0.83546   0.00000  Uiso   1.00
C241   C     0.42765   0.67035   0.90529   0.00000  Uiso   1.00
C242   C     0.42481   0.68140   0.03649   0.00000  Uiso   1.00
C243   C     0.43756   0.69324   0.25165   0.00000  Uiso   1.00
C244   C     0.31217   0.70391   0.79996   0.00000  Uiso   1.00
C245   C     0.32718   0.75610   0.69921   0.00000  Uiso   1.00
C246   C     0.30524   0.81637   0.66605   0.00000  Uiso   1.00
C247   C     0.32436   0.85724   0.57155   0.00000  Uiso   1.00
C248   C     0.30949   0.63433   0.73149   0.00000  Uiso   1.00
C249   C     0.27269   0.59221   0.72548   0.00000  Uiso   1.00
C250   C     0.27691   0.53055   0.65817   0.00000  Uiso   1.00
C251   C     0.34983   0.69759   0.89459   0.00000  Uiso   1.00
C252   C     0.34693   0.70864   0.02571   0.00000  Uiso   1.00
C253   C     0.38511   0.70022   0.09572   0.00000  Uiso   1.00
H254   H     0.41597   0.65468   0.64508   0.00000  Uiso   1.00
H255   H     0.41662   0.76353   0.49988   0.00000  Uiso   1.00
H256   H     0.38407   0.53940   0.55933   0.00000  Uiso   1.00
H257   H     0.45830   0.65581   0.85950   0.00000  Uiso   1.00
H258   H     0.39986   0.89248   0.36494   0.00000  Uiso   1.00
H259   H     0.33122   0.41988   0.49031   0.00000  Uiso   1.00
H260   H     0.48776   0.66536   0.12330   0.00000  Uiso   1.00
H261   H     0.28132   0.71854   0.84599   0.00000  Uiso   1.00
H262   H     0.27458   0.83090   0.71182   0.00000  Uiso   1.00
H263   H     0.24203   0.60677   0.77125   0.00000  Uiso   1.00
H264   H     0.31626   0.72318   0.07143   0.00000  Uiso   1.00
H265   H     0.28457   0.94717   0.53695   0.00000  Uiso   1.00
H266   H     0.21594   0.47456   0.66232   0.00000  Uiso   1.00
H267   H     0.37248   0.72004   0.29531   0.00000  Uiso   1.00
O268   O     0.34020   0.99257   0.35902   0.00000  Uiso   1.00
O269   O     0.25016   0.37253   0.52353   0.00000  Uiso   1.00
O270   O     0.45554   0.69459   0.35399   0.00000  Uiso   1.00
N271   N     0.37365   0.88994   0.42385   0.00000  Uiso   1.00
N272   N     0.30948   0.44809   0.54105   0.00000  Uiso   1.00
N273   N     0.45583   0.67757   0.13285   0.00000  Uiso   1.00
N274   N     0.31162   0.91937   0.51641   0.00000  Uiso   1.00
N275   N     0.24745   0.47751   0.63361   0.00000  Uiso   1.00
N276   N     0.39380   0.70700   0.22540   0.00000  Uiso   1.00
C277   C     0.11488   0.16931   0.80889   0.00000  Uiso   1.00
C278   C     0.13319   0.23731   0.85991   0.00000  Uiso   1.00
C279   C     0.11404   0.27809   0.95438   0.00000  Uiso   1.00
C280   C     0.13595   0.33841   0.98768   0.00000  Uiso   1.00
C281   C     0.15837   0.44112   0.07595   0.00000  Uiso   1.00
C282   C     0.15088   0.11554   0.82763   0.00000  Uiso   1.00
C283   C     0.14660   0.05393   0.89494   0.00000  Uiso   1.00
C284   C     0.18339   0.01173   0.90106   0.00000  Uiso   1.00
C285   C     0.23327   0.92536   0.93913   0.00000  Uiso   1.00
C286   C     0.11055   0.17880   0.66454   0.00000  Uiso   1.00
C287   C     0.07235   0.17035   0.59471   0.00000  Uiso   1.00
C288   C     0.07519   0.18140   0.46351   0.00000  Uiso   1.00
C289   C     0.06244   0.19324   0.24835   0.00000  Uiso   1.00
C290   C     0.18783   0.20391   0.70004   0.00000  Uiso   1.00
C291   C     0.17282   0.25610   0.80079   0.00000  Uiso   1.00
C292   C     0.19476   0.31637   0.83395   0.00000  Uiso   1.00
C293   C     0.17564   0.35724   0.92845   0.00000  Uiso   1.00
C294   C     0.19051   0.13433   0.76851   0.00000  Uiso   1.00
C295   C     0.22731   0.09221   0.77452   0.00000  Uiso   1.00
C296   C     0.22309   0.03055   0.84183   0.00000  Uiso   1.00
C297   C     0.15017   0.19759   0.60541   0.00000  Uiso   1.00
C298   C     0.15307   0.20864   0.47429   0.00000  Uiso   1.00
C299   C     0.11489   0.20022   0.40428   0.00000  Uiso   1.00
H300   H     0.08403   0.15468   0.85492   0.00000  Uiso   1.00
H301   H     0.08338   0.26353   0.00012   0.00000  Uiso   1.00
H302   H     0.11593   0.03940   0.94067   0.00000  Uiso   1.00
H303   H     0.04170   0.15581   0.64050   0.00000  Uiso   1.00
H304   H     0.10014   0.39248   0.13506   0.00000  Uiso   1.00
H305   H     0.16878   0.91988   0.00969   0.00000  Uiso   1.00
H306   H     0.01224   0.16536   0.37670   0.00000  Uiso   1.00
H307   H     0.21868   0.21854   0.65401   0.00000  Uiso   1.00
H308   H     0.22542   0.33090   0.78818   0.00000  Uiso   1.00
H309   H     0.25797   0.10677   0.72875   0.00000  Uiso   1.00
H310   H     0.18374   0.22318   0.42857   0.00000  Uiso   1.00
H311   H     0.21543   0.44717   0.96305   0.00000  Uiso   1.00
H312   H     0.28406   0.97456   0.83768   0.00000  Uiso   1.00
H313   H     0.12752   0.22004   0.20469   0.00000  Uiso   1.00
O314   O     0.15980   0.49257   0.14098   0.00000  Uiso   1.00
O315   O     0.24984   0.87253   0.97647   0.00000  Uiso   1.00
O316   O     0.04446   0.19459   0.14601   0.00000  Uiso   1.00
N317   N     0.12635   0.38994   0.07615   0.00000  Uiso   1.00
N318   N     0.19052   0.94809   0.95895   0.00000  Uiso   1.00
N319   N     0.04417   0.17757   0.36715   0.00000  Uiso   1.00
N320   N     0.18838   0.41937   0.98359   0.00000  Uiso   1.00
N321   N     0.25255   0.97751   0.86639   0.00000  Uiso   1.00
N322   N     0.10620   0.20700   0.27460   0.00000  Uiso   1.00
C323   C     0.61488   0.66931   0.80889   0.00000  Uiso   1.00
C324   C     0.63319   0.73731   0.85991   0.00000  Uiso   1.00
C325   C     0.61404   0.77809   0.95438   0.00000  Uiso   1.00
C326   C     0.63595   0.83841   0.98768   0.00000  Uiso   1.00
C327   C     0.65837   0.94112   0.07595   0.00000  Uiso   1.00
C328   C     0.65088   0.61554   0.82763   0.00000  Uiso   1.00
C329   C     0.64660   0.55393   0.89494   0.00000  Uiso   1.00
C330   C     0.68339   0.51173   0.90106   0.00000  Uiso   1.00
C331   C     0.73327   0.42536   0.93913   0.00000  Uiso   1.00
C332   C     0.61055   0.67880   0.66454   0.00000  Uiso   1.00
C333   C     0.57235   0.67035   0.59471   0.00000  Uiso   1.00
C334   C     0.57519   0.68140   0.46351   0.00000  Uiso   1.00
C335   C     0.56244   0.69324   0.24835   0.00000  Uiso   1.00
C336   C     0.68783   0.70391   0.70004   0.00000  Uiso   1.00
C337   C     0.67282   0.75610   0.80079   0.00000  Uiso   1.00
C338   C     0.69476   0.81637   0.83395   0.00000  Uiso   1.00
C339   C     0.67564   0.85724   0.92845   0.00000  Uiso   1.00
C340   C     0.69051   0.63433   0.76851   0.00000  Uiso   1.00
C341   C     0.72731   0.59221   0.77452   0.00000  Uiso   1.00
C342   C     0.72309   0.53055   0.84183   0.00000  Uiso   1.00
C343   C     0.65017   0.69759   0.60541   0.00000  Uiso   1.00
C344   C     0.65307   0.70864   0.47429   0.00000  Uiso   1.00
C345   C     0.61489   0.70022   0.40428   0.00000  Uiso   1.00
H346   H     0.58403   0.65468   0.85492   0.00000  Uiso   1.00
H347   H     0.58338   0.76353   0.00012   0.00000  Uiso   1.00
H348   H     0.61593   0.53940   0.94067   0.00000  Uiso   1.00
H349   H     0.54170   0.65581   0.64050   0.00000  Uiso   1.00
H350   H     0.60014   0.89248   0.13506   0.00000  Uiso   1.00
H351   H     0.66878   0.41988   0.00969   0.00000  Uiso   1.00
H352   H     0.51224   0.66536   0.37670   0.00000  Uiso   1.00
H353   H     0.71868   0.71854   0.65401   0.00000  Uiso   1.00
H354   H     0.72542   0.83090   0.78818   0.00000  Uiso   1.00
H355   H     0.75797   0.60677   0.72875   0.00000  Uiso   1.00
H356   H     0.68374   0.72318   0.42857   0.00000  Uiso   1.00
H357   H     0.71543   0.94717   0.96305   0.00000  Uiso   1.00
H358   H     0.78406   0.47456   0.83768   0.00000  Uiso   1.00
H359   H     0.62752   0.72004   0.20469   0.00000  Uiso   1.00
O360   O     0.65980   0.99257   0.14098   0.00000  Uiso   1.00
O361   O     0.74984   0.37253   0.97647   0.00000  Uiso   1.00
O362   O     0.54446   0.69459   0.14601   0.00000  Uiso   1.00
N363   N     0.62635   0.88994   0.07615   0.00000  Uiso   1.00
N364   N     0.69052   0.44809   0.95895   0.00000  Uiso   1.00
N365   N     0.54417   0.67757   0.36715   0.00000  Uiso   1.00
N366   N     0.68838   0.91937   0.98359   0.00000  Uiso   1.00
N367   N     0.75255   0.47751   0.86639   0.00000  Uiso   1.00
N368   N     0.60620   0.70700   0.27460   0.00000  Uiso   1.00
