data_job_05093
_audit_creation_date              2018-12-19
_audit_creation_method            'Materials Studio'
_symmetry_space_group_name_H-M    'P1'
_symmetry_Int_Tables_number       1
_symmetry_cell_setting            triclinic
loop_
_symmetry_equiv_pos_as_xyz
  x,y,z
_cell_length_a                    30.2106
_cell_length_b                    12.3519
_cell_length_c                    27.8218
_cell_angle_alpha                 90.0000
_cell_angle_beta                  143.3768
_cell_angle_gamma                 90.0000
loop_
_atom_site_label
_atom_site_type_symbol
_atom_site_fract_x
_atom_site_fract_y
_atom_site_fract_z
_atom_site_U_iso_or_equiv
_atom_site_adp_type
_atom_site_occupancy
C1     C     0.37315   0.54807   0.25330   0.00000  Uiso   1.00
C2     C     0.43808   0.55266   0.27480   0.00000  Uiso   1.00
C3     C     0.51140   0.52842   0.34950   0.00000  Uiso   1.00
C4     C     0.56256   0.53758   0.35700   0.00000  Uiso   1.00
C5     C     0.66666   0.53987   0.40028   0.00000  Uiso   1.00
C6     C     0.33798   0.66034   0.22189   0.00000  Uiso   1.00
C7     C     0.32712   0.72663   0.25208   0.00000  Uiso   1.00
C8     C     0.29401   0.82642   0.21502   0.00000  Uiso   1.00
C9     C     0.24264   0.99584   0.17611   0.00000  Uiso   1.00
C10    C     0.31630   0.47189   0.18130   0.00000  Uiso   1.00
C11    C     0.28720   0.37974   0.17736   0.00000  Uiso   1.00
C12    C     0.23581   0.32089   0.10612   0.00000  Uiso   1.00
C13    C     0.15079   0.19771   0.00420   0.00000  Uiso   1.00
C14    C     0.33363   0.60744   0.13378   0.00000  Uiso   1.00
C15    C     0.41661   0.58491   0.20988   0.00000  Uiso   1.00
C16    C     0.46767   0.59411   0.21727   0.00000  Uiso   1.00
C17    C     0.54105   0.56988   0.29196   0.00000  Uiso   1.00
C18    C     0.31651   0.69259   0.15697   0.00000  Uiso   1.00
C19    C     0.28340   0.79231   0.11985   0.00000  Uiso   1.00
C20    C     0.27250   0.85873   0.14999   0.00000  Uiso   1.00
C21    C     0.29483   0.50414   0.11638   0.00000  Uiso   1.00
C22    C     0.24348   0.44542   0.04513   0.00000  Uiso   1.00
C23    C     0.21431   0.35319   0.04109   0.00000  Uiso   1.00
H24    H     0.38986   0.52297   0.30384   0.00000  Uiso   1.00
H25    H     0.52799   0.50348   0.39973   0.00000  Uiso   1.00
H26    H     0.34374   0.70165   0.30232   0.00000  Uiso   1.00
H27    H     0.30382   0.35481   0.22761   0.00000  Uiso   1.00
H28    H     0.67168   0.49613   0.47742   0.00000  Uiso   1.00
H29    H     0.28314   0.91396   0.27201   0.00000  Uiso   1.00
H30    H     0.19897   0.18259   0.11448   0.00000  Uiso   1.00
H31    H     0.31691   0.63254   0.08323   0.00000  Uiso   1.00
H32    H     0.45104   0.61906   0.16702   0.00000  Uiso   1.00
H33    H     0.26679   0.81723   0.06961   0.00000  Uiso   1.00
H34    H     0.22688   0.47040   0.99491   0.00000  Uiso   1.00
H35    H     0.60922   0.58995   0.28854   0.00000  Uiso   1.00
H36    H     0.22068   0.00778   0.08313   0.00000  Uiso   1.00
H37    H     0.13652   0.27641   0.92560   0.00000  Uiso   1.00
O38    O     0.73001   0.53223   0.44209   0.00000  Uiso   1.00
O39    O     0.22025   0.08039   0.17259   0.00000  Uiso   1.00
O40    O     0.10983   0.12086   0.96591   0.00000  Uiso   1.00
N41    N     0.63857   0.52004   0.42146   0.00000  Uiso   1.00
N42    N     0.27532   0.91069   0.22943   0.00000  Uiso   1.00
N43    N     0.19662   0.22694   0.08214   0.00000  Uiso   1.00
N44    N     0.60496   0.57052   0.31983   0.00000  Uiso   1.00
N45    N     0.24171   0.96117   0.12780   0.00000  Uiso   1.00
N46    N     0.16301   0.27742   0.98051   0.00000  Uiso   1.00
C47    C     0.87262   0.84739   0.25241   0.00000  Uiso   1.00
C48    C     0.93773   0.85203   0.27422   0.00000  Uiso   1.00
C49    C     0.01100   0.82779   0.34902   0.00000  Uiso   1.00
C50    C     0.06235   0.83699   0.35681   0.00000  Uiso   1.00
C51    C     0.16669   0.83933   0.40053   0.00000  Uiso   1.00
C52    C     0.83744   0.95966   0.22094   0.00000  Uiso   1.00
C53    C     0.82638   0.02591   0.25094   0.00000  Uiso   1.00
C54    C     0.79329   0.12571   0.21386   0.00000  Uiso   1.00
C55    C     0.74189   0.29512   0.17482   0.00000  Uiso   1.00
C56    C     0.81589   0.77123   0.18038   0.00000  Uiso   1.00
C57    C     0.78668   0.67905   0.17627   0.00000  Uiso   1.00
C58    C     0.73544   0.62022   0.10503   0.00000  Uiso   1.00
C59    C     0.65057   0.49706   0.00303   0.00000  Uiso   1.00
C60    C     0.83354   0.90683   0.13320   0.00000  Uiso   1.00
C61    C     0.91650   0.88432   0.20947   0.00000  Uiso   1.00
C62    C     0.96776   0.89355   0.21713   0.00000  Uiso   1.00
C63    C     0.04108   0.86932   0.29194   0.00000  Uiso   1.00
C64    C     0.81622   0.99195   0.15619   0.00000  Uiso   1.00
C65    C     0.78314   0.09167   0.11905   0.00000  Uiso   1.00
C66    C     0.77203   0.15805   0.14899   0.00000  Uiso   1.00
C67    C     0.79466   0.80351   0.11563   0.00000  Uiso   1.00
C68    C     0.74345   0.74481   0.04438   0.00000  Uiso   1.00
C69    C     0.71418   0.65256   0.04017   0.00000  Uiso   1.00
H70    H     0.88914   0.82226   0.30282   0.00000  Uiso   1.00
H71    H     0.02740   0.80282   0.39912   0.00000  Uiso   1.00
H72    H     0.84280   0.00090   0.30104   0.00000  Uiso   1.00
H73    H     0.80312   0.65409   0.22639   0.00000  Uiso   1.00
H74    H     0.17133   0.79553   0.47734   0.00000  Uiso   1.00
H75    H     0.78207   0.21318   0.27052   0.00000  Uiso   1.00
H76    H     0.69840   0.48188   0.11310   0.00000  Uiso   1.00
H77    H     0.81701   0.93197   0.08279   0.00000  Uiso   1.00
H78    H     0.95132   0.91854   0.16702   0.00000  Uiso   1.00
H79    H     0.76672   0.11662   0.06894   0.00000  Uiso   1.00
H80    H     0.72704   0.76982   0.99429   0.00000  Uiso   1.00
H81    H     0.10958   0.88946   0.28896   0.00000  Uiso   1.00
H82    H     0.72032   0.30711   0.08214   0.00000  Uiso   1.00
H83    H     0.63665   0.57581   0.92472   0.00000  Uiso   1.00
O84    O     0.23011   0.83172   0.44254   0.00000  Uiso   1.00
O85    O     0.71941   0.37965   0.17119   0.00000  Uiso   1.00
O86    O     0.60963   0.42020   0.96466   0.00000  Uiso   1.00
N87    N     0.13837   0.81946   0.42144   0.00000  Uiso   1.00
N88    N     0.77444   0.20995   0.22809   0.00000  Uiso   1.00
N89    N     0.69620   0.52626   0.08090   0.00000  Uiso   1.00
N90    N     0.10514   0.87000   0.32008   0.00000  Uiso   1.00
N91    N     0.74121   0.26049   0.12672   0.00000  Uiso   1.00
N92    N     0.66297   0.57680   0.97954   0.00000  Uiso   1.00
C93    C     0.62685   0.04807   0.24670   0.00000  Uiso   1.00
C94    C     0.56192   0.05266   0.22520   0.00000  Uiso   1.00
C95    C     0.48860   0.02842   0.15050   0.00000  Uiso   1.00
C96    C     0.43744   0.03758   0.14300   0.00000  Uiso   1.00
C97    C     0.33334   0.03987   0.09972   0.00000  Uiso   1.00
C98    C     0.66202   0.16034   0.27811   0.00000  Uiso   1.00
C99    C     0.67288   0.22663   0.24792   0.00000  Uiso   1.00
C100   C     0.70599   0.32642   0.28498   0.00000  Uiso   1.00
C101   C     0.75736   0.49584   0.32389   0.00000  Uiso   1.00
C102   C     0.68370   0.97189   0.31870   0.00000  Uiso   1.00
C103   C     0.71280   0.87974   0.32264   0.00000  Uiso   1.00
C104   C     0.76419   0.82089   0.39388   0.00000  Uiso   1.00
C105   C     0.84921   0.69771   0.49580   0.00000  Uiso   1.00
C106   C     0.66637   0.10744   0.36622   0.00000  Uiso   1.00
C107   C     0.58339   0.08491   0.29012   0.00000  Uiso   1.00
C108   C     0.53233   0.09411   0.28273   0.00000  Uiso   1.00
C109   C     0.45895   0.06988   0.20804   0.00000  Uiso   1.00
C110   C     0.68349   0.19259   0.34303   0.00000  Uiso   1.00
C111   C     0.71660   0.29231   0.38015   0.00000  Uiso   1.00
C112   C     0.72750   0.35873   0.35001   0.00000  Uiso   1.00
C113   C     0.70517   0.00414   0.38362   0.00000  Uiso   1.00
C114   C     0.75652   0.94542   0.45487   0.00000  Uiso   1.00
C115   C     0.78569   0.85319   0.45891   0.00000  Uiso   1.00
H116   H     0.61014   0.02297   0.19616   0.00000  Uiso   1.00
H117   H     0.47201   0.00348   0.10027   0.00000  Uiso   1.00
H118   H     0.65626   0.20165   0.19768   0.00000  Uiso   1.00
H119   H     0.69618   0.85481   0.27239   0.00000  Uiso   1.00
H120   H     0.32832   0.99613   0.02258   0.00000  Uiso   1.00
H121   H     0.71686   0.41396   0.22799   0.00000  Uiso   1.00
H122   H     0.80103   0.68259   0.38552   0.00000  Uiso   1.00
H123   H     0.68309   0.13254   0.41677   0.00000  Uiso   1.00
H124   H     0.54896   0.11906   0.33298   0.00000  Uiso   1.00
H125   H     0.73321   0.31723   0.43039   0.00000  Uiso   1.00
H126   H     0.77312   0.97040   0.50509   0.00000  Uiso   1.00
H127   H     0.39078   0.08995   0.21146   0.00000  Uiso   1.00
H128   H     0.77932   0.50778   0.41687   0.00000  Uiso   1.00
H129   H     0.86348   0.77641   0.57440   0.00000  Uiso   1.00
O130   O     0.26999   0.03223   0.05791   0.00000  Uiso   1.00
O131   O     0.77975   0.58039   0.32741   0.00000  Uiso   1.00
O132   O     0.89017   0.62086   0.53409   0.00000  Uiso   1.00
N133   N     0.36143   0.02004   0.07854   0.00000  Uiso   1.00
N134   N     0.72468   0.41069   0.27057   0.00000  Uiso   1.00
N135   N     0.80338   0.72694   0.41786   0.00000  Uiso   1.00
N136   N     0.39504   0.07052   0.18017   0.00000  Uiso   1.00
N137   N     0.75829   0.46117   0.37220   0.00000  Uiso   1.00
N138   N     0.83699   0.77742   0.51949   0.00000  Uiso   1.00
C139   C     0.12738   0.34739   0.24759   0.00000  Uiso   1.00
C140   C     0.06227   0.35203   0.22578   0.00000  Uiso   1.00
C141   C     0.98900   0.32779   0.15097   0.00000  Uiso   1.00
C142   C     0.93765   0.33699   0.14319   0.00000  Uiso   1.00
C143   C     0.83331   0.33933   0.09947   0.00000  Uiso   1.00
C144   C     0.16256   0.45966   0.27906   0.00000  Uiso   1.00
C145   C     0.17362   0.52591   0.24906   0.00000  Uiso   1.00
C146   C     0.20671   0.62571   0.28614   0.00000  Uiso   1.00
C147   C     0.25811   0.79512   0.32518   0.00000  Uiso   1.00
C148   C     0.18411   0.27123   0.31962   0.00000  Uiso   1.00
C149   C     0.21332   0.17905   0.32373   0.00000  Uiso   1.00
C150   C     0.26456   0.12022   0.39497   0.00000  Uiso   1.00
C151   C     0.34943   0.99706   0.49697   0.00000  Uiso   1.00
C152   C     0.16646   0.40683   0.36680   0.00000  Uiso   1.00
C153   C     0.08350   0.38432   0.29053   0.00000  Uiso   1.00
C154   C     0.03224   0.39355   0.28287   0.00000  Uiso   1.00
C155   C     0.95892   0.36932   0.20806   0.00000  Uiso   1.00
C156   C     0.18378   0.49195   0.34381   0.00000  Uiso   1.00
C157   C     0.21686   0.59167   0.38095   0.00000  Uiso   1.00
C158   C     0.22797   0.65805   0.35101   0.00000  Uiso   1.00
C159   C     0.20534   0.30351   0.38437   0.00000  Uiso   1.00
C160   C     0.25655   0.24481   0.45562   0.00000  Uiso   1.00
C161   C     0.28582   0.15256   0.45983   0.00000  Uiso   1.00
H162   H     0.11086   0.32226   0.19718   0.00000  Uiso   1.00
H163   H     0.97260   0.30282   0.10088   0.00000  Uiso   1.00
H164   H     0.15720   0.50090   0.19896   0.00000  Uiso   1.00
H165   H     0.19688   0.15409   0.27361   0.00000  Uiso   1.00
H166   H     0.82867   0.29553   0.02266   0.00000  Uiso   1.00
H167   H     0.21793   0.71318   0.22948   0.00000  Uiso   1.00
H168   H     0.30160   0.98188   0.38690   0.00000  Uiso   1.00
H169   H     0.18299   0.43197   0.41721   0.00000  Uiso   1.00
H170   H     0.04868   0.41854   0.33298   0.00000  Uiso   1.00
H171   H     0.23328   0.61662   0.43106   0.00000  Uiso   1.00
H172   H     0.27296   0.26982   0.50571   0.00000  Uiso   1.00
H173   H     0.89042   0.38946   0.21104   0.00000  Uiso   1.00
H174   H     0.27968   0.80711   0.41786   0.00000  Uiso   1.00
H175   H     0.36335   0.07581   0.57528   0.00000  Uiso   1.00
O176   O     0.76989   0.33172   0.05746   0.00000  Uiso   1.00
O177   O     0.28059   0.87965   0.32881   0.00000  Uiso   1.00
O178   O     0.39037   0.92020   0.53534   0.00000  Uiso   1.00
N179   N     0.86163   0.31946   0.07856   0.00000  Uiso   1.00
N180   N     0.22556   0.70995   0.27191   0.00000  Uiso   1.00
N181   N     0.30380   0.02626   0.41910   0.00000  Uiso   1.00
N182   N     0.89486   0.37000   0.17992   0.00000  Uiso   1.00
N183   N     0.25879   0.76049   0.37328   0.00000  Uiso   1.00
N184   N     0.33703   0.07680   0.52046   0.00000  Uiso   1.00
C185   C     0.62685   0.45193   0.74670   0.00000  Uiso   1.00
C186   C     0.56192   0.44734   0.72520   0.00000  Uiso   1.00
C187   C     0.48860   0.47158   0.65050   0.00000  Uiso   1.00
C188   C     0.43744   0.46242   0.64300   0.00000  Uiso   1.00
C189   C     0.33334   0.46013   0.59972   0.00000  Uiso   1.00
C190   C     0.66202   0.33966   0.77811   0.00000  Uiso   1.00
C191   C     0.67288   0.27337   0.74792   0.00000  Uiso   1.00
C192   C     0.70599   0.17358   0.78498   0.00000  Uiso   1.00
C193   C     0.75736   0.00416   0.82389   0.00000  Uiso   1.00
C194   C     0.68370   0.52811   0.81870   0.00000  Uiso   1.00
C195   C     0.71280   0.62026   0.82264   0.00000  Uiso   1.00
C196   C     0.76419   0.67911   0.89388   0.00000  Uiso   1.00
C197   C     0.84921   0.80229   0.99580   0.00000  Uiso   1.00
C198   C     0.66637   0.39256   0.86622   0.00000  Uiso   1.00
C199   C     0.58339   0.41509   0.79012   0.00000  Uiso   1.00
C200   C     0.53233   0.40589   0.78273   0.00000  Uiso   1.00
C201   C     0.45895   0.43012   0.70804   0.00000  Uiso   1.00
C202   C     0.68349   0.30741   0.84303   0.00000  Uiso   1.00
C203   C     0.71660   0.20769   0.88015   0.00000  Uiso   1.00
C204   C     0.72750   0.14127   0.85001   0.00000  Uiso   1.00
C205   C     0.70517   0.49586   0.88362   0.00000  Uiso   1.00
C206   C     0.75652   0.55458   0.95487   0.00000  Uiso   1.00
C207   C     0.78569   0.64681   0.95891   0.00000  Uiso   1.00
H208   H     0.61014   0.47703   0.69616   0.00000  Uiso   1.00
H209   H     0.47201   0.49652   0.60027   0.00000  Uiso   1.00
H210   H     0.65626   0.29835   0.69768   0.00000  Uiso   1.00
H211   H     0.69618   0.64519   0.77239   0.00000  Uiso   1.00
H212   H     0.32832   0.50387   0.52258   0.00000  Uiso   1.00
H213   H     0.71686   0.08604   0.72799   0.00000  Uiso   1.00
H214   H     0.80103   0.81741   0.88552   0.00000  Uiso   1.00
H215   H     0.68309   0.36746   0.91677   0.00000  Uiso   1.00
H216   H     0.54896   0.38094   0.83298   0.00000  Uiso   1.00
H217   H     0.73321   0.18277   0.93039   0.00000  Uiso   1.00
H218   H     0.77312   0.52960   0.00509   0.00000  Uiso   1.00
H219   H     0.39078   0.41005   0.71146   0.00000  Uiso   1.00
H220   H     0.77932   0.99222   0.91687   0.00000  Uiso   1.00
H221   H     0.86348   0.72359   0.07440   0.00000  Uiso   1.00
O222   O     0.26999   0.46777   0.55791   0.00000  Uiso   1.00
O223   O     0.77975   0.91961   0.82741   0.00000  Uiso   1.00
O224   O     0.89017   0.87914   0.03409   0.00000  Uiso   1.00
N225   N     0.36143   0.47996   0.57854   0.00000  Uiso   1.00
N226   N     0.72468   0.08931   0.77057   0.00000  Uiso   1.00
N227   N     0.80338   0.77306   0.91786   0.00000  Uiso   1.00
N228   N     0.39504   0.42948   0.68017   0.00000  Uiso   1.00
N229   N     0.75829   0.03883   0.87220   0.00000  Uiso   1.00
N230   N     0.83699   0.72258   0.01949   0.00000  Uiso   1.00
C231   C     0.12738   0.15261   0.74759   0.00000  Uiso   1.00
C232   C     0.06227   0.14797   0.72578   0.00000  Uiso   1.00
C233   C     0.98900   0.17221   0.65097   0.00000  Uiso   1.00
C234   C     0.93765   0.16301   0.64319   0.00000  Uiso   1.00
C235   C     0.83331   0.16067   0.59947   0.00000  Uiso   1.00
C236   C     0.16256   0.04034   0.77906   0.00000  Uiso   1.00
C237   C     0.17362   0.97409   0.74906   0.00000  Uiso   1.00
C238   C     0.20671   0.87429   0.78614   0.00000  Uiso   1.00
C239   C     0.25811   0.70488   0.82518   0.00000  Uiso   1.00
C240   C     0.18411   0.22877   0.81962   0.00000  Uiso   1.00
C241   C     0.21332   0.32095   0.82373   0.00000  Uiso   1.00
C242   C     0.26456   0.37978   0.89497   0.00000  Uiso   1.00
C243   C     0.34943   0.50294   0.99697   0.00000  Uiso   1.00
C244   C     0.16646   0.09317   0.86680   0.00000  Uiso   1.00
C245   C     0.08350   0.11568   0.79053   0.00000  Uiso   1.00
C246   C     0.03224   0.10645   0.78287   0.00000  Uiso   1.00
C247   C     0.95892   0.13068   0.70806   0.00000  Uiso   1.00
C248   C     0.18378   0.00805   0.84381   0.00000  Uiso   1.00
C249   C     0.21686   0.90833   0.88095   0.00000  Uiso   1.00
C250   C     0.22797   0.84195   0.85101   0.00000  Uiso   1.00
C251   C     0.20534   0.19649   0.88437   0.00000  Uiso   1.00
C252   C     0.25655   0.25519   0.95562   0.00000  Uiso   1.00
C253   C     0.28582   0.34744   0.95983   0.00000  Uiso   1.00
H254   H     0.11086   0.17774   0.69718   0.00000  Uiso   1.00
H255   H     0.97260   0.19718   0.60088   0.00000  Uiso   1.00
H256   H     0.15720   0.99910   0.69896   0.00000  Uiso   1.00
H257   H     0.19688   0.34591   0.77361   0.00000  Uiso   1.00
H258   H     0.82867   0.20447   0.52266   0.00000  Uiso   1.00
H259   H     0.21793   0.78682   0.72948   0.00000  Uiso   1.00
H260   H     0.30160   0.51812   0.88690   0.00000  Uiso   1.00
H261   H     0.18299   0.06803   0.91721   0.00000  Uiso   1.00
H262   H     0.04868   0.08146   0.83298   0.00000  Uiso   1.00
H263   H     0.23328   0.88338   0.93106   0.00000  Uiso   1.00
H264   H     0.27296   0.23018   0.00571   0.00000  Uiso   1.00
H265   H     0.89042   0.11054   0.71104   0.00000  Uiso   1.00
H266   H     0.27968   0.69289   0.91786   0.00000  Uiso   1.00
H267   H     0.36335   0.42419   0.07528   0.00000  Uiso   1.00
O268   O     0.76989   0.16828   0.55746   0.00000  Uiso   1.00
O269   O     0.28059   0.62035   0.82881   0.00000  Uiso   1.00
O270   O     0.39037   0.57980   0.03534   0.00000  Uiso   1.00
N271   N     0.86163   0.18054   0.57856   0.00000  Uiso   1.00
N272   N     0.22556   0.79005   0.77191   0.00000  Uiso   1.00
N273   N     0.30380   0.47374   0.91910   0.00000  Uiso   1.00
N274   N     0.89486   0.13000   0.67992   0.00000  Uiso   1.00
N275   N     0.25879   0.73951   0.87328   0.00000  Uiso   1.00
N276   N     0.33703   0.42320   0.02046   0.00000  Uiso   1.00
C277   C     0.37315   0.95193   0.75330   0.00000  Uiso   1.00
C278   C     0.43808   0.94734   0.77480   0.00000  Uiso   1.00
C279   C     0.51140   0.97158   0.84950   0.00000  Uiso   1.00
C280   C     0.56256   0.96242   0.85700   0.00000  Uiso   1.00
C281   C     0.66666   0.96013   0.90028   0.00000  Uiso   1.00
C282   C     0.33798   0.83966   0.72189   0.00000  Uiso   1.00
C283   C     0.32712   0.77337   0.75208   0.00000  Uiso   1.00
C284   C     0.29401   0.67358   0.71502   0.00000  Uiso   1.00
C285   C     0.24264   0.50416   0.67611   0.00000  Uiso   1.00
C286   C     0.31630   0.02811   0.68130   0.00000  Uiso   1.00
C287   C     0.28720   0.12026   0.67736   0.00000  Uiso   1.00
C288   C     0.23581   0.17911   0.60612   0.00000  Uiso   1.00
C289   C     0.15079   0.30229   0.50420   0.00000  Uiso   1.00
C290   C     0.33363   0.89256   0.63378   0.00000  Uiso   1.00
C291   C     0.41661   0.91509   0.70988   0.00000  Uiso   1.00
C292   C     0.46767   0.90589   0.71727   0.00000  Uiso   1.00
C293   C     0.54105   0.93012   0.79196   0.00000  Uiso   1.00
C294   C     0.31651   0.80741   0.65697   0.00000  Uiso   1.00
C295   C     0.28340   0.70769   0.61985   0.00000  Uiso   1.00
C296   C     0.27250   0.64127   0.64999   0.00000  Uiso   1.00
C297   C     0.29483   0.99586   0.61638   0.00000  Uiso   1.00
C298   C     0.24348   0.05458   0.54513   0.00000  Uiso   1.00
C299   C     0.21431   0.14681   0.54109   0.00000  Uiso   1.00
H300   H     0.38986   0.97703   0.80384   0.00000  Uiso   1.00
H301   H     0.52799   0.99652   0.89973   0.00000  Uiso   1.00
H302   H     0.34374   0.79835   0.80232   0.00000  Uiso   1.00
H303   H     0.30382   0.14519   0.72761   0.00000  Uiso   1.00
H304   H     0.67168   0.00387   0.97742   0.00000  Uiso   1.00
H305   H     0.28314   0.58604   0.77201   0.00000  Uiso   1.00
H306   H     0.19897   0.31741   0.61448   0.00000  Uiso   1.00
H307   H     0.31691   0.86746   0.58323   0.00000  Uiso   1.00
H308   H     0.45104   0.88094   0.66702   0.00000  Uiso   1.00
H309   H     0.26679   0.68277   0.56961   0.00000  Uiso   1.00
H310   H     0.22688   0.02960   0.49491   0.00000  Uiso   1.00
H311   H     0.60922   0.91005   0.78854   0.00000  Uiso   1.00
H312   H     0.22068   0.49222   0.58313   0.00000  Uiso   1.00
H313   H     0.13652   0.22359   0.42560   0.00000  Uiso   1.00
O314   O     0.73001   0.96777   0.94209   0.00000  Uiso   1.00
O315   O     0.22025   0.41961   0.67259   0.00000  Uiso   1.00
O316   O     0.10983   0.37914   0.46591   0.00000  Uiso   1.00
N317   N     0.63857   0.97996   0.92146   0.00000  Uiso   1.00
N318   N     0.27532   0.58931   0.72943   0.00000  Uiso   1.00
N319   N     0.19662   0.27306   0.58214   0.00000  Uiso   1.00
N320   N     0.60496   0.92948   0.81983   0.00000  Uiso   1.00
N321   N     0.24171   0.53883   0.62780   0.00000  Uiso   1.00
N322   N     0.16301   0.22258   0.48051   0.00000  Uiso   1.00
C323   C     0.87262   0.65261   0.75241   0.00000  Uiso   1.00
C324   C     0.93773   0.64797   0.77422   0.00000  Uiso   1.00
C325   C     0.01100   0.67221   0.84903   0.00000  Uiso   1.00
C326   C     0.06235   0.66301   0.85681   0.00000  Uiso   1.00
C327   C     0.16669   0.66067   0.90053   0.00000  Uiso   1.00
C328   C     0.83744   0.54034   0.72094   0.00000  Uiso   1.00
C329   C     0.82638   0.47409   0.75094   0.00000  Uiso   1.00
C330   C     0.79329   0.37429   0.71386   0.00000  Uiso   1.00
C331   C     0.74189   0.20488   0.67482   0.00000  Uiso   1.00
C332   C     0.81589   0.72877   0.68038   0.00000  Uiso   1.00
C333   C     0.78668   0.82095   0.67627   0.00000  Uiso   1.00
C334   C     0.73544   0.87978   0.60503   0.00000  Uiso   1.00
C335   C     0.65057   0.00294   0.50303   0.00000  Uiso   1.00
C336   C     0.83354   0.59317   0.63320   0.00000  Uiso   1.00
C337   C     0.91650   0.61568   0.70947   0.00000  Uiso   1.00
C338   C     0.96776   0.60645   0.71713   0.00000  Uiso   1.00
C339   C     0.04108   0.63068   0.79194   0.00000  Uiso   1.00
C340   C     0.81622   0.50805   0.65619   0.00000  Uiso   1.00
C341   C     0.78314   0.40833   0.61905   0.00000  Uiso   1.00
C342   C     0.77203   0.34195   0.64899   0.00000  Uiso   1.00
C343   C     0.79466   0.69649   0.61563   0.00000  Uiso   1.00
C344   C     0.74345   0.75519   0.54438   0.00000  Uiso   1.00
C345   C     0.71418   0.84744   0.54017   0.00000  Uiso   1.00
H346   H     0.88914   0.67774   0.80282   0.00000  Uiso   1.00
H347   H     0.02740   0.69718   0.89912   0.00000  Uiso   1.00
H348   H     0.84280   0.49910   0.80104   0.00000  Uiso   1.00
H349   H     0.80312   0.84591   0.72639   0.00000  Uiso   1.00
H350   H     0.17133   0.70447   0.97734   0.00000  Uiso   1.00
H351   H     0.78207   0.28682   0.77052   0.00000  Uiso   1.00
H352   H     0.69840   0.01812   0.61310   0.00000  Uiso   1.00
H353   H     0.81701   0.56803   0.58279   0.00000  Uiso   1.00
H354   H     0.95132   0.58146   0.66702   0.00000  Uiso   1.00
H355   H     0.76672   0.38338   0.56894   0.00000  Uiso   1.00
H356   H     0.72704   0.73018   0.49429   0.00000  Uiso   1.00
H357   H     0.10958   0.61054   0.78896   0.00000  Uiso   1.00
H358   H     0.72032   0.19289   0.58214   0.00000  Uiso   1.00
H359   H     0.63665   0.92419   0.42472   0.00000  Uiso   1.00
O360   O     0.23011   0.66828   0.94254   0.00000  Uiso   1.00
O361   O     0.71941   0.12035   0.67119   0.00000  Uiso   1.00
O362   O     0.60963   0.07980   0.46466   0.00000  Uiso   1.00
N363   N     0.13837   0.68054   0.92144   0.00000  Uiso   1.00
N364   N     0.77444   0.29005   0.72809   0.00000  Uiso   1.00
N365   N     0.69620   0.97374   0.58090   0.00000  Uiso   1.00
N366   N     0.10514   0.63000   0.82008   0.00000  Uiso   1.00
N367   N     0.74121   0.23951   0.62672   0.00000  Uiso   1.00
N368   N     0.66297   0.92320   0.47954   0.00000  Uiso   1.00
