data_job_05778
_audit_creation_date              2018-12-19
_audit_creation_method            'Materials Studio'
_symmetry_space_group_name_H-M    'P1'
_symmetry_Int_Tables_number       1
_symmetry_cell_setting            triclinic
loop_
_symmetry_equiv_pos_as_xyz
  x,y,z
_cell_length_a                    41.9109
_cell_length_b                    7.7970
_cell_length_c                    55.6308
_cell_angle_alpha                 90.0000
_cell_angle_beta                  160.3300
_cell_angle_gamma                 90.0000
loop_
_atom_site_label
_atom_site_type_symbol
_atom_site_fract_x
_atom_site_fract_y
_atom_site_fract_z
_atom_site_U_iso_or_equiv
_atom_site_adp_type
_atom_site_occupancy
C1     C     0.77585   0.66775   0.17633   0.00000  Uiso   1.00
C2     C     0.73497   0.64275   0.17247   0.00000  Uiso   1.00
C3     C     0.70884   0.48707   0.16404   0.00000  Uiso   1.00
C4     C     0.67286   0.49126   0.16174   0.00000  Uiso   1.00
C5     C     0.61078   0.42895   0.15480   0.00000  Uiso   1.00
C6     C     0.71052   0.79501   0.11739   0.00000  Uiso   1.00
C7     C     0.66385   0.76734   0.06266   0.00000  Uiso   1.00
C8     C     0.60730   0.89973   0.01400   0.00000  Uiso   1.00
C9     C     0.50732   0.07385   0.92157   0.00000  Uiso   1.00
C10    C     0.87011   0.76033   0.24661   0.00000  Uiso   1.00
C11    C     0.95762   0.70355   0.30053   0.00000  Uiso   1.00
C12    C     0.03543   0.80676   0.36066   0.00000  Uiso   1.00
C13    C     0.18324   0.92705   0.46888   0.00000  Uiso   1.00
C14    C     0.75843   0.95205   0.18723   0.00000  Uiso   1.00
C15    C     0.72551   0.79717   0.17838   0.00000  Uiso   1.00
C16    C     0.68957   0.80160   0.17610   0.00000  Uiso   1.00
C17    C     0.66339   0.64595   0.16767   0.00000  Uiso   1.00
C18    C     0.70106   0.94942   0.12330   0.00000  Uiso   1.00
C19    C     0.64457   0.08188   0.07471   0.00000  Uiso   1.00
C20    C     0.59782   0.05442   0.01992   0.00000  Uiso   1.00
C21    C     0.86065   0.91475   0.25253   0.00000  Uiso   1.00
C22    C     0.93834   0.01808   0.31259   0.00000  Uiso   1.00
C23    C     0.02595   0.96146   0.36659   0.00000  Uiso   1.00
H24    H     0.78321   0.54754   0.17172   0.00000  Uiso   1.00
H25    H     0.71616   0.36759   0.15946   0.00000  Uiso   1.00
H26    H     0.67119   0.64784   0.05809   0.00000  Uiso   1.00
H27    H     0.96491   0.58405   0.29593   0.00000  Uiso   1.00
H28    H     0.63762   0.23620   0.14844   0.00000  Uiso   1.00
H29    H     0.54282   0.82713   0.93473   0.00000  Uiso   1.00
H30    H     0.16219   0.69261   0.43626   0.00000  Uiso   1.00
H31    H     0.75106   0.07228   0.19184   0.00000  Uiso   1.00
H32    H     0.68225   0.92112   0.18068   0.00000  Uiso   1.00
H33    H     0.63727   0.20136   0.07931   0.00000  Uiso   1.00
H34    H     0.93099   0.13757   0.31715   0.00000  Uiso   1.00
H35    H     0.61009   0.68546   0.16566   0.00000  Uiso   1.00
H36    H     0.51529   0.27639   0.95195   0.00000  Uiso   1.00
H37    H     0.13466   0.14187   0.45348   0.00000  Uiso   1.00
O38    O     0.57914   0.35193   0.14932   0.00000  Uiso   1.00
O39    O     0.45477   0.12722   0.86895   0.00000  Uiso   1.00
O40    O     0.26738   0.95073   0.52694   0.00000  Uiso   1.00
N41    N     0.64061   0.36267   0.15404   0.00000  Uiso   1.00
N42    N     0.55195   0.91514   0.95422   0.00000  Uiso   1.00
N43    N     0.13101   0.78940   0.42310   0.00000  Uiso   1.00
N44    N     0.62579   0.60441   0.16331   0.00000  Uiso   1.00
N45    N     0.53714   0.15689   0.96349   0.00000  Uiso   1.00
N46    N     0.11620   0.03115   0.43237   0.00000  Uiso   1.00
C47    C     0.27585   0.16775   0.17633   0.00000  Uiso   1.00
C48    C     0.23497   0.14275   0.17247   0.00000  Uiso   1.00
C49    C     0.20884   0.98707   0.16404   0.00000  Uiso   1.00
C50    C     0.17286   0.99126   0.16174   0.00000  Uiso   1.00
C51    C     0.11078   0.92895   0.15480   0.00000  Uiso   1.00
C52    C     0.21052   0.29501   0.11739   0.00000  Uiso   1.00
C53    C     0.16385   0.26734   0.06266   0.00000  Uiso   1.00
C54    C     0.10730   0.39973   0.01400   0.00000  Uiso   1.00
C55    C     0.00732   0.57385   0.92157   0.00000  Uiso   1.00
C56    C     0.37011   0.26033   0.24661   0.00000  Uiso   1.00
C57    C     0.45762   0.20355   0.30053   0.00000  Uiso   1.00
C58    C     0.53543   0.30676   0.36066   0.00000  Uiso   1.00
C59    C     0.68324   0.42705   0.46888   0.00000  Uiso   1.00
C60    C     0.25843   0.45205   0.18723   0.00000  Uiso   1.00
C61    C     0.22551   0.29717   0.17838   0.00000  Uiso   1.00
C62    C     0.18957   0.30160   0.17610   0.00000  Uiso   1.00
C63    C     0.16339   0.14595   0.16767   0.00000  Uiso   1.00
C64    C     0.20106   0.44942   0.12330   0.00000  Uiso   1.00
C65    C     0.14457   0.58188   0.07471   0.00000  Uiso   1.00
C66    C     0.09782   0.55442   0.01992   0.00000  Uiso   1.00
C67    C     0.36065   0.41475   0.25253   0.00000  Uiso   1.00
C68    C     0.43834   0.51808   0.31259   0.00000  Uiso   1.00
C69    C     0.52595   0.46146   0.36659   0.00000  Uiso   1.00
H70    H     0.28321   0.04754   0.17172   0.00000  Uiso   1.00
H71    H     0.21616   0.86759   0.15946   0.00000  Uiso   1.00
H72    H     0.17119   0.14784   0.05809   0.00000  Uiso   1.00
H73    H     0.46491   0.08405   0.29593   0.00000  Uiso   1.00
H74    H     0.13762   0.73620   0.14844   0.00000  Uiso   1.00
H75    H     0.04282   0.32713   0.93473   0.00000  Uiso   1.00
H76    H     0.66219   0.19261   0.43626   0.00000  Uiso   1.00
H77    H     0.25106   0.57228   0.19184   0.00000  Uiso   1.00
H78    H     0.18225   0.42112   0.18068   0.00000  Uiso   1.00
H79    H     0.13727   0.70136   0.07931   0.00000  Uiso   1.00
H80    H     0.43099   0.63757   0.31715   0.00000  Uiso   1.00
H81    H     0.11009   0.18546   0.16566   0.00000  Uiso   1.00
H82    H     0.01529   0.77639   0.95195   0.00000  Uiso   1.00
H83    H     0.63466   0.64187   0.45348   0.00000  Uiso   1.00
O84    O     0.07914   0.85193   0.14932   0.00000  Uiso   1.00
O85    O     0.95477   0.62722   0.86895   0.00000  Uiso   1.00
O86    O     0.76738   0.45073   0.52694   0.00000  Uiso   1.00
N87    N     0.14061   0.86267   0.15404   0.00000  Uiso   1.00
N88    N     0.05195   0.41514   0.95422   0.00000  Uiso   1.00
N89    N     0.63101   0.28940   0.42310   0.00000  Uiso   1.00
N90    N     0.12579   0.10441   0.16331   0.00000  Uiso   1.00
N91    N     0.03714   0.65689   0.96349   0.00000  Uiso   1.00
N92    N     0.61620   0.53115   0.43237   0.00000  Uiso   1.00
C93    C     0.22415   0.66775   0.32367   0.00000  Uiso   1.00
C94    C     0.26503   0.64275   0.32753   0.00000  Uiso   1.00
C95    C     0.29116   0.48707   0.33596   0.00000  Uiso   1.00
C96    C     0.32714   0.49126   0.33826   0.00000  Uiso   1.00
C97    C     0.38922   0.42895   0.34520   0.00000  Uiso   1.00
C98    C     0.28948   0.79501   0.38261   0.00000  Uiso   1.00
C99    C     0.33615   0.76734   0.43734   0.00000  Uiso   1.00
C100   C     0.39270   0.89973   0.48600   0.00000  Uiso   1.00
C101   C     0.49268   0.07385   0.57843   0.00000  Uiso   1.00
C102   C     0.12989   0.76033   0.25339   0.00000  Uiso   1.00
C103   C     0.04238   0.70355   0.19947   0.00000  Uiso   1.00
C104   C     0.96457   0.80676   0.13934   0.00000  Uiso   1.00
C105   C     0.81676   0.92705   0.03112   0.00000  Uiso   1.00
C106   C     0.24157   0.95205   0.31277   0.00000  Uiso   1.00
C107   C     0.27449   0.79717   0.32162   0.00000  Uiso   1.00
C108   C     0.31043   0.80160   0.32390   0.00000  Uiso   1.00
C109   C     0.33661   0.64595   0.33233   0.00000  Uiso   1.00
C110   C     0.29894   0.94942   0.37670   0.00000  Uiso   1.00
C111   C     0.35543   0.08188   0.42529   0.00000  Uiso   1.00
C112   C     0.40218   0.05442   0.48008   0.00000  Uiso   1.00
C113   C     0.13935   0.91475   0.24747   0.00000  Uiso   1.00
C114   C     0.06166   0.01808   0.18741   0.00000  Uiso   1.00
C115   C     0.97405   0.96146   0.13341   0.00000  Uiso   1.00
H116   H     0.21679   0.54754   0.32828   0.00000  Uiso   1.00
H117   H     0.28384   0.36759   0.34054   0.00000  Uiso   1.00
H118   H     0.32881   0.64784   0.44191   0.00000  Uiso   1.00
H119   H     0.03509   0.58405   0.20407   0.00000  Uiso   1.00
H120   H     0.36238   0.23620   0.35156   0.00000  Uiso   1.00
H121   H     0.45718   0.82713   0.56527   0.00000  Uiso   1.00
H122   H     0.83781   0.69261   0.06374   0.00000  Uiso   1.00
H123   H     0.24894   0.07228   0.30816   0.00000  Uiso   1.00
H124   H     0.31775   0.92112   0.31932   0.00000  Uiso   1.00
H125   H     0.36273   0.20136   0.42069   0.00000  Uiso   1.00
H126   H     0.06901   0.13757   0.18285   0.00000  Uiso   1.00
H127   H     0.38991   0.68546   0.33434   0.00000  Uiso   1.00
H128   H     0.48471   0.27639   0.54805   0.00000  Uiso   1.00
H129   H     0.86534   0.14187   0.04652   0.00000  Uiso   1.00
O130   O     0.42086   0.35193   0.35068   0.00000  Uiso   1.00
O131   O     0.54523   0.12722   0.63105   0.00000  Uiso   1.00
O132   O     0.73262   0.95073   0.97306   0.00000  Uiso   1.00
N133   N     0.35939   0.36267   0.34596   0.00000  Uiso   1.00
N134   N     0.44805   0.91514   0.54578   0.00000  Uiso   1.00
N135   N     0.86899   0.78940   0.07690   0.00000  Uiso   1.00
N136   N     0.37421   0.60441   0.33669   0.00000  Uiso   1.00
N137   N     0.46286   0.15689   0.53651   0.00000  Uiso   1.00
N138   N     0.88380   0.03115   0.06763   0.00000  Uiso   1.00
C139   C     0.72415   0.16775   0.32367   0.00000  Uiso   1.00
C140   C     0.76503   0.14275   0.32753   0.00000  Uiso   1.00
C141   C     0.79116   0.98707   0.33596   0.00000  Uiso   1.00
C142   C     0.82714   0.99126   0.33826   0.00000  Uiso   1.00
C143   C     0.88922   0.92895   0.34520   0.00000  Uiso   1.00
C144   C     0.78948   0.29501   0.38261   0.00000  Uiso   1.00
C145   C     0.83615   0.26734   0.43734   0.00000  Uiso   1.00
C146   C     0.89270   0.39973   0.48600   0.00000  Uiso   1.00
C147   C     0.99268   0.57385   0.57843   0.00000  Uiso   1.00
C148   C     0.62989   0.26033   0.25339   0.00000  Uiso   1.00
C149   C     0.54238   0.20355   0.19947   0.00000  Uiso   1.00
C150   C     0.46457   0.30676   0.13934   0.00000  Uiso   1.00
C151   C     0.31676   0.42705   0.03112   0.00000  Uiso   1.00
C152   C     0.74157   0.45205   0.31277   0.00000  Uiso   1.00
C153   C     0.77449   0.29717   0.32162   0.00000  Uiso   1.00
C154   C     0.81043   0.30160   0.32390   0.00000  Uiso   1.00
C155   C     0.83661   0.14595   0.33233   0.00000  Uiso   1.00
C156   C     0.79894   0.44942   0.37670   0.00000  Uiso   1.00
C157   C     0.85543   0.58188   0.42529   0.00000  Uiso   1.00
C158   C     0.90218   0.55442   0.48008   0.00000  Uiso   1.00
C159   C     0.63935   0.41475   0.24747   0.00000  Uiso   1.00
C160   C     0.56166   0.51808   0.18741   0.00000  Uiso   1.00
C161   C     0.47405   0.46146   0.13341   0.00000  Uiso   1.00
H162   H     0.71679   0.04754   0.32828   0.00000  Uiso   1.00
H163   H     0.78384   0.86759   0.34054   0.00000  Uiso   1.00
H164   H     0.82881   0.14784   0.44191   0.00000  Uiso   1.00
H165   H     0.53509   0.08405   0.20407   0.00000  Uiso   1.00
H166   H     0.86238   0.73620   0.35156   0.00000  Uiso   1.00
H167   H     0.95718   0.32713   0.56527   0.00000  Uiso   1.00
H168   H     0.33781   0.19261   0.06374   0.00000  Uiso   1.00
H169   H     0.74894   0.57228   0.30816   0.00000  Uiso   1.00
H170   H     0.81775   0.42112   0.31932   0.00000  Uiso   1.00
H171   H     0.86273   0.70136   0.42069   0.00000  Uiso   1.00
H172   H     0.56901   0.63757   0.18285   0.00000  Uiso   1.00
H173   H     0.88991   0.18546   0.33434   0.00000  Uiso   1.00
H174   H     0.98471   0.77639   0.54805   0.00000  Uiso   1.00
H175   H     0.36534   0.64187   0.04652   0.00000  Uiso   1.00
O176   O     0.92086   0.85193   0.35068   0.00000  Uiso   1.00
O177   O     0.04523   0.62722   0.63105   0.00000  Uiso   1.00
O178   O     0.23262   0.45073   0.97306   0.00000  Uiso   1.00
N179   N     0.85939   0.86267   0.34596   0.00000  Uiso   1.00
N180   N     0.94805   0.41514   0.54578   0.00000  Uiso   1.00
N181   N     0.36899   0.28940   0.07690   0.00000  Uiso   1.00
N182   N     0.87421   0.10441   0.33669   0.00000  Uiso   1.00
N183   N     0.96286   0.65689   0.53651   0.00000  Uiso   1.00
N184   N     0.38380   0.53115   0.06763   0.00000  Uiso   1.00
C185   C     0.22415   0.33225   0.82367   0.00000  Uiso   1.00
C186   C     0.26503   0.35725   0.82753   0.00000  Uiso   1.00
C187   C     0.29116   0.51293   0.83596   0.00000  Uiso   1.00
C188   C     0.32714   0.50874   0.83826   0.00000  Uiso   1.00
C189   C     0.38922   0.57105   0.84520   0.00000  Uiso   1.00
C190   C     0.28948   0.20499   0.88261   0.00000  Uiso   1.00
C191   C     0.33615   0.23266   0.93734   0.00000  Uiso   1.00
C192   C     0.39270   0.10027   0.98600   0.00000  Uiso   1.00
C193   C     0.49268   0.92615   0.07843   0.00000  Uiso   1.00
C194   C     0.12989   0.23967   0.75339   0.00000  Uiso   1.00
C195   C     0.04238   0.29645   0.69947   0.00000  Uiso   1.00
C196   C     0.96457   0.19324   0.63934   0.00000  Uiso   1.00
C197   C     0.81676   0.07295   0.53112   0.00000  Uiso   1.00
C198   C     0.24157   0.04795   0.81277   0.00000  Uiso   1.00
C199   C     0.27449   0.20283   0.82162   0.00000  Uiso   1.00
C200   C     0.31043   0.19840   0.82390   0.00000  Uiso   1.00
C201   C     0.33661   0.35405   0.83233   0.00000  Uiso   1.00
C202   C     0.29894   0.05058   0.87670   0.00000  Uiso   1.00
C203   C     0.35543   0.91812   0.92529   0.00000  Uiso   1.00
C204   C     0.40218   0.94558   0.98008   0.00000  Uiso   1.00
C205   C     0.13935   0.08525   0.74747   0.00000  Uiso   1.00
C206   C     0.06166   0.98192   0.68741   0.00000  Uiso   1.00
C207   C     0.97405   0.03854   0.63341   0.00000  Uiso   1.00
H208   H     0.21679   0.45246   0.82828   0.00000  Uiso   1.00
H209   H     0.28384   0.63241   0.84054   0.00000  Uiso   1.00
H210   H     0.32881   0.35216   0.94191   0.00000  Uiso   1.00
H211   H     0.03509   0.41595   0.70407   0.00000  Uiso   1.00
H212   H     0.36238   0.76380   0.85156   0.00000  Uiso   1.00
H213   H     0.45718   0.17287   0.06527   0.00000  Uiso   1.00
H214   H     0.83781   0.30739   0.56374   0.00000  Uiso   1.00
H215   H     0.24894   0.92772   0.80816   0.00000  Uiso   1.00
H216   H     0.31775   0.07888   0.81932   0.00000  Uiso   1.00
H217   H     0.36273   0.79864   0.92069   0.00000  Uiso   1.00
H218   H     0.06901   0.86243   0.68285   0.00000  Uiso   1.00
H219   H     0.38991   0.31454   0.83434   0.00000  Uiso   1.00
H220   H     0.48471   0.72361   0.04805   0.00000  Uiso   1.00
H221   H     0.86534   0.85813   0.54652   0.00000  Uiso   1.00
O222   O     0.42086   0.64807   0.85068   0.00000  Uiso   1.00
O223   O     0.54523   0.87278   0.13105   0.00000  Uiso   1.00
O224   O     0.73262   0.04927   0.47306   0.00000  Uiso   1.00
N225   N     0.35939   0.63733   0.84596   0.00000  Uiso   1.00
N226   N     0.44805   0.08486   0.04578   0.00000  Uiso   1.00
N227   N     0.86899   0.21060   0.57690   0.00000  Uiso   1.00
N228   N     0.37421   0.39559   0.83669   0.00000  Uiso   1.00
N229   N     0.46286   0.84311   0.03651   0.00000  Uiso   1.00
N230   N     0.88380   0.96885   0.56763   0.00000  Uiso   1.00
C231   C     0.72415   0.83225   0.82367   0.00000  Uiso   1.00
C232   C     0.76503   0.85725   0.82753   0.00000  Uiso   1.00
C233   C     0.79116   0.01293   0.83596   0.00000  Uiso   1.00
C234   C     0.82714   0.00874   0.83826   0.00000  Uiso   1.00
C235   C     0.88922   0.07105   0.84520   0.00000  Uiso   1.00
C236   C     0.78948   0.70499   0.88261   0.00000  Uiso   1.00
C237   C     0.83615   0.73266   0.93734   0.00000  Uiso   1.00
C238   C     0.89270   0.60027   0.98600   0.00000  Uiso   1.00
C239   C     0.99268   0.42615   0.07843   0.00000  Uiso   1.00
C240   C     0.62989   0.73967   0.75339   0.00000  Uiso   1.00
C241   C     0.54238   0.79645   0.69947   0.00000  Uiso   1.00
C242   C     0.46457   0.69324   0.63934   0.00000  Uiso   1.00
C243   C     0.31676   0.57295   0.53112   0.00000  Uiso   1.00
C244   C     0.74157   0.54795   0.81277   0.00000  Uiso   1.00
C245   C     0.77449   0.70283   0.82162   0.00000  Uiso   1.00
C246   C     0.81043   0.69840   0.82390   0.00000  Uiso   1.00
C247   C     0.83661   0.85405   0.83233   0.00000  Uiso   1.00
C248   C     0.79894   0.55058   0.87670   0.00000  Uiso   1.00
C249   C     0.85543   0.41812   0.92529   0.00000  Uiso   1.00
C250   C     0.90218   0.44558   0.98008   0.00000  Uiso   1.00
C251   C     0.63935   0.58525   0.74747   0.00000  Uiso   1.00
C252   C     0.56166   0.48192   0.68741   0.00000  Uiso   1.00
C253   C     0.47405   0.53854   0.63341   0.00000  Uiso   1.00
H254   H     0.71679   0.95246   0.82828   0.00000  Uiso   1.00
H255   H     0.78384   0.13241   0.84054   0.00000  Uiso   1.00
H256   H     0.82881   0.85216   0.94191   0.00000  Uiso   1.00
H257   H     0.53509   0.91595   0.70407   0.00000  Uiso   1.00
H258   H     0.86238   0.26380   0.85156   0.00000  Uiso   1.00
H259   H     0.95718   0.67287   0.06527   0.00000  Uiso   1.00
H260   H     0.33781   0.80739   0.56374   0.00000  Uiso   1.00
H261   H     0.74894   0.42772   0.80816   0.00000  Uiso   1.00
H262   H     0.81775   0.57888   0.81932   0.00000  Uiso   1.00
H263   H     0.86273   0.29864   0.92069   0.00000  Uiso   1.00
H264   H     0.56901   0.36243   0.68285   0.00000  Uiso   1.00
H265   H     0.88991   0.81454   0.83434   0.00000  Uiso   1.00
H266   H     0.98471   0.22361   0.04805   0.00000  Uiso   1.00
H267   H     0.36534   0.35813   0.54652   0.00000  Uiso   1.00
O268   O     0.92086   0.14807   0.85068   0.00000  Uiso   1.00
O269   O     0.04523   0.37278   0.13105   0.00000  Uiso   1.00
O270   O     0.23262   0.54927   0.47306   0.00000  Uiso   1.00
N271   N     0.85939   0.13733   0.84596   0.00000  Uiso   1.00
N272   N     0.94805   0.58486   0.04578   0.00000  Uiso   1.00
N273   N     0.36899   0.71060   0.57690   0.00000  Uiso   1.00
N274   N     0.87421   0.89559   0.83669   0.00000  Uiso   1.00
N275   N     0.96286   0.34311   0.03651   0.00000  Uiso   1.00
N276   N     0.38380   0.46885   0.56763   0.00000  Uiso   1.00
C277   C     0.77585   0.33225   0.67633   0.00000  Uiso   1.00
C278   C     0.73497   0.35725   0.67247   0.00000  Uiso   1.00
C279   C     0.70884   0.51293   0.66404   0.00000  Uiso   1.00
C280   C     0.67286   0.50874   0.66174   0.00000  Uiso   1.00
C281   C     0.61078   0.57105   0.65480   0.00000  Uiso   1.00
C282   C     0.71052   0.20499   0.61739   0.00000  Uiso   1.00
C283   C     0.66385   0.23266   0.56266   0.00000  Uiso   1.00
C284   C     0.60730   0.10027   0.51400   0.00000  Uiso   1.00
C285   C     0.50732   0.92615   0.42157   0.00000  Uiso   1.00
C286   C     0.87011   0.23967   0.74661   0.00000  Uiso   1.00
C287   C     0.95762   0.29645   0.80053   0.00000  Uiso   1.00
C288   C     0.03543   0.19324   0.86066   0.00000  Uiso   1.00
C289   C     0.18324   0.07295   0.96888   0.00000  Uiso   1.00
C290   C     0.75843   0.04795   0.68723   0.00000  Uiso   1.00
C291   C     0.72551   0.20283   0.67838   0.00000  Uiso   1.00
C292   C     0.68957   0.19840   0.67610   0.00000  Uiso   1.00
C293   C     0.66339   0.35405   0.66767   0.00000  Uiso   1.00
C294   C     0.70106   0.05058   0.62330   0.00000  Uiso   1.00
C295   C     0.64457   0.91812   0.57471   0.00000  Uiso   1.00
C296   C     0.59782   0.94558   0.51992   0.00000  Uiso   1.00
C297   C     0.86065   0.08525   0.75253   0.00000  Uiso   1.00
C298   C     0.93834   0.98192   0.81259   0.00000  Uiso   1.00
C299   C     0.02595   0.03854   0.86659   0.00000  Uiso   1.00
H300   H     0.78321   0.45246   0.67172   0.00000  Uiso   1.00
H301   H     0.71616   0.63241   0.65946   0.00000  Uiso   1.00
H302   H     0.67119   0.35216   0.55809   0.00000  Uiso   1.00
H303   H     0.96491   0.41595   0.79593   0.00000  Uiso   1.00
H304   H     0.63762   0.76380   0.64844   0.00000  Uiso   1.00
H305   H     0.54282   0.17287   0.43473   0.00000  Uiso   1.00
H306   H     0.16219   0.30739   0.93626   0.00000  Uiso   1.00
H307   H     0.75106   0.92772   0.69184   0.00000  Uiso   1.00
H308   H     0.68225   0.07888   0.68068   0.00000  Uiso   1.00
H309   H     0.63727   0.79864   0.57931   0.00000  Uiso   1.00
H310   H     0.93099   0.86243   0.81715   0.00000  Uiso   1.00
H311   H     0.61009   0.31454   0.66566   0.00000  Uiso   1.00
H312   H     0.51529   0.72361   0.45195   0.00000  Uiso   1.00
H313   H     0.13466   0.85813   0.95348   0.00000  Uiso   1.00
O314   O     0.57914   0.64807   0.64932   0.00000  Uiso   1.00
O315   O     0.45477   0.87278   0.36895   0.00000  Uiso   1.00
O316   O     0.26738   0.04927   0.02694   0.00000  Uiso   1.00
N317   N     0.64061   0.63733   0.65404   0.00000  Uiso   1.00
N318   N     0.55195   0.08486   0.45422   0.00000  Uiso   1.00
N319   N     0.13101   0.21060   0.92310   0.00000  Uiso   1.00
N320   N     0.62579   0.39559   0.66331   0.00000  Uiso   1.00
N321   N     0.53714   0.84311   0.46349   0.00000  Uiso   1.00
N322   N     0.11620   0.96885   0.93237   0.00000  Uiso   1.00
C323   C     0.27585   0.83225   0.67633   0.00000  Uiso   1.00
C324   C     0.23497   0.85725   0.67247   0.00000  Uiso   1.00
C325   C     0.20884   0.01293   0.66404   0.00000  Uiso   1.00
C326   C     0.17286   0.00874   0.66174   0.00000  Uiso   1.00
C327   C     0.11078   0.07105   0.65480   0.00000  Uiso   1.00
C328   C     0.21052   0.70499   0.61739   0.00000  Uiso   1.00
C329   C     0.16385   0.73266   0.56266   0.00000  Uiso   1.00
C330   C     0.10730   0.60027   0.51400   0.00000  Uiso   1.00
C331   C     0.00732   0.42615   0.42157   0.00000  Uiso   1.00
C332   C     0.37011   0.73967   0.74661   0.00000  Uiso   1.00
C333   C     0.45762   0.79645   0.80053   0.00000  Uiso   1.00
C334   C     0.53543   0.69324   0.86066   0.00000  Uiso   1.00
C335   C     0.68324   0.57295   0.96888   0.00000  Uiso   1.00
C336   C     0.25843   0.54795   0.68723   0.00000  Uiso   1.00
C337   C     0.22551   0.70283   0.67838   0.00000  Uiso   1.00
C338   C     0.18957   0.69840   0.67610   0.00000  Uiso   1.00
C339   C     0.16339   0.85405   0.66767   0.00000  Uiso   1.00
C340   C     0.20106   0.55058   0.62330   0.00000  Uiso   1.00
C341   C     0.14457   0.41812   0.57471   0.00000  Uiso   1.00
C342   C     0.09782   0.44558   0.51992   0.00000  Uiso   1.00
C343   C     0.36065   0.58525   0.75253   0.00000  Uiso   1.00
C344   C     0.43834   0.48192   0.81259   0.00000  Uiso   1.00
C345   C     0.52595   0.53854   0.86659   0.00000  Uiso   1.00
H346   H     0.28321   0.95246   0.67172   0.00000  Uiso   1.00
H347   H     0.21616   0.13241   0.65946   0.00000  Uiso   1.00
H348   H     0.17119   0.85216   0.55809   0.00000  Uiso   1.00
H349   H     0.46491   0.91595   0.79593   0.00000  Uiso   1.00
H350   H     0.13762   0.26380   0.64844   0.00000  Uiso   1.00
H351   H     0.04282   0.67287   0.43473   0.00000  Uiso   1.00
H352   H     0.66219   0.80739   0.93626   0.00000  Uiso   1.00
H353   H     0.25106   0.42772   0.69184   0.00000  Uiso   1.00
H354   H     0.18225   0.57888   0.68068   0.00000  Uiso   1.00
H355   H     0.13727   0.29864   0.57931   0.00000  Uiso   1.00
H356   H     0.43099   0.36243   0.81715   0.00000  Uiso   1.00
H357   H     0.11009   0.81454   0.66566   0.00000  Uiso   1.00
H358   H     0.01529   0.22361   0.45195   0.00000  Uiso   1.00
H359   H     0.63466   0.35813   0.95348   0.00000  Uiso   1.00
O360   O     0.07914   0.14807   0.64932   0.00000  Uiso   1.00
O361   O     0.95477   0.37278   0.36895   0.00000  Uiso   1.00
O362   O     0.76738   0.54927   0.02694   0.00000  Uiso   1.00
N363   N     0.14061   0.13733   0.65404   0.00000  Uiso   1.00
N364   N     0.05195   0.58486   0.45422   0.00000  Uiso   1.00
N365   N     0.63101   0.71060   0.92310   0.00000  Uiso   1.00
N366   N     0.12579   0.89559   0.66331   0.00000  Uiso   1.00
N367   N     0.03714   0.34311   0.46349   0.00000  Uiso   1.00
N368   N     0.61620   0.46885   0.93237   0.00000  Uiso   1.00
