data_job_04980
_audit_creation_date              2018-12-19
_audit_creation_method            'Materials Studio'
_symmetry_space_group_name_H-M    'P1'
_symmetry_Int_Tables_number       1
_symmetry_cell_setting            triclinic
loop_
_symmetry_equiv_pos_as_xyz
  x,y,z
_cell_length_a                    9.5472
_cell_length_b                    14.9396
_cell_length_c                    39.4540
_cell_angle_alpha                 90.0000
_cell_angle_beta                  90.0000
_cell_angle_gamma                 90.0000
loop_
_atom_site_label
_atom_site_type_symbol
_atom_site_fract_x
_atom_site_fract_y
_atom_site_fract_z
_atom_site_U_iso_or_equiv
_atom_site_adp_type
_atom_site_occupancy
C1     C     0.22550   0.01709   0.87697   0.00000  Uiso   1.00
C2     C     0.25706   0.06400   0.84350   0.00000  Uiso   1.00
C3     C     0.38409   0.10239   0.83451   0.00000  Uiso   1.00
C4     C     0.39182   0.14209   0.80274   0.00000  Uiso   1.00
C5     C     0.45833   0.21477   0.75412   0.00000  Uiso   1.00
C6     C     0.09925   0.06535   0.89202   0.00000  Uiso   1.00
C7     C     0.09360   0.10487   0.92383   0.00000  Uiso   1.00
C8     C     0.96846   0.14570   0.93291   0.00000  Uiso   1.00
C9     C     0.78994   0.22043   0.95963   0.00000  Uiso   1.00
C10    C     0.17478   0.92346   0.86769   0.00000  Uiso   1.00
C11    C     0.23260   0.84368   0.87904   0.00000  Uiso   1.00
C12    C     0.17104   0.76504   0.86764   0.00000  Uiso   1.00
C13    C     0.10979   0.61947   0.85658   0.00000  Uiso   1.00
C14    C     0.01331   0.01931   0.83655   0.00000  Uiso   1.00
C15    C     0.14180   0.06520   0.82155   0.00000  Uiso   1.00
C16    C     0.14933   0.10485   0.78979   0.00000  Uiso   1.00
C17    C     0.27636   0.14329   0.78075   0.00000  Uiso   1.00
C18    C     0.98400   0.06656   0.87007   0.00000  Uiso   1.00
C19    C     0.85884   0.10733   0.87911   0.00000  Uiso   1.00
C20    C     0.85300   0.14691   0.91092   0.00000  Uiso   1.00
C21    C     0.05953   0.92467   0.84574   0.00000  Uiso   1.00
C22    C     0.99785   0.84614   0.83432   0.00000  Uiso   1.00
C23    C     0.05558   0.76625   0.84565   0.00000  Uiso   1.00
H24    H     0.31522   0.01616   0.89406   0.00000  Uiso   1.00
H25    H     0.47326   0.10145   0.85150   0.00000  Uiso   1.00
H26    H     0.18280   0.10392   0.94081   0.00000  Uiso   1.00
H27    H     0.32179   0.84277   0.89603   0.00000  Uiso   1.00
H28    H     0.59763   0.19658   0.79464   0.00000  Uiso   1.00
H29    H     0.98517   0.20176   0.98296   0.00000  Uiso   1.00
H30    H     0.27825   0.65107   0.88853   0.00000  Uiso   1.00
H31    H     0.92358   0.02025   0.81946   0.00000  Uiso   1.00
H32    H     0.06013   0.10577   0.77281   0.00000  Uiso   1.00
H33    H     0.76967   0.10825   0.86212   0.00000  Uiso   1.00
H34    H     0.90866   0.84710   0.81734   0.00000  Uiso   1.00
H35    H     0.26231   0.20009   0.73077   0.00000  Uiso   1.00
H36    H     0.64985   0.20527   0.91909   0.00000  Uiso   1.00
H37    H     0.94294   0.65458   0.82466   0.00000  Uiso   1.00
O38    O     0.52685   0.25454   0.73337   0.00000  Uiso   1.00
O39    O     0.72332   0.26133   0.98044   0.00000  Uiso   1.00
O40    O     0.10785   0.53884   0.85654   0.00000  Uiso   1.00
N41    N     0.49998   0.18565   0.78601   0.00000  Uiso   1.00
N42    N     0.92738   0.19051   0.96208   0.00000  Uiso   1.00
N43    N     0.20136   0.67567   0.87379   0.00000  Uiso   1.00
N44    N     0.31955   0.18754   0.75164   0.00000  Uiso   1.00
N45    N     0.74695   0.19240   0.92771   0.00000  Uiso   1.00
N46    N     0.02093   0.67755   0.83943   0.00000  Uiso   1.00
C47    C     0.00024   0.98515   0.62893   0.00000  Uiso   1.00
C48    C     0.03275   0.93945   0.66258   0.00000  Uiso   1.00
C49    C     0.16000   0.90130   0.67155   0.00000  Uiso   1.00
C50    C     0.16864   0.86276   0.70350   0.00000  Uiso   1.00
C51    C     0.23654   0.79181   0.75238   0.00000  Uiso   1.00
C52    C     0.87345   0.93643   0.61436   0.00000  Uiso   1.00
C53    C     0.86677   0.89575   0.58277   0.00000  Uiso   1.00
C54    C     0.74130   0.85468   0.57413   0.00000  Uiso   1.00
C55    C     0.56185   0.77910   0.54812   0.00000  Uiso   1.00
C56    C     0.94994   0.07914   0.63781   0.00000  Uiso   1.00
C57    C     0.00753   0.15846   0.62594   0.00000  Uiso   1.00
C58    C     0.94643   0.23755   0.63703   0.00000  Uiso   1.00
C59    C     0.88573   0.38355   0.64744   0.00000  Uiso   1.00
C60    C     0.78929   0.98454   0.66973   0.00000  Uiso   1.00
C61    C     0.91817   0.93912   0.68474   0.00000  Uiso   1.00
C62    C     0.92662   0.90063   0.71669   0.00000  Uiso   1.00
C63    C     0.05386   0.86243   0.72571   0.00000  Uiso   1.00
C64    C     0.75888   0.93610   0.63652   0.00000  Uiso   1.00
C65    C     0.63339   0.89508   0.62792   0.00000  Uiso   1.00
C66    C     0.62651   0.85435   0.59633   0.00000  Uiso   1.00
C67    C     0.83536   0.07881   0.65997   0.00000  Uiso   1.00
C68    C     0.77415   0.15779   0.67109   0.00000  Uiso   1.00
C69    C     0.83164   0.23722   0.65924   0.00000  Uiso   1.00
H70    H     0.08943   0.98540   0.61167   0.00000  Uiso   1.00
H71    H     0.24865   0.90156   0.65439   0.00000  Uiso   1.00
H72    H     0.95545   0.89603   0.56563   0.00000  Uiso   1.00
H73    H     0.09619   0.15869   0.60879   0.00000  Uiso   1.00
H74    H     0.37462   0.80843   0.71152   0.00000  Uiso   1.00
H75    H     0.75638   0.79679   0.52435   0.00000  Uiso   1.00
H76    H     0.05317   0.35067   0.61536   0.00000  Uiso   1.00
H77    H     0.70008   0.98428   0.68699   0.00000  Uiso   1.00
H78    H     0.83794   0.90038   0.73384   0.00000  Uiso   1.00
H79    H     0.54474   0.89485   0.64507   0.00000  Uiso   1.00
H80    H     0.68548   0.15751   0.68824   0.00000  Uiso   1.00
H81    H     0.04127   0.80748   0.77600   0.00000  Uiso   1.00
H82    H     0.42303   0.79583   0.58883   0.00000  Uiso   1.00
H83    H     0.71982   0.34971   0.67985   0.00000  Uiso   1.00
O84    O     0.30564   0.75276   0.77321   0.00000  Uiso   1.00
O85    O     0.49453   0.73750   0.52765   0.00000  Uiso   1.00
O86    O     0.88391   0.46417   0.64707   0.00000  Uiso   1.00
N87    N     0.27726   0.81974   0.72027   0.00000  Uiso   1.00
N88    N     0.69925   0.80884   0.54528   0.00000  Uiso   1.00
N89    N     0.97669   0.32667   0.63036   0.00000  Uiso   1.00
N90    N     0.09788   0.81922   0.75496   0.00000  Uiso   1.00
N91    N     0.51988   0.80832   0.57997   0.00000  Uiso   1.00
N92    N     0.79732   0.32616   0.66506   0.00000  Uiso   1.00
C93    C     0.77450   0.98291   0.37697   0.00000  Uiso   1.00
C94    C     0.74294   0.93600   0.34350   0.00000  Uiso   1.00
C95    C     0.61591   0.89761   0.33451   0.00000  Uiso   1.00
C96    C     0.60818   0.85791   0.30274   0.00000  Uiso   1.00
C97    C     0.54167   0.78523   0.25412   0.00000  Uiso   1.00
C98    C     0.90075   0.93465   0.39202   0.00000  Uiso   1.00
C99    C     0.90640   0.89513   0.42383   0.00000  Uiso   1.00
C100   C     0.03154   0.85430   0.43291   0.00000  Uiso   1.00
C101   C     0.21006   0.77957   0.45963   0.00000  Uiso   1.00
C102   C     0.82522   0.07654   0.36769   0.00000  Uiso   1.00
C103   C     0.76740   0.15632   0.37904   0.00000  Uiso   1.00
C104   C     0.82896   0.23496   0.36764   0.00000  Uiso   1.00
C105   C     0.89021   0.38053   0.35658   0.00000  Uiso   1.00
C106   C     0.98669   0.98069   0.33655   0.00000  Uiso   1.00
C107   C     0.85820   0.93480   0.32155   0.00000  Uiso   1.00
C108   C     0.85067   0.89515   0.28979   0.00000  Uiso   1.00
C109   C     0.72364   0.85671   0.28075   0.00000  Uiso   1.00
C110   C     0.01600   0.93344   0.37007   0.00000  Uiso   1.00
C111   C     0.14116   0.89267   0.37911   0.00000  Uiso   1.00
C112   C     0.14700   0.85309   0.41092   0.00000  Uiso   1.00
C113   C     0.94047   0.07533   0.34574   0.00000  Uiso   1.00
C114   C     0.00215   0.15386   0.33432   0.00000  Uiso   1.00
C115   C     0.94442   0.23375   0.34565   0.00000  Uiso   1.00
H116   H     0.68478   0.98384   0.39406   0.00000  Uiso   1.00
H117   H     0.52674   0.89855   0.35150   0.00000  Uiso   1.00
H118   H     0.81720   0.89608   0.44081   0.00000  Uiso   1.00
H119   H     0.67821   0.15723   0.39603   0.00000  Uiso   1.00
H120   H     0.40237   0.80342   0.29464   0.00000  Uiso   1.00
H121   H     0.01483   0.79824   0.48296   0.00000  Uiso   1.00
H122   H     0.72175   0.34893   0.38853   0.00000  Uiso   1.00
H123   H     0.07642   0.97975   0.31946   0.00000  Uiso   1.00
H124   H     0.93987   0.89423   0.27281   0.00000  Uiso   1.00
H125   H     0.23033   0.89175   0.36212   0.00000  Uiso   1.00
H126   H     0.09134   0.15290   0.31734   0.00000  Uiso   1.00
H127   H     0.73769   0.79991   0.23077   0.00000  Uiso   1.00
H128   H     0.35015   0.79473   0.41909   0.00000  Uiso   1.00
H129   H     0.05706   0.34542   0.32466   0.00000  Uiso   1.00
O130   O     0.47315   0.74546   0.23337   0.00000  Uiso   1.00
O131   O     0.27668   0.73867   0.48044   0.00000  Uiso   1.00
O132   O     0.89215   0.46116   0.35654   0.00000  Uiso   1.00
N133   N     0.50002   0.81435   0.28601   0.00000  Uiso   1.00
N134   N     0.07262   0.80949   0.46208   0.00000  Uiso   1.00
N135   N     0.79864   0.32433   0.37379   0.00000  Uiso   1.00
N136   N     0.68045   0.81246   0.25164   0.00000  Uiso   1.00
N137   N     0.25305   0.80760   0.42771   0.00000  Uiso   1.00
N138   N     0.97907   0.32245   0.33943   0.00000  Uiso   1.00
C139   C     0.99976   0.01485   0.12893   0.00000  Uiso   1.00
C140   C     0.96725   0.06055   0.16258   0.00000  Uiso   1.00
C141   C     0.84000   0.09870   0.17155   0.00000  Uiso   1.00
C142   C     0.83136   0.13724   0.20350   0.00000  Uiso   1.00
C143   C     0.76346   0.20819   0.25238   0.00000  Uiso   1.00
C144   C     0.12655   0.06357   0.11436   0.00000  Uiso   1.00
C145   C     0.13323   0.10425   0.08277   0.00000  Uiso   1.00
C146   C     0.25870   0.14532   0.07413   0.00000  Uiso   1.00
C147   C     0.43815   0.22090   0.04812   0.00000  Uiso   1.00
C148   C     0.05006   0.92086   0.13781   0.00000  Uiso   1.00
C149   C     0.99247   0.84154   0.12594   0.00000  Uiso   1.00
C150   C     0.05357   0.76245   0.13703   0.00000  Uiso   1.00
C151   C     0.11427   0.61645   0.14744   0.00000  Uiso   1.00
C152   C     0.21071   0.01546   0.16973   0.00000  Uiso   1.00
C153   C     0.08183   0.06088   0.18474   0.00000  Uiso   1.00
C154   C     0.07338   0.09937   0.21669   0.00000  Uiso   1.00
C155   C     0.94614   0.13757   0.22571   0.00000  Uiso   1.00
C156   C     0.24112   0.06390   0.13652   0.00000  Uiso   1.00
C157   C     0.36661   0.10492   0.12792   0.00000  Uiso   1.00
C158   C     0.37349   0.14565   0.09633   0.00000  Uiso   1.00
C159   C     0.16464   0.92119   0.15997   0.00000  Uiso   1.00
C160   C     0.22585   0.84221   0.17109   0.00000  Uiso   1.00
C161   C     0.16836   0.76278   0.15924   0.00000  Uiso   1.00
H162   H     0.91057   0.01460   0.11167   0.00000  Uiso   1.00
H163   H     0.75135   0.09844   0.15439   0.00000  Uiso   1.00
H164   H     0.04455   0.10397   0.06563   0.00000  Uiso   1.00
H165   H     0.90381   0.84131   0.10879   0.00000  Uiso   1.00
H166   H     0.62538   0.19157   0.21152   0.00000  Uiso   1.00
H167   H     0.24362   0.20321   0.02435   0.00000  Uiso   1.00
H168   H     0.94683   0.64933   0.11536   0.00000  Uiso   1.00
H169   H     0.29992   0.01572   0.18699   0.00000  Uiso   1.00
H170   H     0.16206   0.09962   0.23384   0.00000  Uiso   1.00
H171   H     0.45526   0.10515   0.14507   0.00000  Uiso   1.00
H172   H     0.31452   0.84249   0.18824   0.00000  Uiso   1.00
H173   H     0.95873   0.19252   0.27600   0.00000  Uiso   1.00
H174   H     0.57697   0.20417   0.08883   0.00000  Uiso   1.00
H175   H     0.28018   0.65029   0.17985   0.00000  Uiso   1.00
O176   O     0.69436   0.24724   0.27321   0.00000  Uiso   1.00
O177   O     0.50547   0.26250   0.02765   0.00000  Uiso   1.00
O178   O     0.11609   0.53583   0.14707   0.00000  Uiso   1.00
N179   N     0.72274   0.18026   0.22027   0.00000  Uiso   1.00
N180   N     0.30075   0.19116   0.04528   0.00000  Uiso   1.00
N181   N     0.02331   0.67333   0.13036   0.00000  Uiso   1.00
N182   N     0.90212   0.18078   0.25496   0.00000  Uiso   1.00
N183   N     0.48012   0.19168   0.07997   0.00000  Uiso   1.00
N184   N     0.20268   0.67384   0.16506   0.00000  Uiso   1.00
C185   C     0.72550   0.48291   0.87697   0.00000  Uiso   1.00
C186   C     0.75706   0.43600   0.84350   0.00000  Uiso   1.00
C187   C     0.88409   0.39761   0.83451   0.00000  Uiso   1.00
C188   C     0.89182   0.35791   0.80274   0.00000  Uiso   1.00
C189   C     0.95833   0.28523   0.75412   0.00000  Uiso   1.00
C190   C     0.59925   0.43465   0.89202   0.00000  Uiso   1.00
C191   C     0.59360   0.39513   0.92383   0.00000  Uiso   1.00
C192   C     0.46846   0.35430   0.93291   0.00000  Uiso   1.00
C193   C     0.28994   0.27957   0.95963   0.00000  Uiso   1.00
C194   C     0.67478   0.57654   0.86769   0.00000  Uiso   1.00
C195   C     0.73260   0.65632   0.87904   0.00000  Uiso   1.00
C196   C     0.67104   0.73496   0.86764   0.00000  Uiso   1.00
C197   C     0.60979   0.88053   0.85658   0.00000  Uiso   1.00
C198   C     0.51331   0.48069   0.83655   0.00000  Uiso   1.00
C199   C     0.64180   0.43480   0.82155   0.00000  Uiso   1.00
C200   C     0.64933   0.39515   0.78979   0.00000  Uiso   1.00
C201   C     0.77636   0.35671   0.78075   0.00000  Uiso   1.00
C202   C     0.48400   0.43344   0.87007   0.00000  Uiso   1.00
C203   C     0.35884   0.39267   0.87911   0.00000  Uiso   1.00
C204   C     0.35300   0.35309   0.91092   0.00000  Uiso   1.00
C205   C     0.55953   0.57533   0.84574   0.00000  Uiso   1.00
C206   C     0.49785   0.65386   0.83432   0.00000  Uiso   1.00
C207   C     0.55558   0.73375   0.84565   0.00000  Uiso   1.00
H208   H     0.81522   0.48384   0.89406   0.00000  Uiso   1.00
H209   H     0.97326   0.39855   0.85150   0.00000  Uiso   1.00
H210   H     0.68280   0.39608   0.94081   0.00000  Uiso   1.00
H211   H     0.82179   0.65723   0.89603   0.00000  Uiso   1.00
H212   H     0.09763   0.30342   0.79464   0.00000  Uiso   1.00
H213   H     0.48517   0.29824   0.98296   0.00000  Uiso   1.00
H214   H     0.77825   0.84893   0.88853   0.00000  Uiso   1.00
H215   H     0.42358   0.47975   0.81946   0.00000  Uiso   1.00
H216   H     0.56013   0.39423   0.77281   0.00000  Uiso   1.00
H217   H     0.26967   0.39175   0.86212   0.00000  Uiso   1.00
H218   H     0.40866   0.65290   0.81734   0.00000  Uiso   1.00
H219   H     0.76231   0.29991   0.73077   0.00000  Uiso   1.00
H220   H     0.14985   0.29473   0.91909   0.00000  Uiso   1.00
H221   H     0.44294   0.84542   0.82466   0.00000  Uiso   1.00
O222   O     0.02685   0.24546   0.73337   0.00000  Uiso   1.00
O223   O     0.22332   0.23867   0.98044   0.00000  Uiso   1.00
O224   O     0.60785   0.96116   0.85654   0.00000  Uiso   1.00
N225   N     0.99998   0.31435   0.78601   0.00000  Uiso   1.00
N226   N     0.42738   0.30949   0.96208   0.00000  Uiso   1.00
N227   N     0.70136   0.82433   0.87379   0.00000  Uiso   1.00
N228   N     0.81955   0.31246   0.75164   0.00000  Uiso   1.00
N229   N     0.24695   0.30760   0.92771   0.00000  Uiso   1.00
N230   N     0.52093   0.82245   0.83943   0.00000  Uiso   1.00
C231   C     0.50024   0.51485   0.62893   0.00000  Uiso   1.00
C232   C     0.53275   0.56055   0.66258   0.00000  Uiso   1.00
C233   C     0.66000   0.59870   0.67155   0.00000  Uiso   1.00
C234   C     0.66864   0.63724   0.70350   0.00000  Uiso   1.00
C235   C     0.73654   0.70819   0.75238   0.00000  Uiso   1.00
C236   C     0.37345   0.56357   0.61436   0.00000  Uiso   1.00
C237   C     0.36677   0.60425   0.58277   0.00000  Uiso   1.00
C238   C     0.24130   0.64532   0.57413   0.00000  Uiso   1.00
C239   C     0.06185   0.72090   0.54812   0.00000  Uiso   1.00
C240   C     0.44994   0.42086   0.63781   0.00000  Uiso   1.00
C241   C     0.50753   0.34154   0.62594   0.00000  Uiso   1.00
C242   C     0.44643   0.26245   0.63703   0.00000  Uiso   1.00
C243   C     0.38573   0.11645   0.64744   0.00000  Uiso   1.00
C244   C     0.28929   0.51546   0.66973   0.00000  Uiso   1.00
C245   C     0.41817   0.56088   0.68474   0.00000  Uiso   1.00
C246   C     0.42662   0.59937   0.71669   0.00000  Uiso   1.00
C247   C     0.55386   0.63757   0.72571   0.00000  Uiso   1.00
C248   C     0.25888   0.56390   0.63652   0.00000  Uiso   1.00
C249   C     0.13339   0.60492   0.62792   0.00000  Uiso   1.00
C250   C     0.12651   0.64565   0.59633   0.00000  Uiso   1.00
C251   C     0.33536   0.42119   0.65997   0.00000  Uiso   1.00
C252   C     0.27415   0.34221   0.67109   0.00000  Uiso   1.00
C253   C     0.33164   0.26278   0.65924   0.00000  Uiso   1.00
H254   H     0.58943   0.51460   0.61167   0.00000  Uiso   1.00
H255   H     0.74865   0.59844   0.65439   0.00000  Uiso   1.00
H256   H     0.45545   0.60397   0.56563   0.00000  Uiso   1.00
H257   H     0.59619   0.34131   0.60879   0.00000  Uiso   1.00
H258   H     0.87462   0.69157   0.71152   0.00000  Uiso   1.00
H259   H     0.25638   0.70321   0.52435   0.00000  Uiso   1.00
H260   H     0.55317   0.14933   0.61536   0.00000  Uiso   1.00
H261   H     0.20008   0.51572   0.68699   0.00000  Uiso   1.00
H262   H     0.33794   0.59962   0.73384   0.00000  Uiso   1.00
H263   H     0.04474   0.60515   0.64507   0.00000  Uiso   1.00
H264   H     0.18548   0.34249   0.68824   0.00000  Uiso   1.00
H265   H     0.54127   0.69252   0.77600   0.00000  Uiso   1.00
H266   H     0.92303   0.70417   0.58883   0.00000  Uiso   1.00
H267   H     0.21982   0.15029   0.67985   0.00000  Uiso   1.00
O268   O     0.80564   0.74724   0.77321   0.00000  Uiso   1.00
O269   O     0.99453   0.76250   0.52765   0.00000  Uiso   1.00
O270   O     0.38391   0.03583   0.64707   0.00000  Uiso   1.00
N271   N     0.77726   0.68026   0.72027   0.00000  Uiso   1.00
N272   N     0.19925   0.69116   0.54528   0.00000  Uiso   1.00
N273   N     0.47669   0.17333   0.63036   0.00000  Uiso   1.00
N274   N     0.59788   0.68078   0.75496   0.00000  Uiso   1.00
N275   N     0.01988   0.69168   0.57997   0.00000  Uiso   1.00
N276   N     0.29732   0.17384   0.66506   0.00000  Uiso   1.00
C277   C     0.27450   0.51709   0.37697   0.00000  Uiso   1.00
C278   C     0.24294   0.56400   0.34350   0.00000  Uiso   1.00
C279   C     0.11591   0.60239   0.33451   0.00000  Uiso   1.00
C280   C     0.10818   0.64209   0.30274   0.00000  Uiso   1.00
C281   C     0.04167   0.71477   0.25412   0.00000  Uiso   1.00
C282   C     0.40075   0.56535   0.39202   0.00000  Uiso   1.00
C283   C     0.40640   0.60487   0.42383   0.00000  Uiso   1.00
C284   C     0.53154   0.64570   0.43291   0.00000  Uiso   1.00
C285   C     0.71006   0.72043   0.45963   0.00000  Uiso   1.00
C286   C     0.32522   0.42346   0.36769   0.00000  Uiso   1.00
C287   C     0.26740   0.34368   0.37904   0.00000  Uiso   1.00
C288   C     0.32896   0.26504   0.36764   0.00000  Uiso   1.00
C289   C     0.39021   0.11947   0.35658   0.00000  Uiso   1.00
C290   C     0.48669   0.51931   0.33655   0.00000  Uiso   1.00
C291   C     0.35820   0.56520   0.32155   0.00000  Uiso   1.00
C292   C     0.35067   0.60485   0.28979   0.00000  Uiso   1.00
C293   C     0.22364   0.64329   0.28075   0.00000  Uiso   1.00
C294   C     0.51600   0.56656   0.37007   0.00000  Uiso   1.00
C295   C     0.64116   0.60733   0.37911   0.00000  Uiso   1.00
C296   C     0.64700   0.64691   0.41092   0.00000  Uiso   1.00
C297   C     0.44047   0.42467   0.34574   0.00000  Uiso   1.00
C298   C     0.50215   0.34614   0.33432   0.00000  Uiso   1.00
C299   C     0.44442   0.26625   0.34565   0.00000  Uiso   1.00
H300   H     0.18478   0.51616   0.39406   0.00000  Uiso   1.00
H301   H     0.02674   0.60145   0.35150   0.00000  Uiso   1.00
H302   H     0.31720   0.60392   0.44081   0.00000  Uiso   1.00
H303   H     0.17821   0.34277   0.39603   0.00000  Uiso   1.00
H304   H     0.90237   0.69658   0.29464   0.00000  Uiso   1.00
H305   H     0.51483   0.70176   0.48296   0.00000  Uiso   1.00
H306   H     0.22175   0.15107   0.38853   0.00000  Uiso   1.00
H307   H     0.57642   0.52025   0.31946   0.00000  Uiso   1.00
H308   H     0.43987   0.60577   0.27281   0.00000  Uiso   1.00
H309   H     0.73033   0.60825   0.36212   0.00000  Uiso   1.00
H310   H     0.59134   0.34710   0.31734   0.00000  Uiso   1.00
H311   H     0.23769   0.70009   0.23077   0.00000  Uiso   1.00
H312   H     0.85015   0.70527   0.41909   0.00000  Uiso   1.00
H313   H     0.55706   0.15458   0.32466   0.00000  Uiso   1.00
O314   O     0.97315   0.75454   0.23337   0.00000  Uiso   1.00
O315   O     0.77668   0.76133   0.48044   0.00000  Uiso   1.00
O316   O     0.39215   0.03884   0.35654   0.00000  Uiso   1.00
N317   N     0.00002   0.68565   0.28601   0.00000  Uiso   1.00
N318   N     0.57262   0.69051   0.46208   0.00000  Uiso   1.00
N319   N     0.29864   0.17567   0.37379   0.00000  Uiso   1.00
N320   N     0.18045   0.68754   0.25164   0.00000  Uiso   1.00
N321   N     0.75305   0.69240   0.42771   0.00000  Uiso   1.00
N322   N     0.47907   0.17755   0.33943   0.00000  Uiso   1.00
C323   C     0.49976   0.48515   0.12893   0.00000  Uiso   1.00
C324   C     0.46725   0.43945   0.16258   0.00000  Uiso   1.00
C325   C     0.34000   0.40130   0.17155   0.00000  Uiso   1.00
C326   C     0.33136   0.36276   0.20350   0.00000  Uiso   1.00
C327   C     0.26346   0.29181   0.25238   0.00000  Uiso   1.00
C328   C     0.62655   0.43643   0.11436   0.00000  Uiso   1.00
C329   C     0.63323   0.39575   0.08277   0.00000  Uiso   1.00
C330   C     0.75870   0.35468   0.07413   0.00000  Uiso   1.00
C331   C     0.93815   0.27910   0.04812   0.00000  Uiso   1.00
C332   C     0.55006   0.57914   0.13781   0.00000  Uiso   1.00
C333   C     0.49247   0.65846   0.12594   0.00000  Uiso   1.00
C334   C     0.55357   0.73755   0.13703   0.00000  Uiso   1.00
C335   C     0.61427   0.88355   0.14744   0.00000  Uiso   1.00
C336   C     0.71071   0.48454   0.16973   0.00000  Uiso   1.00
C337   C     0.58183   0.43912   0.18474   0.00000  Uiso   1.00
C338   C     0.57338   0.40063   0.21669   0.00000  Uiso   1.00
C339   C     0.44614   0.36243   0.22571   0.00000  Uiso   1.00
C340   C     0.74112   0.43610   0.13652   0.00000  Uiso   1.00
C341   C     0.86661   0.39508   0.12792   0.00000  Uiso   1.00
C342   C     0.87349   0.35435   0.09633   0.00000  Uiso   1.00
C343   C     0.66464   0.57881   0.15997   0.00000  Uiso   1.00
C344   C     0.72585   0.65779   0.17109   0.00000  Uiso   1.00
C345   C     0.66836   0.73722   0.15924   0.00000  Uiso   1.00
H346   H     0.41057   0.48540   0.11167   0.00000  Uiso   1.00
H347   H     0.25135   0.40156   0.15439   0.00000  Uiso   1.00
H348   H     0.54455   0.39603   0.06563   0.00000  Uiso   1.00
H349   H     0.40381   0.65869   0.10879   0.00000  Uiso   1.00
H350   H     0.12538   0.30843   0.21152   0.00000  Uiso   1.00
H351   H     0.74362   0.29679   0.02435   0.00000  Uiso   1.00
H352   H     0.44683   0.85067   0.11536   0.00000  Uiso   1.00
H353   H     0.79992   0.48428   0.18699   0.00000  Uiso   1.00
H354   H     0.66206   0.40038   0.23384   0.00000  Uiso   1.00
H355   H     0.95526   0.39485   0.14507   0.00000  Uiso   1.00
H356   H     0.81452   0.65751   0.18824   0.00000  Uiso   1.00
H357   H     0.45873   0.30748   0.27600   0.00000  Uiso   1.00
H358   H     0.07697   0.29583   0.08883   0.00000  Uiso   1.00
H359   H     0.78018   0.84971   0.17985   0.00000  Uiso   1.00
O360   O     0.19436   0.25276   0.27321   0.00000  Uiso   1.00
O361   O     0.00547   0.23750   0.02765   0.00000  Uiso   1.00
O362   O     0.61609   0.96417   0.14707   0.00000  Uiso   1.00
N363   N     0.22274   0.31974   0.22027   0.00000  Uiso   1.00
N364   N     0.80075   0.30884   0.04528   0.00000  Uiso   1.00
N365   N     0.52331   0.82667   0.13036   0.00000  Uiso   1.00
N366   N     0.40212   0.31922   0.25496   0.00000  Uiso   1.00
N367   N     0.98012   0.30832   0.07997   0.00000  Uiso   1.00
N368   N     0.70268   0.82616   0.16506   0.00000  Uiso   1.00
