data_job_03574
_audit_creation_date              2018-12-19
_audit_creation_method            'Materials Studio'
_symmetry_space_group_name_H-M    'P1'
_symmetry_Int_Tables_number       1
_symmetry_cell_setting            triclinic
loop_
_symmetry_equiv_pos_as_xyz
  x,y,z
_cell_length_a                    28.6734
_cell_length_b                    23.8075
_cell_length_c                    12.0415
_cell_angle_alpha                 90.0000
_cell_angle_beta                  90.7962
_cell_angle_gamma                 90.0000
loop_
_atom_site_label
_atom_site_type_symbol
_atom_site_fract_x
_atom_site_fract_y
_atom_site_fract_z
_atom_site_U_iso_or_equiv
_atom_site_adp_type
_atom_site_occupancy
C1     C     0.81362   0.13951   0.34232   0.00000  Uiso   1.00
C2     C     0.82445   0.20222   0.34257   0.00000  Uiso   1.00
C3     C     0.79398   0.24461   0.31004   0.00000  Uiso   1.00
C4     C     0.81052   0.29934   0.31636   0.00000  Uiso   1.00
C5     C     0.82044   0.39491   0.31099   0.00000  Uiso   1.00
C6     C     0.85081   0.11209   0.27105   0.00000  Uiso   1.00
C7     C     0.84250   0.07870   0.17840   0.00000  Uiso   1.00
C8     C     0.88124   0.05755   0.12453   0.00000  Uiso   1.00
C9     C     0.93209   0.01316   0.00817   0.00000  Uiso   1.00
C10    C     0.82286   0.11917   0.46067   0.00000  Uiso   1.00
C11    C     0.79105   0.09171   0.52745   0.00000  Uiso   1.00
C12    C     0.80626   0.07651   0.63322   0.00000  Uiso   1.00
C13    C     0.81371   0.04311   0.81128   0.00000  Uiso   1.00
C14    C     0.89718   0.16133   0.41140   0.00000  Uiso   1.00
C15    C     0.86984   0.21407   0.38009   0.00000  Uiso   1.00
C16    C     0.88643   0.26875   0.38647   0.00000  Uiso   1.00
C17    C     0.85599   0.31122   0.35396   0.00000  Uiso   1.00
C18    C     0.89620   0.12394   0.30857   0.00000  Uiso   1.00
C19    C     0.93496   0.10283   0.25483   0.00000  Uiso   1.00
C20    C     0.92671   0.06942   0.16212   0.00000  Uiso   1.00
C21    C     0.86825   0.13102   0.49819   0.00000  Uiso   1.00
C22    C     0.88351   0.11585   0.60388   0.00000  Uiso   1.00
C23    C     0.85173   0.08838   0.67081   0.00000  Uiso   1.00
H24    H     0.77828   0.13028   0.31310   0.00000  Uiso   1.00
H25    H     0.75885   0.23542   0.28099   0.00000  Uiso   1.00
H26    H     0.80737   0.06953   0.14938   0.00000  Uiso   1.00
H27    H     0.75593   0.08255   0.49838   0.00000  Uiso   1.00
H28    H     0.75734   0.35722   0.26191   0.00000  Uiso   1.00
H29    H     0.85964   0.00740   0.98443   0.00000  Uiso   1.00
H30    H     0.75117   0.03486   0.72035   0.00000  Uiso   1.00
H31    H     0.93252   0.17055   0.44061   0.00000  Uiso   1.00
H32    H     0.92156   0.27791   0.41551   0.00000  Uiso   1.00
H33    H     0.97007   0.11201   0.28390   0.00000  Uiso   1.00
H34    H     0.91863   0.12503   0.63289   0.00000  Uiso   1.00
H35    H     0.88940   0.39170   0.37108   0.00000  Uiso   1.00
H36    H     0.99170   0.04188   0.09360   0.00000  Uiso   1.00
H37    H     0.88322   0.06934   0.82953   0.00000  Uiso   1.00
O38    O     0.81338   0.44435   0.29764   0.00000  Uiso   1.00
O39    O     0.94759   0.98540   0.93361   0.00000  Uiso   1.00
O40    O     0.80528   0.02142   0.89913   0.00000  Uiso   1.00
N41    N     0.78992   0.35060   0.29107   0.00000  Uiso   1.00
N42    N     0.88557   0.02355   0.03163   0.00000  Uiso   1.00
N43    N     0.78416   0.04920   0.71965   0.00000  Uiso   1.00
N44    N     0.86098   0.36915   0.34982   0.00000  Uiso   1.00
N45    N     0.95662   0.04211   0.09038   0.00000  Uiso   1.00
N46    N     0.85521   0.06776   0.77839   0.00000  Uiso   1.00
C47    C     0.31362   0.63951   0.34232   0.00000  Uiso   1.00
C48    C     0.32445   0.70222   0.34257   0.00000  Uiso   1.00
C49    C     0.29398   0.74461   0.31004   0.00000  Uiso   1.00
C50    C     0.31052   0.79934   0.31636   0.00000  Uiso   1.00
C51    C     0.32044   0.89491   0.31099   0.00000  Uiso   1.00
C52    C     0.35081   0.61209   0.27105   0.00000  Uiso   1.00
C53    C     0.34250   0.57870   0.17840   0.00000  Uiso   1.00
C54    C     0.38124   0.55755   0.12453   0.00000  Uiso   1.00
C55    C     0.43209   0.51316   0.00817   0.00000  Uiso   1.00
C56    C     0.32286   0.61917   0.46067   0.00000  Uiso   1.00
C57    C     0.29105   0.59171   0.52745   0.00000  Uiso   1.00
C58    C     0.30626   0.57651   0.63322   0.00000  Uiso   1.00
C59    C     0.31371   0.54311   0.81128   0.00000  Uiso   1.00
C60    C     0.39718   0.66133   0.41140   0.00000  Uiso   1.00
C61    C     0.36984   0.71407   0.38009   0.00000  Uiso   1.00
C62    C     0.38643   0.76875   0.38647   0.00000  Uiso   1.00
C63    C     0.35599   0.81122   0.35396   0.00000  Uiso   1.00
C64    C     0.39620   0.62394   0.30857   0.00000  Uiso   1.00
C65    C     0.43496   0.60283   0.25483   0.00000  Uiso   1.00
C66    C     0.42671   0.56942   0.16212   0.00000  Uiso   1.00
C67    C     0.36825   0.63102   0.49819   0.00000  Uiso   1.00
C68    C     0.38351   0.61585   0.60388   0.00000  Uiso   1.00
C69    C     0.35173   0.58838   0.67081   0.00000  Uiso   1.00
H70    H     0.27828   0.63028   0.31310   0.00000  Uiso   1.00
H71    H     0.25885   0.73542   0.28099   0.00000  Uiso   1.00
H72    H     0.30737   0.56953   0.14938   0.00000  Uiso   1.00
H73    H     0.25593   0.58255   0.49838   0.00000  Uiso   1.00
H74    H     0.25734   0.85722   0.26191   0.00000  Uiso   1.00
H75    H     0.35964   0.50740   0.98443   0.00000  Uiso   1.00
H76    H     0.25117   0.53486   0.72035   0.00000  Uiso   1.00
H77    H     0.43252   0.67055   0.44061   0.00000  Uiso   1.00
H78    H     0.42156   0.77791   0.41551   0.00000  Uiso   1.00
H79    H     0.47007   0.61201   0.28390   0.00000  Uiso   1.00
H80    H     0.41863   0.62503   0.63289   0.00000  Uiso   1.00
H81    H     0.38940   0.89170   0.37108   0.00000  Uiso   1.00
H82    H     0.49170   0.54188   0.09360   0.00000  Uiso   1.00
H83    H     0.38322   0.56934   0.82953   0.00000  Uiso   1.00
O84    O     0.31338   0.94435   0.29764   0.00000  Uiso   1.00
O85    O     0.44759   0.48540   0.93361   0.00000  Uiso   1.00
O86    O     0.30528   0.52142   0.89913   0.00000  Uiso   1.00
N87    N     0.28992   0.85060   0.29107   0.00000  Uiso   1.00
N88    N     0.38557   0.52355   0.03163   0.00000  Uiso   1.00
N89    N     0.28416   0.54920   0.71965   0.00000  Uiso   1.00
N90    N     0.36098   0.86915   0.34982   0.00000  Uiso   1.00
N91    N     0.45662   0.54211   0.09038   0.00000  Uiso   1.00
N92    N     0.35521   0.56776   0.77839   0.00000  Uiso   1.00
C93    C     0.18638   0.13951   0.15768   0.00000  Uiso   1.00
C94    C     0.17555   0.20222   0.15743   0.00000  Uiso   1.00
C95    C     0.20602   0.24461   0.18996   0.00000  Uiso   1.00
C96    C     0.18948   0.29934   0.18364   0.00000  Uiso   1.00
C97    C     0.17956   0.39491   0.18901   0.00000  Uiso   1.00
C98    C     0.14919   0.11209   0.22895   0.00000  Uiso   1.00
C99    C     0.15750   0.07870   0.32160   0.00000  Uiso   1.00
C100   C     0.11876   0.05755   0.37547   0.00000  Uiso   1.00
C101   C     0.06791   0.01316   0.49183   0.00000  Uiso   1.00
C102   C     0.17714   0.11917   0.03933   0.00000  Uiso   1.00
C103   C     0.20895   0.09171   0.97255   0.00000  Uiso   1.00
C104   C     0.19374   0.07651   0.86678   0.00000  Uiso   1.00
C105   C     0.18629   0.04311   0.68872   0.00000  Uiso   1.00
C106   C     0.10282   0.16133   0.08860   0.00000  Uiso   1.00
C107   C     0.13016   0.21407   0.11991   0.00000  Uiso   1.00
C108   C     0.11357   0.26875   0.11353   0.00000  Uiso   1.00
C109   C     0.14401   0.31122   0.14604   0.00000  Uiso   1.00
C110   C     0.10380   0.12394   0.19143   0.00000  Uiso   1.00
C111   C     0.06504   0.10283   0.24517   0.00000  Uiso   1.00
C112   C     0.07329   0.06942   0.33788   0.00000  Uiso   1.00
C113   C     0.13175   0.13102   0.00181   0.00000  Uiso   1.00
C114   C     0.11649   0.11585   0.89612   0.00000  Uiso   1.00
C115   C     0.14827   0.08838   0.82919   0.00000  Uiso   1.00
H116   H     0.22172   0.13028   0.18690   0.00000  Uiso   1.00
H117   H     0.24115   0.23542   0.21901   0.00000  Uiso   1.00
H118   H     0.19263   0.06953   0.35062   0.00000  Uiso   1.00
H119   H     0.24407   0.08255   0.00162   0.00000  Uiso   1.00
H120   H     0.24266   0.35722   0.23809   0.00000  Uiso   1.00
H121   H     0.14036   0.00740   0.51557   0.00000  Uiso   1.00
H122   H     0.24883   0.03486   0.77965   0.00000  Uiso   1.00
H123   H     0.06748   0.17055   0.05939   0.00000  Uiso   1.00
H124   H     0.07844   0.27791   0.08449   0.00000  Uiso   1.00
H125   H     0.02993   0.11201   0.21610   0.00000  Uiso   1.00
H126   H     0.08137   0.12503   0.86711   0.00000  Uiso   1.00
H127   H     0.11060   0.39170   0.12892   0.00000  Uiso   1.00
H128   H     0.00830   0.04188   0.40640   0.00000  Uiso   1.00
H129   H     0.11678   0.06934   0.67047   0.00000  Uiso   1.00
O130   O     0.18662   0.44435   0.20236   0.00000  Uiso   1.00
O131   O     0.05241   0.98540   0.56639   0.00000  Uiso   1.00
O132   O     0.19472   0.02142   0.60087   0.00000  Uiso   1.00
N133   N     0.21008   0.35060   0.20893   0.00000  Uiso   1.00
N134   N     0.11443   0.02355   0.46837   0.00000  Uiso   1.00
N135   N     0.21584   0.04920   0.78035   0.00000  Uiso   1.00
N136   N     0.13902   0.36915   0.15018   0.00000  Uiso   1.00
N137   N     0.04338   0.04211   0.40962   0.00000  Uiso   1.00
N138   N     0.14479   0.06776   0.72161   0.00000  Uiso   1.00
C139   C     0.68638   0.63951   0.15768   0.00000  Uiso   1.00
C140   C     0.67555   0.70222   0.15743   0.00000  Uiso   1.00
C141   C     0.70602   0.74461   0.18996   0.00000  Uiso   1.00
C142   C     0.68948   0.79934   0.18364   0.00000  Uiso   1.00
C143   C     0.67956   0.89491   0.18901   0.00000  Uiso   1.00
C144   C     0.64919   0.61209   0.22895   0.00000  Uiso   1.00
C145   C     0.65750   0.57870   0.32160   0.00000  Uiso   1.00
C146   C     0.61876   0.55755   0.37547   0.00000  Uiso   1.00
C147   C     0.56791   0.51316   0.49183   0.00000  Uiso   1.00
C148   C     0.67714   0.61917   0.03933   0.00000  Uiso   1.00
C149   C     0.70895   0.59171   0.97255   0.00000  Uiso   1.00
C150   C     0.69374   0.57651   0.86678   0.00000  Uiso   1.00
C151   C     0.68629   0.54311   0.68872   0.00000  Uiso   1.00
C152   C     0.60282   0.66133   0.08860   0.00000  Uiso   1.00
C153   C     0.63016   0.71407   0.11991   0.00000  Uiso   1.00
C154   C     0.61357   0.76875   0.11353   0.00000  Uiso   1.00
C155   C     0.64401   0.81122   0.14604   0.00000  Uiso   1.00
C156   C     0.60380   0.62394   0.19143   0.00000  Uiso   1.00
C157   C     0.56504   0.60283   0.24517   0.00000  Uiso   1.00
C158   C     0.57329   0.56942   0.33788   0.00000  Uiso   1.00
C159   C     0.63175   0.63102   0.00181   0.00000  Uiso   1.00
C160   C     0.61649   0.61585   0.89612   0.00000  Uiso   1.00
C161   C     0.64827   0.58838   0.82919   0.00000  Uiso   1.00
H162   H     0.72172   0.63028   0.18690   0.00000  Uiso   1.00
H163   H     0.74115   0.73542   0.21901   0.00000  Uiso   1.00
H164   H     0.69263   0.56953   0.35062   0.00000  Uiso   1.00
H165   H     0.74407   0.58255   0.00162   0.00000  Uiso   1.00
H166   H     0.74266   0.85722   0.23809   0.00000  Uiso   1.00
H167   H     0.64036   0.50740   0.51557   0.00000  Uiso   1.00
H168   H     0.74883   0.53486   0.77965   0.00000  Uiso   1.00
H169   H     0.56748   0.67055   0.05939   0.00000  Uiso   1.00
H170   H     0.57844   0.77791   0.08449   0.00000  Uiso   1.00
H171   H     0.52993   0.61201   0.21610   0.00000  Uiso   1.00
H172   H     0.58137   0.62503   0.86711   0.00000  Uiso   1.00
H173   H     0.61060   0.89170   0.12892   0.00000  Uiso   1.00
H174   H     0.50830   0.54188   0.40640   0.00000  Uiso   1.00
H175   H     0.61678   0.56934   0.67047   0.00000  Uiso   1.00
O176   O     0.68662   0.94435   0.20236   0.00000  Uiso   1.00
O177   O     0.55241   0.48540   0.56639   0.00000  Uiso   1.00
O178   O     0.69472   0.52142   0.60087   0.00000  Uiso   1.00
N179   N     0.71008   0.85060   0.20893   0.00000  Uiso   1.00
N180   N     0.61443   0.52355   0.46837   0.00000  Uiso   1.00
N181   N     0.71584   0.54920   0.78035   0.00000  Uiso   1.00
N182   N     0.63902   0.86915   0.15018   0.00000  Uiso   1.00
N183   N     0.54338   0.54211   0.40962   0.00000  Uiso   1.00
N184   N     0.64479   0.56776   0.72161   0.00000  Uiso   1.00
C185   C     0.18638   0.86049   0.65768   0.00000  Uiso   1.00
C186   C     0.17555   0.79778   0.65743   0.00000  Uiso   1.00
C187   C     0.20602   0.75539   0.68996   0.00000  Uiso   1.00
C188   C     0.18948   0.70066   0.68364   0.00000  Uiso   1.00
C189   C     0.17956   0.60509   0.68901   0.00000  Uiso   1.00
C190   C     0.14919   0.88791   0.72895   0.00000  Uiso   1.00
C191   C     0.15750   0.92130   0.82160   0.00000  Uiso   1.00
C192   C     0.11876   0.94245   0.87547   0.00000  Uiso   1.00
C193   C     0.06791   0.98684   0.99183   0.00000  Uiso   1.00
C194   C     0.17714   0.88083   0.53933   0.00000  Uiso   1.00
C195   C     0.20895   0.90829   0.47255   0.00000  Uiso   1.00
C196   C     0.19374   0.92349   0.36678   0.00000  Uiso   1.00
C197   C     0.18629   0.95689   0.18872   0.00000  Uiso   1.00
C198   C     0.10282   0.83867   0.58860   0.00000  Uiso   1.00
C199   C     0.13016   0.78593   0.61991   0.00000  Uiso   1.00
C200   C     0.11357   0.73125   0.61353   0.00000  Uiso   1.00
C201   C     0.14401   0.68878   0.64604   0.00000  Uiso   1.00
C202   C     0.10380   0.87606   0.69143   0.00000  Uiso   1.00
C203   C     0.06504   0.89717   0.74517   0.00000  Uiso   1.00
C204   C     0.07329   0.93058   0.83788   0.00000  Uiso   1.00
C205   C     0.13175   0.86898   0.50181   0.00000  Uiso   1.00
C206   C     0.11649   0.88415   0.39612   0.00000  Uiso   1.00
C207   C     0.14827   0.91162   0.32919   0.00000  Uiso   1.00
H208   H     0.22172   0.86972   0.68690   0.00000  Uiso   1.00
H209   H     0.24115   0.76458   0.71901   0.00000  Uiso   1.00
H210   H     0.19263   0.93047   0.85062   0.00000  Uiso   1.00
H211   H     0.24407   0.91745   0.50162   0.00000  Uiso   1.00
H212   H     0.24266   0.64278   0.73809   0.00000  Uiso   1.00
H213   H     0.14036   0.99260   0.01557   0.00000  Uiso   1.00
H214   H     0.24883   0.96514   0.27965   0.00000  Uiso   1.00
H215   H     0.06748   0.82945   0.55939   0.00000  Uiso   1.00
H216   H     0.07844   0.72209   0.58449   0.00000  Uiso   1.00
H217   H     0.02993   0.88799   0.71610   0.00000  Uiso   1.00
H218   H     0.08137   0.87497   0.36711   0.00000  Uiso   1.00
H219   H     0.11060   0.60830   0.62892   0.00000  Uiso   1.00
H220   H     0.00830   0.95812   0.90640   0.00000  Uiso   1.00
H221   H     0.11678   0.93066   0.17047   0.00000  Uiso   1.00
O222   O     0.18662   0.55565   0.70236   0.00000  Uiso   1.00
O223   O     0.05241   0.01460   0.06639   0.00000  Uiso   1.00
O224   O     0.19472   0.97858   0.10087   0.00000  Uiso   1.00
N225   N     0.21008   0.64940   0.70893   0.00000  Uiso   1.00
N226   N     0.11443   0.97645   0.96837   0.00000  Uiso   1.00
N227   N     0.21584   0.95080   0.28035   0.00000  Uiso   1.00
N228   N     0.13902   0.63085   0.65018   0.00000  Uiso   1.00
N229   N     0.04338   0.95789   0.90962   0.00000  Uiso   1.00
N230   N     0.14479   0.93224   0.22161   0.00000  Uiso   1.00
C231   C     0.68638   0.36049   0.65768   0.00000  Uiso   1.00
C232   C     0.67555   0.29778   0.65743   0.00000  Uiso   1.00
C233   C     0.70602   0.25539   0.68996   0.00000  Uiso   1.00
C234   C     0.68948   0.20066   0.68364   0.00000  Uiso   1.00
C235   C     0.67956   0.10509   0.68901   0.00000  Uiso   1.00
C236   C     0.64919   0.38791   0.72895   0.00000  Uiso   1.00
C237   C     0.65750   0.42130   0.82160   0.00000  Uiso   1.00
C238   C     0.61876   0.44245   0.87547   0.00000  Uiso   1.00
C239   C     0.56791   0.48684   0.99183   0.00000  Uiso   1.00
C240   C     0.67714   0.38083   0.53933   0.00000  Uiso   1.00
C241   C     0.70895   0.40829   0.47255   0.00000  Uiso   1.00
C242   C     0.69374   0.42349   0.36678   0.00000  Uiso   1.00
C243   C     0.68629   0.45689   0.18872   0.00000  Uiso   1.00
C244   C     0.60282   0.33867   0.58860   0.00000  Uiso   1.00
C245   C     0.63016   0.28593   0.61991   0.00000  Uiso   1.00
C246   C     0.61357   0.23125   0.61353   0.00000  Uiso   1.00
C247   C     0.64401   0.18878   0.64604   0.00000  Uiso   1.00
C248   C     0.60380   0.37606   0.69143   0.00000  Uiso   1.00
C249   C     0.56504   0.39717   0.74517   0.00000  Uiso   1.00
C250   C     0.57329   0.43058   0.83788   0.00000  Uiso   1.00
C251   C     0.63175   0.36898   0.50181   0.00000  Uiso   1.00
C252   C     0.61649   0.38415   0.39612   0.00000  Uiso   1.00
C253   C     0.64827   0.41162   0.32919   0.00000  Uiso   1.00
H254   H     0.72172   0.36972   0.68690   0.00000  Uiso   1.00
H255   H     0.74115   0.26458   0.71901   0.00000  Uiso   1.00
H256   H     0.69263   0.43047   0.85062   0.00000  Uiso   1.00
H257   H     0.74407   0.41745   0.50162   0.00000  Uiso   1.00
H258   H     0.74266   0.14278   0.73809   0.00000  Uiso   1.00
H259   H     0.64036   0.49260   0.01557   0.00000  Uiso   1.00
H260   H     0.74883   0.46514   0.27965   0.00000  Uiso   1.00
H261   H     0.56748   0.32945   0.55939   0.00000  Uiso   1.00
H262   H     0.57844   0.22209   0.58449   0.00000  Uiso   1.00
H263   H     0.52993   0.38799   0.71610   0.00000  Uiso   1.00
H264   H     0.58137   0.37497   0.36711   0.00000  Uiso   1.00
H265   H     0.61060   0.10830   0.62892   0.00000  Uiso   1.00
H266   H     0.50830   0.45812   0.90640   0.00000  Uiso   1.00
H267   H     0.61678   0.43066   0.17047   0.00000  Uiso   1.00
O268   O     0.68662   0.05565   0.70236   0.00000  Uiso   1.00
O269   O     0.55241   0.51460   0.06639   0.00000  Uiso   1.00
O270   O     0.69472   0.47858   0.10087   0.00000  Uiso   1.00
N271   N     0.71008   0.14940   0.70893   0.00000  Uiso   1.00
N272   N     0.61443   0.47645   0.96837   0.00000  Uiso   1.00
N273   N     0.71584   0.45080   0.28035   0.00000  Uiso   1.00
N274   N     0.63902   0.13085   0.65018   0.00000  Uiso   1.00
N275   N     0.54338   0.45789   0.90962   0.00000  Uiso   1.00
N276   N     0.64479   0.43224   0.22161   0.00000  Uiso   1.00
C277   C     0.81362   0.86049   0.84232   0.00000  Uiso   1.00
C278   C     0.82445   0.79778   0.84257   0.00000  Uiso   1.00
C279   C     0.79398   0.75539   0.81004   0.00000  Uiso   1.00
C280   C     0.81052   0.70066   0.81636   0.00000  Uiso   1.00
C281   C     0.82044   0.60509   0.81099   0.00000  Uiso   1.00
C282   C     0.85081   0.88791   0.77105   0.00000  Uiso   1.00
C283   C     0.84250   0.92130   0.67840   0.00000  Uiso   1.00
C284   C     0.88124   0.94245   0.62453   0.00000  Uiso   1.00
C285   C     0.93209   0.98684   0.50817   0.00000  Uiso   1.00
C286   C     0.82286   0.88083   0.96067   0.00000  Uiso   1.00
C287   C     0.79105   0.90829   0.02745   0.00000  Uiso   1.00
C288   C     0.80626   0.92349   0.13322   0.00000  Uiso   1.00
C289   C     0.81371   0.95689   0.31128   0.00000  Uiso   1.00
C290   C     0.89718   0.83867   0.91140   0.00000  Uiso   1.00
C291   C     0.86984   0.78593   0.88009   0.00000  Uiso   1.00
C292   C     0.88643   0.73125   0.88647   0.00000  Uiso   1.00
C293   C     0.85599   0.68878   0.85396   0.00000  Uiso   1.00
C294   C     0.89620   0.87606   0.80857   0.00000  Uiso   1.00
C295   C     0.93496   0.89717   0.75483   0.00000  Uiso   1.00
C296   C     0.92671   0.93058   0.66212   0.00000  Uiso   1.00
C297   C     0.86825   0.86898   0.99819   0.00000  Uiso   1.00
C298   C     0.88351   0.88415   0.10388   0.00000  Uiso   1.00
C299   C     0.85173   0.91162   0.17081   0.00000  Uiso   1.00
H300   H     0.77828   0.86972   0.81310   0.00000  Uiso   1.00
H301   H     0.75885   0.76458   0.78099   0.00000  Uiso   1.00
H302   H     0.80737   0.93047   0.64938   0.00000  Uiso   1.00
H303   H     0.75593   0.91745   0.99838   0.00000  Uiso   1.00
H304   H     0.75734   0.64278   0.76191   0.00000  Uiso   1.00
H305   H     0.85964   0.99260   0.48443   0.00000  Uiso   1.00
H306   H     0.75117   0.96514   0.22035   0.00000  Uiso   1.00
H307   H     0.93252   0.82945   0.94061   0.00000  Uiso   1.00
H308   H     0.92156   0.72209   0.91551   0.00000  Uiso   1.00
H309   H     0.97007   0.88799   0.78390   0.00000  Uiso   1.00
H310   H     0.91863   0.87497   0.13289   0.00000  Uiso   1.00
H311   H     0.88940   0.60830   0.87108   0.00000  Uiso   1.00
H312   H     0.99170   0.95812   0.59360   0.00000  Uiso   1.00
H313   H     0.88322   0.93066   0.32953   0.00000  Uiso   1.00
O314   O     0.81338   0.55565   0.79764   0.00000  Uiso   1.00
O315   O     0.94759   0.01460   0.43361   0.00000  Uiso   1.00
O316   O     0.80528   0.97858   0.39913   0.00000  Uiso   1.00
N317   N     0.78992   0.64940   0.79107   0.00000  Uiso   1.00
N318   N     0.88557   0.97645   0.53163   0.00000  Uiso   1.00
N319   N     0.78416   0.95080   0.21965   0.00000  Uiso   1.00
N320   N     0.86098   0.63085   0.84982   0.00000  Uiso   1.00
N321   N     0.95662   0.95789   0.59038   0.00000  Uiso   1.00
N322   N     0.85521   0.93224   0.27839   0.00000  Uiso   1.00
C323   C     0.31362   0.36049   0.84232   0.00000  Uiso   1.00
C324   C     0.32445   0.29778   0.84257   0.00000  Uiso   1.00
C325   C     0.29398   0.25539   0.81004   0.00000  Uiso   1.00
C326   C     0.31052   0.20066   0.81636   0.00000  Uiso   1.00
C327   C     0.32044   0.10509   0.81099   0.00000  Uiso   1.00
C328   C     0.35081   0.38791   0.77105   0.00000  Uiso   1.00
C329   C     0.34250   0.42130   0.67840   0.00000  Uiso   1.00
C330   C     0.38124   0.44245   0.62453   0.00000  Uiso   1.00
C331   C     0.43209   0.48684   0.50817   0.00000  Uiso   1.00
C332   C     0.32286   0.38083   0.96067   0.00000  Uiso   1.00
C333   C     0.29105   0.40829   0.02745   0.00000  Uiso   1.00
C334   C     0.30626   0.42349   0.13322   0.00000  Uiso   1.00
C335   C     0.31371   0.45689   0.31128   0.00000  Uiso   1.00
C336   C     0.39718   0.33867   0.91140   0.00000  Uiso   1.00
C337   C     0.36984   0.28593   0.88009   0.00000  Uiso   1.00
C338   C     0.38643   0.23125   0.88647   0.00000  Uiso   1.00
C339   C     0.35599   0.18878   0.85396   0.00000  Uiso   1.00
C340   C     0.39620   0.37606   0.80857   0.00000  Uiso   1.00
C341   C     0.43496   0.39717   0.75483   0.00000  Uiso   1.00
C342   C     0.42671   0.43058   0.66212   0.00000  Uiso   1.00
C343   C     0.36825   0.36898   0.99819   0.00000  Uiso   1.00
C344   C     0.38351   0.38415   0.10388   0.00000  Uiso   1.00
C345   C     0.35173   0.41162   0.17081   0.00000  Uiso   1.00
H346   H     0.27828   0.36972   0.81310   0.00000  Uiso   1.00
H347   H     0.25885   0.26458   0.78099   0.00000  Uiso   1.00
H348   H     0.30737   0.43047   0.64938   0.00000  Uiso   1.00
H349   H     0.25593   0.41745   0.99838   0.00000  Uiso   1.00
H350   H     0.25734   0.14278   0.76191   0.00000  Uiso   1.00
H351   H     0.35964   0.49260   0.48443   0.00000  Uiso   1.00
H352   H     0.25117   0.46514   0.22035   0.00000  Uiso   1.00
H353   H     0.43252   0.32945   0.94061   0.00000  Uiso   1.00
H354   H     0.42156   0.22209   0.91551   0.00000  Uiso   1.00
H355   H     0.47007   0.38799   0.78390   0.00000  Uiso   1.00
H356   H     0.41863   0.37497   0.13289   0.00000  Uiso   1.00
H357   H     0.38940   0.10830   0.87108   0.00000  Uiso   1.00
H358   H     0.49170   0.45812   0.59360   0.00000  Uiso   1.00
H359   H     0.38322   0.43066   0.32953   0.00000  Uiso   1.00
O360   O     0.31338   0.05565   0.79764   0.00000  Uiso   1.00
O361   O     0.44759   0.51460   0.43361   0.00000  Uiso   1.00
O362   O     0.30528   0.47858   0.39913   0.00000  Uiso   1.00
N363   N     0.28992   0.14940   0.79107   0.00000  Uiso   1.00
N364   N     0.38557   0.47645   0.53163   0.00000  Uiso   1.00
N365   N     0.28416   0.45080   0.21965   0.00000  Uiso   1.00
N366   N     0.36098   0.13085   0.84982   0.00000  Uiso   1.00
N367   N     0.45662   0.45789   0.59038   0.00000  Uiso   1.00
N368   N     0.35521   0.43224   0.27839   0.00000  Uiso   1.00
