data_job_04398
_audit_creation_date              2018-12-19
_audit_creation_method            'Materials Studio'
_symmetry_space_group_name_H-M    'P1'
_symmetry_Int_Tables_number       1
_symmetry_cell_setting            triclinic
loop_
_symmetry_equiv_pos_as_xyz
  x,y,z
_cell_length_a                    12.8444
_cell_length_b                    30.9129
_cell_length_c                    11.8133
_cell_angle_alpha                 90.0000
_cell_angle_beta                  89.9974
_cell_angle_gamma                 90.0000
loop_
_atom_site_label
_atom_site_type_symbol
_atom_site_fract_x
_atom_site_fract_y
_atom_site_fract_z
_atom_site_U_iso_or_equiv
_atom_site_adp_type
_atom_site_occupancy
C1     C     0.80998   0.40695   0.18308   0.00000  Uiso   1.00
C2     C     0.83511   0.39210   0.30310   0.00000  Uiso   1.00
C3     C     0.79916   0.41119   0.40197   0.00000  Uiso   1.00
C4     C     0.83104   0.39277   0.50340   0.00000  Uiso   1.00
C5     C     0.86016   0.37523   0.68941   0.00000  Uiso   1.00
C6     C     0.91452   0.41521   0.12584   0.00000  Uiso   1.00
C7     C     0.94532   0.45373   0.07566   0.00000  Uiso   1.00
C8     C     0.04404   0.45476   0.02785   0.00000  Uiso   1.00
C9     C     0.19641   0.47309   0.93858   0.00000  Uiso   1.00
C10    C     0.76291   0.36786   0.12324   0.00000  Uiso   1.00
C11    C     0.66625   0.36658   0.07085   0.00000  Uiso   1.00
C12    C     0.63734   0.32775   0.02084   0.00000  Uiso   1.00
C13    C     0.55431   0.27256   0.92755   0.00000  Uiso   1.00
C14    C     0.93052   0.34028   0.18738   0.00000  Uiso   1.00
C15    C     0.90059   0.35588   0.30543   0.00000  Uiso   1.00
C16    C     0.93253   0.33743   0.40674   0.00000  Uiso   1.00
C17    C     0.89663   0.35649   0.50574   0.00000  Uiso   1.00
C18    C     0.98000   0.37900   0.12817   0.00000  Uiso   1.00
C19    C     0.07869   0.37997   0.08042   0.00000  Uiso   1.00
C20    C     0.10964   0.41848   0.03019   0.00000  Uiso   1.00
C21    C     0.82839   0.33165   0.12558   0.00000  Uiso   1.00
C22    C     0.79962   0.29281   0.07563   0.00000  Uiso   1.00
C23    C     0.70294   0.29147   0.02318   0.00000  Uiso   1.00
H24    H     0.75901   0.43514   0.18125   0.00000  Uiso   1.00
H25    H     0.74850   0.43922   0.40013   0.00000  Uiso   1.00
H26    H     0.89463   0.48175   0.07385   0.00000  Uiso   1.00
H27    H     0.61561   0.39461   0.06906   0.00000  Uiso   1.00
H28    H     0.76576   0.42778   0.64382   0.00000  Uiso   1.00
H29    H     0.07387   0.51745   0.95582   0.00000  Uiso   1.00
H30    H     0.48549   0.33369   0.94571   0.00000  Uiso   1.00
H31    H     0.98150   0.31208   0.18920   0.00000  Uiso   1.00
H32    H     0.98320   0.30940   0.40852   0.00000  Uiso   1.00
H33    H     0.12934   0.35194   0.08224   0.00000  Uiso   1.00
H34    H     0.85031   0.26480   0.07745   0.00000  Uiso   1.00
H35    H     0.95626   0.32242   0.65064   0.00000  Uiso   1.00
H36    H     0.26437   0.41209   0.96263   0.00000  Uiso   1.00
H37    H     0.67599   0.22833   0.95252   0.00000  Uiso   1.00
O38    O     0.85814   0.37556   0.79136   0.00000  Uiso   1.00
O39    O     0.26236   0.49321   0.88871   0.00000  Uiso   1.00
O40    O     0.49042   0.25212   0.87546   0.00000  Uiso   1.00
N41    N     0.81034   0.40334   0.61533   0.00000  Uiso   1.00
N42    N     0.09842   0.48718   0.97210   0.00000  Uiso   1.00
N43    N     0.54834   0.31539   0.96263   0.00000  Uiso   1.00
N44    N     0.91285   0.34665   0.61899   0.00000  Uiso   1.00
N45    N     0.20092   0.43049   0.97577   0.00000  Uiso   1.00
N46    N     0.65084   0.25870   0.96629   0.00000  Uiso   1.00
C47    C     0.30998   0.10856   0.31591   0.00000  Uiso   1.00
C48    C     0.33511   0.12341   0.19588   0.00000  Uiso   1.00
C49    C     0.29916   0.10431   0.09702   0.00000  Uiso   1.00
C50    C     0.33104   0.12273   0.99558   0.00000  Uiso   1.00
C51    C     0.36015   0.14026   0.80956   0.00000  Uiso   1.00
C52    C     0.41452   0.10031   0.37314   0.00000  Uiso   1.00
C53    C     0.44533   0.06179   0.42332   0.00000  Uiso   1.00
C54    C     0.54406   0.06077   0.47112   0.00000  Uiso   1.00
C55    C     0.69642   0.04245   0.56037   0.00000  Uiso   1.00
C56    C     0.26291   0.14766   0.37574   0.00000  Uiso   1.00
C57    C     0.16625   0.14894   0.42814   0.00000  Uiso   1.00
C58    C     0.13734   0.18777   0.47814   0.00000  Uiso   1.00
C59    C     0.05430   0.24296   0.57143   0.00000  Uiso   1.00
C60    C     0.43051   0.17524   0.31157   0.00000  Uiso   1.00
C61    C     0.40058   0.15963   0.19353   0.00000  Uiso   1.00
C62    C     0.43252   0.17808   0.09221   0.00000  Uiso   1.00
C63    C     0.39662   0.15901   0.99322   0.00000  Uiso   1.00
C64    C     0.47999   0.13652   0.37078   0.00000  Uiso   1.00
C65    C     0.57869   0.13556   0.41852   0.00000  Uiso   1.00
C66    C     0.60965   0.09704   0.46876   0.00000  Uiso   1.00
C67    C     0.32838   0.18387   0.37338   0.00000  Uiso   1.00
C68    C     0.29961   0.22271   0.42333   0.00000  Uiso   1.00
C69    C     0.20293   0.22405   0.47578   0.00000  Uiso   1.00
H70    H     0.25901   0.08037   0.31775   0.00000  Uiso   1.00
H71    H     0.24850   0.07628   0.09888   0.00000  Uiso   1.00
H72    H     0.39465   0.03377   0.42514   0.00000  Uiso   1.00
H73    H     0.11561   0.12091   0.42994   0.00000  Uiso   1.00
H74    H     0.26576   0.08772   0.85517   0.00000  Uiso   1.00
H75    H     0.57390   0.99808   0.54316   0.00000  Uiso   1.00
H76    H     0.98549   0.18182   0.55329   0.00000  Uiso   1.00
H77    H     0.48149   0.20343   0.30974   0.00000  Uiso   1.00
H78    H     0.48319   0.20610   0.09042   0.00000  Uiso   1.00
H79    H     0.62933   0.16359   0.41669   0.00000  Uiso   1.00
H80    H     0.35029   0.25072   0.42149   0.00000  Uiso   1.00
H81    H     0.45624   0.19308   0.84831   0.00000  Uiso   1.00
H82    H     0.76438   0.10345   0.53630   0.00000  Uiso   1.00
H83    H     0.17597   0.28719   0.54642   0.00000  Uiso   1.00
O84    O     0.35813   0.13993   0.70761   0.00000  Uiso   1.00
O85    O     0.76238   0.02233   0.61024   0.00000  Uiso   1.00
O86    O     0.99041   0.26340   0.62352   0.00000  Uiso   1.00
N87    N     0.31034   0.11215   0.88366   0.00000  Uiso   1.00
N88    N     0.59844   0.02835   0.52687   0.00000  Uiso   1.00
N89    N     0.04834   0.20013   0.53636   0.00000  Uiso   1.00
N90    N     0.41283   0.16885   0.87996   0.00000  Uiso   1.00
N91    N     0.70093   0.08504   0.52317   0.00000  Uiso   1.00
N92    N     0.15083   0.25682   0.53267   0.00000  Uiso   1.00
C93    C     0.18368   0.59999   0.13025   0.00000  Uiso   1.00
C94    C     0.15554   0.61638   0.01240   0.00000  Uiso   1.00
C95    C     0.18791   0.59825   0.91085   0.00000  Uiso   1.00
C96    C     0.15370   0.61802   0.81210   0.00000  Uiso   1.00
C97    C     0.11974   0.63788   0.62868   0.00000  Uiso   1.00
C98    C     0.08060   0.59165   0.19046   0.00000  Uiso   1.00
C99    C     0.04997   0.55273   0.23864   0.00000  Uiso   1.00
C100   C     0.95268   0.55168   0.28979   0.00000  Uiso   1.00
C101   C     0.80240   0.53316   0.38288   0.00000  Uiso   1.00
C102   C     0.23381   0.63810   0.19145   0.00000  Uiso   1.00
C103   C     0.33199   0.63824   0.24049   0.00000  Uiso   1.00
C104   C     0.36368   0.67631   0.29249   0.00000  Uiso   1.00
C105   C     0.45128   0.72992   0.38712   0.00000  Uiso   1.00
C106   C     0.06536   0.66734   0.13544   0.00000  Uiso   1.00
C107   C     0.09127   0.65296   0.01522   0.00000  Uiso   1.00
C108   C     0.05701   0.67276   0.91659   0.00000  Uiso   1.00
C109   C     0.08932   0.65466   0.81492   0.00000  Uiso   1.00
C110   C     0.01633   0.62822   0.19328   0.00000  Uiso   1.00
C111   C     0.91906   0.62724   0.24438   0.00000  Uiso   1.00
C112   C     0.88829   0.58833   0.29261   0.00000  Uiso   1.00
C113   C     0.16954   0.67468   0.19427   0.00000  Uiso   1.00
C114   C     0.20108   0.71276   0.24622   0.00000  Uiso   1.00
C115   C     0.29929   0.71295   0.29532   0.00000  Uiso   1.00
H116   H     0.23371   0.57151   0.12806   0.00000  Uiso   1.00
H117   H     0.23764   0.56994   0.90871   0.00000  Uiso   1.00
H118   H     0.09973   0.52443   0.23645   0.00000  Uiso   1.00
H119   H     0.38170   0.60993   0.23829   0.00000  Uiso   1.00
H120   H     0.21362   0.58431   0.66676   0.00000  Uiso   1.00
H121   H     0.92284   0.48835   0.35786   0.00000  Uiso   1.00
H122   H     0.51744   0.66865   0.36174   0.00000  Uiso   1.00
H123   H     0.01532   0.69582   0.13764   0.00000  Uiso   1.00
H124   H     0.00727   0.70107   0.91880   0.00000  Uiso   1.00
H125   H     0.86936   0.65555   0.24655   0.00000  Uiso   1.00
H126   H     0.15133   0.74106   0.24839   0.00000  Uiso   1.00
H127   H     0.02664   0.69074   0.67495   0.00000  Uiso   1.00
H128   H     0.73586   0.59478   0.36606   0.00000  Uiso   1.00
H129   H     0.33046   0.77508   0.36993   0.00000  Uiso   1.00
O130   O     0.11875   0.63873   0.52673   0.00000  Uiso   1.00
O131   O     0.73727   0.51283   0.43344   0.00000  Uiso   1.00
O132   O     0.51736   0.74939   0.43853   0.00000  Uiso   1.00
N133   N     0.17074   0.60865   0.69872   0.00000  Uiso   1.00
N134   N     0.89887   0.51893   0.34484   0.00000  Uiso   1.00
N135   N     0.45476   0.68749   0.34849   0.00000  Uiso   1.00
N136   N     0.07013   0.66591   0.70313   0.00000  Uiso   1.00
N137   N     0.79826   0.57620   0.34925   0.00000  Uiso   1.00
N138   N     0.35415   0.74476   0.35290   0.00000  Uiso   1.00
C139   C     0.68369   0.91547   0.37076   0.00000  Uiso   1.00
C140   C     0.65556   0.89910   0.48862   0.00000  Uiso   1.00
C141   C     0.68793   0.91723   0.59015   0.00000  Uiso   1.00
C142   C     0.65374   0.89747   0.68893   0.00000  Uiso   1.00
C143   C     0.61979   0.87762   0.87236   0.00000  Uiso   1.00
C144   C     0.58060   0.92381   0.31056   0.00000  Uiso   1.00
C145   C     0.54996   0.96272   0.26237   0.00000  Uiso   1.00
C146   C     0.45266   0.96376   0.21124   0.00000  Uiso   1.00
C147   C     0.30237   0.98227   0.11816   0.00000  Uiso   1.00
C148   C     0.73382   0.87736   0.30957   0.00000  Uiso   1.00
C149   C     0.83200   0.87722   0.26051   0.00000  Uiso   1.00
C150   C     0.86369   0.83915   0.20852   0.00000  Uiso   1.00
C151   C     0.95130   0.78554   0.11390   0.00000  Uiso   1.00
C152   C     0.56538   0.84812   0.36563   0.00000  Uiso   1.00
C153   C     0.59130   0.86251   0.48583   0.00000  Uiso   1.00
C154   C     0.55704   0.84272   0.58448   0.00000  Uiso   1.00
C155   C     0.58937   0.86082   0.68614   0.00000  Uiso   1.00
C156   C     0.51634   0.88723   0.30777   0.00000  Uiso   1.00
C157   C     0.41907   0.88821   0.25669   0.00000  Uiso   1.00
C158   C     0.38828   0.92711   0.20844   0.00000  Uiso   1.00
C159   C     0.66956   0.84078   0.30678   0.00000  Uiso   1.00
C160   C     0.70111   0.80270   0.25484   0.00000  Uiso   1.00
C161   C     0.79932   0.80250   0.20572   0.00000  Uiso   1.00
H162   H     0.73371   0.94396   0.37293   0.00000  Uiso   1.00
H163   H     0.73766   0.94555   0.59228   0.00000  Uiso   1.00
H164   H     0.59970   0.99103   0.26453   0.00000  Uiso   1.00
H165   H     0.88170   0.90554   0.26269   0.00000  Uiso   1.00
H166   H     0.71366   0.93119   0.83424   0.00000  Uiso   1.00
H167   H     0.42280   0.02708   0.14314   0.00000  Uiso   1.00
H168   H     0.01744   0.84681   0.13924   0.00000  Uiso   1.00
H169   H     0.51535   0.81964   0.36345   0.00000  Uiso   1.00
H170   H     0.50732   0.81441   0.58229   0.00000  Uiso   1.00
H171   H     0.36937   0.85989   0.25455   0.00000  Uiso   1.00
H172   H     0.65136   0.77440   0.25270   0.00000  Uiso   1.00
H173   H     0.52671   0.82475   0.82614   0.00000  Uiso   1.00
H174   H     0.23585   0.92065   0.13503   0.00000  Uiso   1.00
H175   H     0.83049   0.74037   0.13114   0.00000  Uiso   1.00
O176   O     0.61881   0.87678   0.97432   0.00000  Uiso   1.00
O177   O     0.23723   0.00259   0.06761   0.00000  Uiso   1.00
O178   O     0.01738   0.76607   0.06250   0.00000  Uiso   1.00
N179   N     0.67078   0.90685   0.80230   0.00000  Uiso   1.00
N180   N     0.39884   0.99651   0.15618   0.00000  Uiso   1.00
N181   N     0.95477   0.82797   0.15251   0.00000  Uiso   1.00
N182   N     0.57018   0.84958   0.79794   0.00000  Uiso   1.00
N183   N     0.29824   0.93924   0.15182   0.00000  Uiso   1.00
N184   N     0.85417   0.77070   0.14815   0.00000  Uiso   1.00
C185   C     0.19002   0.90695   0.81692   0.00000  Uiso   1.00
C186   C     0.16489   0.89210   0.69690   0.00000  Uiso   1.00
C187   C     0.20084   0.91119   0.59803   0.00000  Uiso   1.00
C188   C     0.16896   0.89277   0.49660   0.00000  Uiso   1.00
C189   C     0.13984   0.87523   0.31059   0.00000  Uiso   1.00
C190   C     0.08548   0.91521   0.87416   0.00000  Uiso   1.00
C191   C     0.05468   0.95373   0.92434   0.00000  Uiso   1.00
C192   C     0.95596   0.95476   0.97215   0.00000  Uiso   1.00
C193   C     0.80359   0.97309   0.06142   0.00000  Uiso   1.00
C194   C     0.23709   0.86786   0.87676   0.00000  Uiso   1.00
C195   C     0.33375   0.86658   0.92915   0.00000  Uiso   1.00
C196   C     0.36266   0.82775   0.97916   0.00000  Uiso   1.00
C197   C     0.44569   0.77256   0.07245   0.00000  Uiso   1.00
C198   C     0.06948   0.84028   0.81262   0.00000  Uiso   1.00
C199   C     0.09941   0.85588   0.69457   0.00000  Uiso   1.00
C200   C     0.06747   0.83743   0.59326   0.00000  Uiso   1.00
C201   C     0.10337   0.85649   0.49426   0.00000  Uiso   1.00
C202   C     0.02000   0.87900   0.87183   0.00000  Uiso   1.00
C203   C     0.92131   0.87997   0.91958   0.00000  Uiso   1.00
C204   C     0.89036   0.91848   0.96981   0.00000  Uiso   1.00
C205   C     0.17161   0.83165   0.87442   0.00000  Uiso   1.00
C206   C     0.20038   0.79281   0.92437   0.00000  Uiso   1.00
C207   C     0.29706   0.79147   0.97682   0.00000  Uiso   1.00
H208   H     0.24099   0.93514   0.81875   0.00000  Uiso   1.00
H209   H     0.25150   0.93922   0.59987   0.00000  Uiso   1.00
H210   H     0.10537   0.98175   0.92615   0.00000  Uiso   1.00
H211   H     0.38439   0.89461   0.93094   0.00000  Uiso   1.00
H212   H     0.23424   0.92778   0.35618   0.00000  Uiso   1.00
H213   H     0.92613   0.01745   0.04418   0.00000  Uiso   1.00
H214   H     0.51451   0.83369   0.05429   0.00000  Uiso   1.00
H215   H     0.01850   0.81208   0.81080   0.00000  Uiso   1.00
H216   H     0.01680   0.80940   0.59148   0.00000  Uiso   1.00
H217   H     0.87066   0.85194   0.91776   0.00000  Uiso   1.00
H218   H     0.14969   0.76480   0.92255   0.00000  Uiso   1.00
H219   H     0.04374   0.82242   0.34936   0.00000  Uiso   1.00
H220   H     0.73563   0.91209   0.03737   0.00000  Uiso   1.00
H221   H     0.32401   0.72833   0.04748   0.00000  Uiso   1.00
O222   O     0.14186   0.87556   0.20864   0.00000  Uiso   1.00
O223   O     0.73764   0.99321   0.11129   0.00000  Uiso   1.00
O224   O     0.50958   0.75212   0.12454   0.00000  Uiso   1.00
N225   N     0.18966   0.90334   0.38467   0.00000  Uiso   1.00
N226   N     0.90158   0.98718   0.02790   0.00000  Uiso   1.00
N227   N     0.45166   0.81539   0.03737   0.00000  Uiso   1.00
N228   N     0.08715   0.84665   0.38101   0.00000  Uiso   1.00
N229   N     0.79908   0.93049   0.02423   0.00000  Uiso   1.00
N230   N     0.34916   0.75870   0.03371   0.00000  Uiso   1.00
C231   C     0.69002   0.60856   0.68409   0.00000  Uiso   1.00
C232   C     0.66489   0.62341   0.80412   0.00000  Uiso   1.00
C233   C     0.70084   0.60431   0.90298   0.00000  Uiso   1.00
C234   C     0.66896   0.62273   0.00442   0.00000  Uiso   1.00
C235   C     0.63985   0.64026   0.19044   0.00000  Uiso   1.00
C236   C     0.58548   0.60031   0.62686   0.00000  Uiso   1.00
C237   C     0.55467   0.56179   0.57668   0.00000  Uiso   1.00
C238   C     0.45594   0.56077   0.52888   0.00000  Uiso   1.00
C239   C     0.30358   0.54245   0.43963   0.00000  Uiso   1.00
C240   C     0.73709   0.64766   0.62426   0.00000  Uiso   1.00
C241   C     0.83375   0.64894   0.57186   0.00000  Uiso   1.00
C242   C     0.86266   0.68777   0.52186   0.00000  Uiso   1.00
C243   C     0.94570   0.74296   0.42857   0.00000  Uiso   1.00
C244   C     0.56949   0.67524   0.68843   0.00000  Uiso   1.00
C245   C     0.59942   0.65963   0.80647   0.00000  Uiso   1.00
C246   C     0.56748   0.67808   0.90779   0.00000  Uiso   1.00
C247   C     0.60338   0.65901   0.00678   0.00000  Uiso   1.00
C248   C     0.52001   0.63652   0.62922   0.00000  Uiso   1.00
C249   C     0.42131   0.63556   0.58148   0.00000  Uiso   1.00
C250   C     0.39035   0.59704   0.53124   0.00000  Uiso   1.00
C251   C     0.67162   0.68387   0.62662   0.00000  Uiso   1.00
C252   C     0.70039   0.72271   0.57667   0.00000  Uiso   1.00
C253   C     0.79707   0.72405   0.52422   0.00000  Uiso   1.00
H254   H     0.74099   0.58037   0.68225   0.00000  Uiso   1.00
H255   H     0.75150   0.57628   0.90112   0.00000  Uiso   1.00
H256   H     0.60535   0.53377   0.57486   0.00000  Uiso   1.00
H257   H     0.88439   0.62091   0.57006   0.00000  Uiso   1.00
H258   H     0.73424   0.58772   0.14483   0.00000  Uiso   1.00
H259   H     0.42610   0.49808   0.45684   0.00000  Uiso   1.00
H260   H     0.01451   0.68182   0.44671   0.00000  Uiso   1.00
H261   H     0.51851   0.70343   0.69026   0.00000  Uiso   1.00
H262   H     0.51681   0.70610   0.90958   0.00000  Uiso   1.00
H263   H     0.37067   0.66359   0.58331   0.00000  Uiso   1.00
H264   H     0.64971   0.75072   0.57851   0.00000  Uiso   1.00
H265   H     0.54376   0.69308   0.15169   0.00000  Uiso   1.00
H266   H     0.23562   0.60345   0.46370   0.00000  Uiso   1.00
H267   H     0.82403   0.78719   0.45358   0.00000  Uiso   1.00
O268   O     0.64187   0.63993   0.29239   0.00000  Uiso   1.00
O269   O     0.23762   0.52233   0.38976   0.00000  Uiso   1.00
O270   O     0.00959   0.76340   0.37648   0.00000  Uiso   1.00
N271   N     0.68966   0.61215   0.11634   0.00000  Uiso   1.00
N272   N     0.40156   0.52835   0.47313   0.00000  Uiso   1.00
N273   N     0.95166   0.70013   0.46364   0.00000  Uiso   1.00
N274   N     0.58717   0.66885   0.12004   0.00000  Uiso   1.00
N275   N     0.29907   0.58504   0.47683   0.00000  Uiso   1.00
N276   N     0.84917   0.75682   0.46733   0.00000  Uiso   1.00
C277   C     0.81632   0.09999   0.86975   0.00000  Uiso   1.00
C278   C     0.84446   0.11638   0.98760   0.00000  Uiso   1.00
C279   C     0.81209   0.09825   0.08915   0.00000  Uiso   1.00
C280   C     0.84630   0.11802   0.18790   0.00000  Uiso   1.00
C281   C     0.88026   0.13788   0.37132   0.00000  Uiso   1.00
C282   C     0.91940   0.09165   0.80954   0.00000  Uiso   1.00
C283   C     0.95003   0.05273   0.76136   0.00000  Uiso   1.00
C284   C     0.04732   0.05168   0.71021   0.00000  Uiso   1.00
C285   C     0.19760   0.03316   0.61712   0.00000  Uiso   1.00
C286   C     0.76619   0.13810   0.80855   0.00000  Uiso   1.00
C287   C     0.66801   0.13824   0.75951   0.00000  Uiso   1.00
C288   C     0.63632   0.17631   0.70751   0.00000  Uiso   1.00
C289   C     0.54872   0.22992   0.61288   0.00000  Uiso   1.00
C290   C     0.93464   0.16734   0.86456   0.00000  Uiso   1.00
C291   C     0.90873   0.15296   0.98478   0.00000  Uiso   1.00
C292   C     0.94299   0.17276   0.08341   0.00000  Uiso   1.00
C293   C     0.91068   0.15466   0.18508   0.00000  Uiso   1.00
C294   C     0.98367   0.12822   0.80672   0.00000  Uiso   1.00
C295   C     0.08094   0.12724   0.75562   0.00000  Uiso   1.00
C296   C     0.11171   0.08833   0.70739   0.00000  Uiso   1.00
C297   C     0.83046   0.17468   0.80573   0.00000  Uiso   1.00
C298   C     0.79892   0.21276   0.75378   0.00000  Uiso   1.00
C299   C     0.70071   0.21295   0.70468   0.00000  Uiso   1.00
H300   H     0.76629   0.07151   0.87194   0.00000  Uiso   1.00
H301   H     0.76236   0.06994   0.09129   0.00000  Uiso   1.00
H302   H     0.90027   0.02443   0.76355   0.00000  Uiso   1.00
H303   H     0.61830   0.10993   0.76171   0.00000  Uiso   1.00
H304   H     0.78638   0.08431   0.33324   0.00000  Uiso   1.00
H305   H     0.07716   0.98835   0.64214   0.00000  Uiso   1.00
H306   H     0.48256   0.16865   0.63826   0.00000  Uiso   1.00
H307   H     0.98468   0.19582   0.86236   0.00000  Uiso   1.00
H308   H     0.99273   0.20107   0.08120   0.00000  Uiso   1.00
H309   H     0.13064   0.15555   0.75345   0.00000  Uiso   1.00
H310   H     0.84867   0.24106   0.75161   0.00000  Uiso   1.00
H311   H     0.97336   0.19074   0.32505   0.00000  Uiso   1.00
H312   H     0.26414   0.09478   0.63394   0.00000  Uiso   1.00
H313   H     0.66954   0.27508   0.63007   0.00000  Uiso   1.00
O314   O     0.88125   0.13873   0.47327   0.00000  Uiso   1.00
O315   O     0.26273   0.01283   0.56656   0.00000  Uiso   1.00
O316   O     0.48264   0.24939   0.56147   0.00000  Uiso   1.00
N317   N     0.82926   0.10865   0.30128   0.00000  Uiso   1.00
N318   N     0.10113   0.01893   0.65516   0.00000  Uiso   1.00
N319   N     0.54524   0.18749   0.65151   0.00000  Uiso   1.00
N320   N     0.92987   0.16591   0.29687   0.00000  Uiso   1.00
N321   N     0.20174   0.07620   0.65075   0.00000  Uiso   1.00
N322   N     0.64585   0.24476   0.64710   0.00000  Uiso   1.00
C323   C     0.31631   0.41547   0.62924   0.00000  Uiso   1.00
C324   C     0.34444   0.39910   0.51138   0.00000  Uiso   1.00
C325   C     0.31207   0.41723   0.40985   0.00000  Uiso   1.00
C326   C     0.34626   0.39747   0.31107   0.00000  Uiso   1.00
C327   C     0.38021   0.37762   0.12764   0.00000  Uiso   1.00
C328   C     0.41940   0.42381   0.68944   0.00000  Uiso   1.00
C329   C     0.45004   0.46272   0.73763   0.00000  Uiso   1.00
C330   C     0.54734   0.46376   0.78876   0.00000  Uiso   1.00
C331   C     0.69763   0.48227   0.88184   0.00000  Uiso   1.00
C332   C     0.26618   0.37736   0.69043   0.00000  Uiso   1.00
C333   C     0.16800   0.37722   0.73949   0.00000  Uiso   1.00
C334   C     0.13631   0.33915   0.79148   0.00000  Uiso   1.00
C335   C     0.04870   0.28554   0.88610   0.00000  Uiso   1.00
C336   C     0.43462   0.34812   0.63437   0.00000  Uiso   1.00
C337   C     0.40870   0.36251   0.51417   0.00000  Uiso   1.00
C338   C     0.44296   0.34272   0.41552   0.00000  Uiso   1.00
C339   C     0.41063   0.36082   0.31386   0.00000  Uiso   1.00
C340   C     0.48366   0.38723   0.69223   0.00000  Uiso   1.00
C341   C     0.58093   0.38821   0.74331   0.00000  Uiso   1.00
C342   C     0.61172   0.42711   0.79156   0.00000  Uiso   1.00
C343   C     0.33044   0.34078   0.69322   0.00000  Uiso   1.00
C344   C     0.29889   0.30270   0.74516   0.00000  Uiso   1.00
C345   C     0.20068   0.30250   0.79428   0.00000  Uiso   1.00
H346   H     0.26629   0.44396   0.62707   0.00000  Uiso   1.00
H347   H     0.26234   0.44555   0.40772   0.00000  Uiso   1.00
H348   H     0.40030   0.49103   0.73547   0.00000  Uiso   1.00
H349   H     0.11830   0.40554   0.73731   0.00000  Uiso   1.00
H350   H     0.28634   0.43119   0.16576   0.00000  Uiso   1.00
H351   H     0.57720   0.52708   0.85686   0.00000  Uiso   1.00
H352   H     0.98256   0.34681   0.86076   0.00000  Uiso   1.00
H353   H     0.48465   0.31964   0.63655   0.00000  Uiso   1.00
H354   H     0.49268   0.31441   0.41771   0.00000  Uiso   1.00
H355   H     0.63063   0.35989   0.74545   0.00000  Uiso   1.00
H356   H     0.34864   0.27440   0.74730   0.00000  Uiso   1.00
H357   H     0.47329   0.32475   0.17386   0.00000  Uiso   1.00
H358   H     0.76415   0.42065   0.86497   0.00000  Uiso   1.00
H359   H     0.16951   0.24037   0.86886   0.00000  Uiso   1.00
O360   O     0.38119   0.37678   0.02568   0.00000  Uiso   1.00
O361   O     0.76277   0.50259   0.93239   0.00000  Uiso   1.00
O362   O     0.98262   0.26607   0.93750   0.00000  Uiso   1.00
N363   N     0.32922   0.40685   0.19770   0.00000  Uiso   1.00
N364   N     0.60116   0.49651   0.84382   0.00000  Uiso   1.00
N365   N     0.04523   0.32797   0.84749   0.00000  Uiso   1.00
N366   N     0.42982   0.34958   0.20206   0.00000  Uiso   1.00
N367   N     0.70176   0.43924   0.84818   0.00000  Uiso   1.00
N368   N     0.14583   0.27070   0.85185   0.00000  Uiso   1.00
