data_job_05974
_audit_creation_date              2018-12-19
_audit_creation_method            'Materials Studio'
_symmetry_space_group_name_H-M    'P1'
_symmetry_Int_Tables_number       1
_symmetry_cell_setting            triclinic
loop_
_symmetry_equiv_pos_as_xyz
  x,y,z
_cell_length_a                    11.9945
_cell_length_b                    18.4927
_cell_length_c                    18.5923
_cell_angle_alpha                 64.4900
_cell_angle_beta                  78.5101
_cell_angle_gamma                 101.4333
loop_
_atom_site_label
_atom_site_type_symbol
_atom_site_fract_x
_atom_site_fract_y
_atom_site_fract_z
_atom_site_U_iso_or_equiv
_atom_site_adp_type
_atom_site_occupancy
C1     C     0.55581   0.29253   0.17544   0.00000  Uiso   1.00
C2     C     0.67295   0.27177   0.16629   0.00000  Uiso   1.00
C3     C     0.78066   0.32326   0.10177   0.00000  Uiso   1.00
C4     C     0.87754   0.29285   0.10470   0.00000  Uiso   1.00
C5     C     0.06101   0.27261   0.08056   0.00000  Uiso   1.00
C6     C     0.46224   0.21999   0.18032   0.00000  Uiso   1.00
C7     C     0.39278   0.22795   0.12761   0.00000  Uiso   1.00
C8     C     0.31227   0.15394   0.14237   0.00000  Uiso   1.00
C9     C     0.16855   0.05333   0.14005   0.00000  Uiso   1.00
C10    C     0.51889   0.28608   0.26192   0.00000  Uiso   1.00
C11    C     0.49704   0.34960   0.27781   0.00000  Uiso   1.00
C12    C     0.46420   0.33123   0.36127   0.00000  Uiso   1.00
C13    C     0.40845   0.33323   0.48563   0.00000  Uiso   1.00
C14    C     0.53632   0.14696   0.29540   0.00000  Uiso   1.00
C15    C     0.66236   0.19269   0.23144   0.00000  Uiso   1.00
C16    C     0.75910   0.16219   0.23449   0.00000  Uiso   1.00
C17    C     0.86694   0.21363   0.16998   0.00000  Uiso   1.00
C18    C     0.45165   0.14092   0.24548   0.00000  Uiso   1.00
C19    C     0.37122   0.06688   0.26033   0.00000  Uiso   1.00
C20    C     0.30166   0.07473   0.20765   0.00000  Uiso   1.00
C21    C     0.50831   0.20701   0.32707   0.00000  Uiso   1.00
C22    C     0.47549   0.18853   0.41053   0.00000  Uiso   1.00
C23    C     0.45359   0.25201   0.42654   0.00000  Uiso   1.00
H24    H     0.56405   0.35409   0.12471   0.00000  Uiso   1.00
H25    H     0.78881   0.38445   0.05135   0.00000  Uiso   1.00
H26    H     0.40098   0.28915   0.07720   0.00000  Uiso   1.00
H27    H     0.50524   0.41078   0.22737   0.00000  Uiso   1.00
H28    H     0.03332   0.38321   0.99873   0.00000  Uiso   1.00
H29    H     0.21553   0.18228   0.05325   0.00000  Uiso   1.00
H30    H     0.43537   0.43876   0.36992   0.00000  Uiso   1.00
H31    H     0.52808   0.08539   0.34613   0.00000  Uiso   1.00
H32    H     0.75088   0.10100   0.28491   0.00000  Uiso   1.00
H33    H     0.36305   0.00570   0.31076   0.00000  Uiso   1.00
H34    H     0.46731   0.12734   0.46093   0.00000  Uiso   1.00
H35    H     0.00254   0.15316   0.18829   0.00000  Uiso   1.00
H36    H     0.18474   0.95222   0.24281   0.00000  Uiso   1.00
H37    H     0.40459   0.20871   0.55949   0.00000  Uiso   1.00
O38    O     0.16513   0.28329   0.04923   0.00000  Uiso   1.00
O39    O     0.09221   0.01967   0.12077   0.00000  Uiso   1.00
O40    O     0.38064   0.35617   0.53623   0.00000  Uiso   1.00
N41    N     0.99551   0.32693   0.05175   0.00000  Uiso   1.00
N42    N     0.23094   0.13907   0.10271   0.00000  Uiso   1.00
N43    N     0.43644   0.37885   0.39878   0.00000  Uiso   1.00
N44    N     0.97894   0.20314   0.15376   0.00000  Uiso   1.00
N45    N     0.21437   0.01528   0.20472   0.00000  Uiso   1.00
N46    N     0.41987   0.25506   0.50078   0.00000  Uiso   1.00
C47    C     0.29411   0.54151   0.28291   0.00000  Uiso   1.00
C48    C     0.42968   0.56984   0.26495   0.00000  Uiso   1.00
C49    C     0.48746   0.58273   0.31814   0.00000  Uiso   1.00
C50    C     0.61212   0.60865   0.29021   0.00000  Uiso   1.00
C51    C     0.81282   0.65077   0.27422   0.00000  Uiso   1.00
C52    C     0.26999   0.60890   0.20978   0.00000  Uiso   1.00
C53    C     0.19350   0.65462   0.21660   0.00000  Uiso   1.00
C54    C     0.18373   0.71340   0.14223   0.00000  Uiso   1.00
C55    C     0.13645   0.81612   0.04059   0.00000  Uiso   1.00
C56    C     0.26397   0.46164   0.27518   0.00000  Uiso   1.00
C57    C     0.18239   0.38353   0.33697   0.00000  Uiso   1.00
C58    C     0.16754   0.31833   0.31764   0.00000  Uiso   1.00
C59    C     0.11091   0.19240   0.31754   0.00000  Uiso   1.00
C60    C     0.41276   0.56462   0.13871   0.00000  Uiso   1.00
C61    C     0.49412   0.58239   0.18663   0.00000  Uiso   1.00
C62    C     0.61874   0.60829   0.15861   0.00000  Uiso   1.00
C63    C     0.67669   0.62122   0.21176   0.00000  Uiso   1.00
C64    C     0.33444   0.62145   0.13146   0.00000  Uiso   1.00
C65    C     0.32478   0.68018   0.05706   0.00000  Uiso   1.00
C66    C     0.24830   0.72598   0.06376   0.00000  Uiso   1.00
C67    C     0.32842   0.47418   0.19685   0.00000  Uiso   1.00
C68    C     0.31368   0.40910   0.17743   0.00000  Uiso   1.00
C69    C     0.23210   0.33091   0.23918   0.00000  Uiso   1.00
H70    H     0.24393   0.53174   0.34388   0.00000  Uiso   1.00
H71    H     0.43755   0.57302   0.37875   0.00000  Uiso   1.00
H72    H     0.14363   0.64489   0.27722   0.00000  Uiso   1.00
H73    H     0.13253   0.37384   0.39756   0.00000  Uiso   1.00
H74    H     0.68063   0.62434   0.38285   0.00000  Uiso   1.00
H75    H     0.06086   0.77586   0.16877   0.00000  Uiso   1.00
H76    H     0.03745   0.20431   0.42255   0.00000  Uiso   1.00
H77    H     0.46294   0.57439   0.07773   0.00000  Uiso   1.00
H78    H     0.66859   0.61800   0.09800   0.00000  Uiso   1.00
H79    H     0.37466   0.68987   0.99647   0.00000  Uiso   1.00
H80    H     0.36357   0.41883   0.11682   0.00000  Uiso   1.00
H81    H     0.86815   0.66086   0.15498   0.00000  Uiso   1.00
H82    H     0.24837   0.81237   0.94090   0.00000  Uiso   1.00
H83    H     0.22497   0.24083   0.19468   0.00000  Uiso   1.00
O84    O     0.90572   0.67055   0.28703   0.00000  Uiso   1.00
O85    O     0.09258   0.86932   0.00617   0.00000  Uiso   1.00
O86    O     0.06188   0.11946   0.33913   0.00000  Uiso   1.00
N87    N     0.69654   0.62694   0.32645   0.00000  Uiso   1.00
N88    N     0.11710   0.76860   0.12629   0.00000  Uiso   1.00
N89    N     0.09520   0.23426   0.36355   0.00000  Uiso   1.00
N90    N     0.79745   0.64658   0.20383   0.00000  Uiso   1.00
N91    N     0.21801   0.78825   0.00368   0.00000  Uiso   1.00
N92    N     0.19610   0.25391   0.24093   0.00000  Uiso   1.00
C93    C     0.75026   0.17844   0.52964   0.00000  Uiso   1.00
C94    C     0.85767   0.16715   0.56031   0.00000  Uiso   1.00
C95    C     0.90291   0.10060   0.57372   0.00000  Uiso   1.00
C96    C     0.00177   0.10178   0.60187   0.00000  Uiso   1.00
C97    C     0.16065   0.07428   0.64737   0.00000  Uiso   1.00
C98    C     0.66246   0.18572   0.59585   0.00000  Uiso   1.00
C99    C     0.54355   0.13479   0.63914   0.00000  Uiso   1.00
C100   C     0.47808   0.15162   0.69721   0.00000  Uiso   1.00
C101   C     0.33387   0.15298   0.79785   0.00000  Uiso   1.00
C102   C     0.79584   0.26500   0.45069   0.00000  Uiso   1.00
C103   C     0.78906   0.28072   0.37191   0.00000  Uiso   1.00
C104   C     0.83586   0.36430   0.30777   0.00000  Uiso   1.00
C105   C     0.89874   0.48875   0.18302   0.00000  Uiso   1.00
C106   C     0.84539   0.29891   0.55579   0.00000  Uiso   1.00
C107   C     0.90934   0.23259   0.57452   0.00000  Uiso   1.00
C108   C     0.00816   0.23388   0.60265   0.00000  Uiso   1.00
C109   C     0.05354   0.16733   0.61610   0.00000  Uiso   1.00
C110   C     0.71412   0.25115   0.61006   0.00000  Uiso   1.00
C111   C     0.64881   0.26807   0.66808   0.00000  Uiso   1.00
C112   C     0.52985   0.21717   0.71144   0.00000  Uiso   1.00
C113   C     0.84751   0.33043   0.46489   0.00000  Uiso   1.00
C114   C     0.89432   0.41400   0.40086   0.00000  Uiso   1.00
C115   C     0.88762   0.42985   0.32200   0.00000  Uiso   1.00
H116   H     0.71002   0.12750   0.51858   0.00000  Uiso   1.00
H117   H     0.86289   0.04997   0.56272   0.00000  Uiso   1.00
H118   H     0.50359   0.08416   0.62813   0.00000  Uiso   1.00
H119   H     0.74907   0.23007   0.36095   0.00000  Uiso   1.00
H120   H     0.05513   0.99285   0.61796   0.00000  Uiso   1.00
H121   H     0.29752   0.06497   0.75584   0.00000  Uiso   1.00
H122   H     0.81514   0.37264   0.19244   0.00000  Uiso   1.00
H123   H     0.88562   0.34985   0.56686   0.00000  Uiso   1.00
H124   H     0.04813   0.28452   0.61364   0.00000  Uiso   1.00
H125   H     0.68883   0.31871   0.67905   0.00000  Uiso   1.00
H126   H     0.93430   0.46462   0.41187   0.00000  Uiso   1.00
H127   H     0.20547   0.18321   0.65929   0.00000  Uiso   1.00
H128   H     0.44786   0.25533   0.79717   0.00000  Uiso   1.00
H129   H     0.96549   0.56301   0.23377   0.00000  Uiso   1.00
O130   O     0.23401   0.04103   0.66856   0.00000  Uiso   1.00
O131   O     0.24005   0.13565   0.84944   0.00000  Uiso   1.00
O132   O     0.91916   0.53932   0.11028   0.00000  Uiso   1.00
N133   N     0.06822   0.04663   0.62125   0.00000  Uiso   1.00
N134   N     0.35991   0.11404   0.75017   0.00000  Uiso   1.00
N135   N     0.84381   0.40170   0.22344   0.00000  Uiso   1.00
N136   N     0.14912   0.14906   0.64349   0.00000  Uiso   1.00
N137   N     0.44081   0.21648   0.77241   0.00000  Uiso   1.00
N138   N     0.92472   0.50413   0.24568   0.00000  Uiso   1.00
C139   C     0.44419   0.70746   0.82456   0.00000  Uiso   1.00
C140   C     0.32705   0.72823   0.83371   0.00000  Uiso   1.00
C141   C     0.21934   0.67674   0.89823   0.00000  Uiso   1.00
C142   C     0.12246   0.70715   0.89530   0.00000  Uiso   1.00
C143   C     0.93899   0.72739   0.91944   0.00000  Uiso   1.00
C144   C     0.53776   0.78001   0.81968   0.00000  Uiso   1.00
C145   C     0.60722   0.77205   0.87239   0.00000  Uiso   1.00
C146   C     0.68773   0.84606   0.85763   0.00000  Uiso   1.00
C147   C     0.83145   0.94667   0.85995   0.00000  Uiso   1.00
C148   C     0.48111   0.71392   0.73808   0.00000  Uiso   1.00
C149   C     0.50296   0.65040   0.72219   0.00000  Uiso   1.00
C150   C     0.53580   0.66877   0.63873   0.00000  Uiso   1.00
C151   C     0.59155   0.66677   0.51437   0.00000  Uiso   1.00
C152   C     0.46368   0.85304   0.70460   0.00000  Uiso   1.00
C153   C     0.33764   0.80730   0.76855   0.00000  Uiso   1.00
C154   C     0.24090   0.83781   0.76551   0.00000  Uiso   1.00
C155   C     0.13306   0.78637   0.83002   0.00000  Uiso   1.00
C156   C     0.54835   0.85908   0.75452   0.00000  Uiso   1.00
C157   C     0.62878   0.93312   0.73967   0.00000  Uiso   1.00
C158   C     0.69834   0.92527   0.79235   0.00000  Uiso   1.00
C159   C     0.49169   0.79299   0.67293   0.00000  Uiso   1.00
C160   C     0.52451   0.81147   0.58947   0.00000  Uiso   1.00
C161   C     0.54640   0.74799   0.57346   0.00000  Uiso   1.00
H162   H     0.43595   0.64591   0.87529   0.00000  Uiso   1.00
H163   H     0.21119   0.61555   0.94865   0.00000  Uiso   1.00
H164   H     0.59902   0.71085   0.92280   0.00000  Uiso   1.00
H165   H     0.49476   0.58922   0.77263   0.00000  Uiso   1.00
H166   H     0.96668   0.61679   0.00127   0.00000  Uiso   1.00
H167   H     0.78446   0.81772   0.94675   0.00000  Uiso   1.00
H168   H     0.56463   0.56124   0.63008   0.00000  Uiso   1.00
H169   H     0.47192   0.91461   0.65387   0.00000  Uiso   1.00
H170   H     0.24912   0.89900   0.71509   0.00000  Uiso   1.00
H171   H     0.63695   0.99430   0.68924   0.00000  Uiso   1.00
H172   H     0.53269   0.87266   0.53907   0.00000  Uiso   1.00
H173   H     0.99746   0.84684   0.81171   0.00000  Uiso   1.00
H174   H     0.81526   0.04778   0.75719   0.00000  Uiso   1.00
H175   H     0.59541   0.79129   0.44051   0.00000  Uiso   1.00
O176   O     0.83487   0.71671   0.95077   0.00000  Uiso   1.00
O177   O     0.90779   0.98032   0.87923   0.00000  Uiso   1.00
O178   O     0.61936   0.64383   0.46377   0.00000  Uiso   1.00
N179   N     0.00449   0.67306   0.94825   0.00000  Uiso   1.00
N180   N     0.76906   0.86093   0.89729   0.00000  Uiso   1.00
N181   N     0.56356   0.62115   0.60122   0.00000  Uiso   1.00
N182   N     0.02106   0.79686   0.84624   0.00000  Uiso   1.00
N183   N     0.78563   0.98472   0.79528   0.00000  Uiso   1.00
N184   N     0.58013   0.74494   0.49922   0.00000  Uiso   1.00
C185   C     0.70589   0.45849   0.71709   0.00000  Uiso   1.00
C186   C     0.57032   0.43016   0.73505   0.00000  Uiso   1.00
C187   C     0.51254   0.41727   0.68186   0.00000  Uiso   1.00
C188   C     0.38788   0.39135   0.70979   0.00000  Uiso   1.00
C189   C     0.18718   0.34923   0.72578   0.00000  Uiso   1.00
C190   C     0.73001   0.39110   0.79022   0.00000  Uiso   1.00
C191   C     0.80650   0.34538   0.78340   0.00000  Uiso   1.00
C192   C     0.81626   0.28660   0.85777   0.00000  Uiso   1.00
C193   C     0.86355   0.18388   0.95941   0.00000  Uiso   1.00
C194   C     0.73603   0.53836   0.72482   0.00000  Uiso   1.00
C195   C     0.81761   0.61647   0.66303   0.00000  Uiso   1.00
C196   C     0.83246   0.68167   0.68236   0.00000  Uiso   1.00
C197   C     0.88909   0.80760   0.68246   0.00000  Uiso   1.00
C198   C     0.58723   0.43538   0.86129   0.00000  Uiso   1.00
C199   C     0.50588   0.41760   0.81337   0.00000  Uiso   1.00
C200   C     0.38126   0.39171   0.84139   0.00000  Uiso   1.00
C201   C     0.32331   0.37878   0.78824   0.00000  Uiso   1.00
C202   C     0.66556   0.37855   0.86854   0.00000  Uiso   1.00
C203   C     0.67522   0.31982   0.94294   0.00000  Uiso   1.00
C204   C     0.75170   0.27402   0.93624   0.00000  Uiso   1.00
C205   C     0.67158   0.52582   0.80315   0.00000  Uiso   1.00
C206   C     0.68632   0.59090   0.82257   0.00000  Uiso   1.00
C207   C     0.76790   0.66909   0.76082   0.00000  Uiso   1.00
H208   H     0.75607   0.46825   0.65612   0.00000  Uiso   1.00
H209   H     0.56245   0.42698   0.62125   0.00000  Uiso   1.00
H210   H     0.85637   0.35511   0.72278   0.00000  Uiso   1.00
H211   H     0.86746   0.62616   0.60243   0.00000  Uiso   1.00
H212   H     0.31937   0.37566   0.61715   0.00000  Uiso   1.00
H213   H     0.93914   0.22414   0.83123   0.00000  Uiso   1.00
H214   H     0.96255   0.79569   0.57745   0.00000  Uiso   1.00
H215   H     0.53706   0.42561   0.92227   0.00000  Uiso   1.00
H216   H     0.33141   0.38200   0.90200   0.00000  Uiso   1.00
H217   H     0.62534   0.31013   0.00353   0.00000  Uiso   1.00
H218   H     0.63643   0.58117   0.88318   0.00000  Uiso   1.00
H219   H     0.13185   0.33914   0.84502   0.00000  Uiso   1.00
H220   H     0.75163   0.18763   0.05910   0.00000  Uiso   1.00
H221   H     0.77502   0.75917   0.80532   0.00000  Uiso   1.00
O222   O     0.09428   0.32945   0.71297   0.00000  Uiso   1.00
O223   O     0.90742   0.13068   0.99383   0.00000  Uiso   1.00
O224   O     0.93812   0.88054   0.66087   0.00000  Uiso   1.00
N225   N     0.30346   0.37306   0.67355   0.00000  Uiso   1.00
N226   N     0.88290   0.23140   0.87371   0.00000  Uiso   1.00
N227   N     0.90480   0.76574   0.63645   0.00000  Uiso   1.00
N228   N     0.20255   0.35342   0.79617   0.00000  Uiso   1.00
N229   N     0.78199   0.21175   0.99632   0.00000  Uiso   1.00
N230   N     0.80390   0.74609   0.75907   0.00000  Uiso   1.00
C231   C     0.24974   0.82156   0.47036   0.00000  Uiso   1.00
C232   C     0.14233   0.83284   0.43969   0.00000  Uiso   1.00
C233   C     0.09709   0.89940   0.42628   0.00000  Uiso   1.00
C234   C     0.99823   0.89822   0.39813   0.00000  Uiso   1.00
C235   C     0.83934   0.92572   0.35262   0.00000  Uiso   1.00
C236   C     0.33754   0.81427   0.40415   0.00000  Uiso   1.00
C237   C     0.45645   0.86521   0.36086   0.00000  Uiso   1.00
C238   C     0.52192   0.84838   0.30279   0.00000  Uiso   1.00
C239   C     0.66613   0.84702   0.20215   0.00000  Uiso   1.00
C240   C     0.20416   0.73500   0.54931   0.00000  Uiso   1.00
C241   C     0.21094   0.71928   0.62809   0.00000  Uiso   1.00
C242   C     0.16414   0.63570   0.69223   0.00000  Uiso   1.00
C243   C     0.10126   0.51125   0.81698   0.00000  Uiso   1.00
C244   C     0.15461   0.70109   0.44421   0.00000  Uiso   1.00
C245   C     0.09066   0.76741   0.42548   0.00000  Uiso   1.00
C246   C     0.99184   0.76612   0.39735   0.00000  Uiso   1.00
C247   C     0.94646   0.83267   0.38390   0.00000  Uiso   1.00
C248   C     0.28588   0.74885   0.38994   0.00000  Uiso   1.00
C249   C     0.35119   0.73193   0.33192   0.00000  Uiso   1.00
C250   C     0.47015   0.78283   0.28856   0.00000  Uiso   1.00
C251   C     0.15249   0.66957   0.53511   0.00000  Uiso   1.00
C252   C     0.10568   0.58600   0.59914   0.00000  Uiso   1.00
C253   C     0.11238   0.57015   0.67800   0.00000  Uiso   1.00
H254   H     0.28998   0.87250   0.48142   0.00000  Uiso   1.00
H255   H     0.13711   0.95003   0.43728   0.00000  Uiso   1.00
H256   H     0.49641   0.91584   0.37187   0.00000  Uiso   1.00
H257   H     0.25093   0.76993   0.63905   0.00000  Uiso   1.00
H258   H     0.94487   0.00715   0.38204   0.00000  Uiso   1.00
H259   H     0.70248   0.93503   0.24416   0.00000  Uiso   1.00
H260   H     0.18486   0.62736   0.80756   0.00000  Uiso   1.00
H261   H     0.11438   0.65015   0.43314   0.00000  Uiso   1.00
H262   H     0.95187   0.71548   0.38636   0.00000  Uiso   1.00
H263   H     0.31117   0.68129   0.32095   0.00000  Uiso   1.00
H264   H     0.06570   0.53538   0.58813   0.00000  Uiso   1.00
H265   H     0.79453   0.81679   0.34071   0.00000  Uiso   1.00
H266   H     0.55214   0.74467   0.20283   0.00000  Uiso   1.00
H267   H     0.03451   0.43699   0.76623   0.00000  Uiso   1.00
O268   O     0.76599   0.95897   0.33144   0.00000  Uiso   1.00
O269   O     0.75995   0.86435   0.15055   0.00000  Uiso   1.00
O270   O     0.08084   0.46068   0.88972   0.00000  Uiso   1.00
N271   N     0.93178   0.95337   0.37875   0.00000  Uiso   1.00
N272   N     0.64009   0.88596   0.24983   0.00000  Uiso   1.00
N273   N     0.15619   0.59830   0.77656   0.00000  Uiso   1.00
N274   N     0.85088   0.85094   0.35651   0.00000  Uiso   1.00
N275   N     0.55919   0.78352   0.22759   0.00000  Uiso   1.00
N276   N     0.07528   0.49587   0.75432   0.00000  Uiso   1.00
