data_job_02259
_audit_creation_date              2018-12-19
_audit_creation_method            'Materials Studio'
_symmetry_space_group_name_H-M    'P1'
_symmetry_Int_Tables_number       1
_symmetry_cell_setting            triclinic
loop_
_symmetry_equiv_pos_as_xyz
  x,y,z
_cell_length_a                    20.7037
_cell_length_b                    14.7490
_cell_length_c                    18.5160
_cell_angle_alpha                 90.0000
_cell_angle_beta                  90.0000
_cell_angle_gamma                 90.0000
loop_
_atom_site_label
_atom_site_type_symbol
_atom_site_fract_x
_atom_site_fract_y
_atom_site_fract_z
_atom_site_U_iso_or_equiv
_atom_site_adp_type
_atom_site_occupancy
C1     C     0.46222   0.70224   0.88947   0.00000  Uiso   1.00
C2     C     0.50262   0.74927   0.94725   0.00000  Uiso   1.00
C3     C     0.56952   0.74804   0.95179   0.00000  Uiso   1.00
C4     C     0.59737   0.79526   0.00869   0.00000  Uiso   1.00
C5     C     0.66585   0.86113   0.09075   0.00000  Uiso   1.00
C6     C     0.41554   0.64035   0.92983   0.00000  Uiso   1.00
C7     C     0.40922   0.54754   0.91970   0.00000  Uiso   1.00
C8     C     0.36375   0.50307   0.96193   0.00000  Uiso   1.00
C9     C     0.29701   0.39985   0.01689   0.00000  Uiso   1.00
C10    C     0.42084   0.77608   0.85508   0.00000  Uiso   1.00
C11    C     0.41896   0.79738   0.78210   0.00000  Uiso   1.00
C12    C     0.37795   0.86718   0.76140   0.00000  Uiso   1.00
C13    C     0.31944   0.97470   0.70030   0.00000  Uiso   1.00
C14    C     0.39270   0.78830   0.98247   0.00000  Uiso   1.00
C15    C     0.46486   0.79601   0.99776   0.00000  Uiso   1.00
C16    C     0.49261   0.84325   0.05468   0.00000  Uiso   1.00
C17    C     0.55954   0.84209   0.05930   0.00000  Uiso   1.00
C18    C     0.37778   0.68709   0.98034   0.00000  Uiso   1.00
C19    C     0.33231   0.64275   0.02259   0.00000  Uiso   1.00
C20    C     0.32592   0.54989   0.01253   0.00000  Uiso   1.00
C21    C     0.38308   0.82283   0.90559   0.00000  Uiso   1.00
C22    C     0.34205   0.89260   0.88499   0.00000  Uiso   1.00
C23    C     0.34012   0.91400   0.81200   0.00000  Uiso   1.00
H24    H     0.49161   0.66585   0.85015   0.00000  Uiso   1.00
H25    H     0.59873   0.71185   0.91269   0.00000  Uiso   1.00
H26    H     0.43844   0.51138   0.88060   0.00000  Uiso   1.00
H27    H     0.44819   0.76119   0.74303   0.00000  Uiso   1.00
H28    H     0.70083   0.78343   0.00432   0.00000  Uiso   1.00
H29    H     0.36285   0.36075   0.93664   0.00000  Uiso   1.00
H30    H     0.38341   0.88751   0.64654   0.00000  Uiso   1.00
H31    H     0.36330   0.82469   0.02180   0.00000  Uiso   1.00
H32    H     0.46338   0.87942   0.09376   0.00000  Uiso   1.00
H33    H     0.30309   0.67895   0.06167   0.00000  Uiso   1.00
H34    H     0.31284   0.92875   0.92410   0.00000  Uiso   1.00
H35    H     0.59098   0.91943   0.15128   0.00000  Uiso   1.00
H36    H     0.25299   0.49675   0.08360   0.00000  Uiso   1.00
H37    H     0.27355   0.02352   0.79350   0.00000  Uiso   1.00
O38    O     0.71405   0.88454   0.12206   0.00000  Uiso   1.00
O39    O     0.27063   0.32999   0.03325   0.00000  Uiso   1.00
O40    O     0.29760   0.02110   0.65265   0.00000  Uiso   1.00
N41    N     0.66124   0.80795   0.02902   0.00000  Uiso   1.00
N42    N     0.34526   0.41276   0.96576   0.00000  Uiso   1.00
N43    N     0.36446   0.90522   0.69453   0.00000  Uiso   1.00
N44    N     0.60213   0.88113   0.10810   0.00000  Uiso   1.00
N45    N     0.28615   0.48594   0.04483   0.00000  Uiso   1.00
N46    N     0.30535   0.97841   0.77361   0.00000  Uiso   1.00
C47    C     0.03778   0.79776   0.38947   0.00000  Uiso   1.00
C48    C     0.99738   0.75073   0.44725   0.00000  Uiso   1.00
C49    C     0.93048   0.75196   0.45179   0.00000  Uiso   1.00
C50    C     0.90263   0.70474   0.50869   0.00000  Uiso   1.00
C51    C     0.83415   0.63887   0.59075   0.00000  Uiso   1.00
C52    C     0.08446   0.85965   0.42983   0.00000  Uiso   1.00
C53    C     0.09078   0.95246   0.41970   0.00000  Uiso   1.00
C54    C     0.13625   0.99693   0.46193   0.00000  Uiso   1.00
C55    C     0.20299   0.10015   0.51689   0.00000  Uiso   1.00
C56    C     0.07916   0.72392   0.35508   0.00000  Uiso   1.00
C57    C     0.08104   0.70262   0.28210   0.00000  Uiso   1.00
C58    C     0.12205   0.63282   0.26140   0.00000  Uiso   1.00
C59    C     0.18056   0.52530   0.20030   0.00000  Uiso   1.00
C60    C     0.10730   0.71170   0.48247   0.00000  Uiso   1.00
C61    C     0.03514   0.70399   0.49776   0.00000  Uiso   1.00
C62    C     0.00739   0.65675   0.55468   0.00000  Uiso   1.00
C63    C     0.94046   0.65791   0.55930   0.00000  Uiso   1.00
C64    C     0.12222   0.81291   0.48034   0.00000  Uiso   1.00
C65    C     0.16769   0.85725   0.52259   0.00000  Uiso   1.00
C66    C     0.17408   0.95011   0.51253   0.00000  Uiso   1.00
C67    C     0.11692   0.67717   0.40559   0.00000  Uiso   1.00
C68    C     0.15795   0.60740   0.38499   0.00000  Uiso   1.00
C69    C     0.15988   0.58600   0.31200   0.00000  Uiso   1.00
H70    H     0.00839   0.83415   0.35015   0.00000  Uiso   1.00
H71    H     0.90127   0.78815   0.41269   0.00000  Uiso   1.00
H72    H     0.06156   0.98862   0.38060   0.00000  Uiso   1.00
H73    H     0.05181   0.73881   0.24303   0.00000  Uiso   1.00
H74    H     0.79917   0.71657   0.50432   0.00000  Uiso   1.00
H75    H     0.13715   0.13925   0.43664   0.00000  Uiso   1.00
H76    H     0.11659   0.61249   0.14654   0.00000  Uiso   1.00
H77    H     0.13670   0.67531   0.52180   0.00000  Uiso   1.00
H78    H     0.03662   0.62058   0.59376   0.00000  Uiso   1.00
H79    H     0.19691   0.82105   0.56167   0.00000  Uiso   1.00
H80    H     0.18716   0.57125   0.42410   0.00000  Uiso   1.00
H81    H     0.90902   0.58057   0.65128   0.00000  Uiso   1.00
H82    H     0.24701   0.00325   0.58360   0.00000  Uiso   1.00
H83    H     0.22645   0.47648   0.29350   0.00000  Uiso   1.00
O84    O     0.78595   0.61546   0.62206   0.00000  Uiso   1.00
O85    O     0.22937   0.17001   0.53325   0.00000  Uiso   1.00
O86    O     0.20240   0.47890   0.15265   0.00000  Uiso   1.00
N87    N     0.83876   0.69205   0.52902   0.00000  Uiso   1.00
N88    N     0.15474   0.08724   0.46576   0.00000  Uiso   1.00
N89    N     0.13554   0.59478   0.19453   0.00000  Uiso   1.00
N90    N     0.89787   0.61887   0.60810   0.00000  Uiso   1.00
N91    N     0.21385   0.01406   0.54483   0.00000  Uiso   1.00
N92    N     0.19465   0.52159   0.27361   0.00000  Uiso   1.00
C93    C     0.53778   0.70224   0.61053   0.00000  Uiso   1.00
C94    C     0.49738   0.74927   0.55275   0.00000  Uiso   1.00
C95    C     0.43048   0.74804   0.54821   0.00000  Uiso   1.00
C96    C     0.40263   0.79526   0.49131   0.00000  Uiso   1.00
C97    C     0.33415   0.86113   0.40925   0.00000  Uiso   1.00
C98    C     0.58446   0.64035   0.57017   0.00000  Uiso   1.00
C99    C     0.59078   0.54754   0.58030   0.00000  Uiso   1.00
C100   C     0.63625   0.50307   0.53807   0.00000  Uiso   1.00
C101   C     0.70299   0.39985   0.48311   0.00000  Uiso   1.00
C102   C     0.57916   0.77608   0.64492   0.00000  Uiso   1.00
C103   C     0.58104   0.79738   0.71790   0.00000  Uiso   1.00
C104   C     0.62205   0.86718   0.73860   0.00000  Uiso   1.00
C105   C     0.68056   0.97470   0.79970   0.00000  Uiso   1.00
C106   C     0.60730   0.78830   0.51753   0.00000  Uiso   1.00
C107   C     0.53514   0.79601   0.50224   0.00000  Uiso   1.00
C108   C     0.50739   0.84325   0.44532   0.00000  Uiso   1.00
C109   C     0.44046   0.84209   0.44070   0.00000  Uiso   1.00
C110   C     0.62222   0.68709   0.51966   0.00000  Uiso   1.00
C111   C     0.66769   0.64275   0.47741   0.00000  Uiso   1.00
C112   C     0.67408   0.54989   0.48747   0.00000  Uiso   1.00
C113   C     0.61692   0.82283   0.59441   0.00000  Uiso   1.00
C114   C     0.65795   0.89260   0.61501   0.00000  Uiso   1.00
C115   C     0.65988   0.91400   0.68800   0.00000  Uiso   1.00
H116   H     0.50839   0.66585   0.64985   0.00000  Uiso   1.00
H117   H     0.40127   0.71185   0.58731   0.00000  Uiso   1.00
H118   H     0.56156   0.51138   0.61940   0.00000  Uiso   1.00
H119   H     0.55181   0.76119   0.75697   0.00000  Uiso   1.00
H120   H     0.29917   0.78343   0.49568   0.00000  Uiso   1.00
H121   H     0.63715   0.36075   0.56336   0.00000  Uiso   1.00
H122   H     0.61659   0.88751   0.85346   0.00000  Uiso   1.00
H123   H     0.63670   0.82469   0.47820   0.00000  Uiso   1.00
H124   H     0.53662   0.87942   0.40624   0.00000  Uiso   1.00
H125   H     0.69691   0.67895   0.43833   0.00000  Uiso   1.00
H126   H     0.68716   0.92875   0.57590   0.00000  Uiso   1.00
H127   H     0.40902   0.91943   0.34872   0.00000  Uiso   1.00
H128   H     0.74701   0.49675   0.41640   0.00000  Uiso   1.00
H129   H     0.72645   0.02352   0.70650   0.00000  Uiso   1.00
O130   O     0.28595   0.88454   0.37794   0.00000  Uiso   1.00
O131   O     0.72937   0.32999   0.46675   0.00000  Uiso   1.00
O132   O     0.70240   0.02110   0.84735   0.00000  Uiso   1.00
N133   N     0.33876   0.80795   0.47098   0.00000  Uiso   1.00
N134   N     0.65474   0.41276   0.53424   0.00000  Uiso   1.00
N135   N     0.63554   0.90522   0.80547   0.00000  Uiso   1.00
N136   N     0.39787   0.88113   0.39190   0.00000  Uiso   1.00
N137   N     0.71385   0.48594   0.45517   0.00000  Uiso   1.00
N138   N     0.69465   0.97841   0.72639   0.00000  Uiso   1.00
C139   C     0.96222   0.79776   0.11053   0.00000  Uiso   1.00
C140   C     0.00262   0.75073   0.05275   0.00000  Uiso   1.00
C141   C     0.06952   0.75196   0.04821   0.00000  Uiso   1.00
C142   C     0.09737   0.70474   0.99131   0.00000  Uiso   1.00
C143   C     0.16585   0.63887   0.90925   0.00000  Uiso   1.00
C144   C     0.91554   0.85965   0.07017   0.00000  Uiso   1.00
C145   C     0.90922   0.95246   0.08030   0.00000  Uiso   1.00
C146   C     0.86375   0.99693   0.03807   0.00000  Uiso   1.00
C147   C     0.79701   0.10015   0.98311   0.00000  Uiso   1.00
C148   C     0.92084   0.72392   0.14492   0.00000  Uiso   1.00
C149   C     0.91896   0.70262   0.21790   0.00000  Uiso   1.00
C150   C     0.87795   0.63282   0.23860   0.00000  Uiso   1.00
C151   C     0.81944   0.52530   0.29970   0.00000  Uiso   1.00
C152   C     0.89270   0.71170   0.01753   0.00000  Uiso   1.00
C153   C     0.96486   0.70399   0.00224   0.00000  Uiso   1.00
C154   C     0.99261   0.65675   0.94532   0.00000  Uiso   1.00
C155   C     0.05954   0.65791   0.94070   0.00000  Uiso   1.00
C156   C     0.87778   0.81291   0.01966   0.00000  Uiso   1.00
C157   C     0.83231   0.85725   0.97741   0.00000  Uiso   1.00
C158   C     0.82592   0.95011   0.98747   0.00000  Uiso   1.00
C159   C     0.88308   0.67717   0.09441   0.00000  Uiso   1.00
C160   C     0.84205   0.60740   0.11501   0.00000  Uiso   1.00
C161   C     0.84012   0.58600   0.18800   0.00000  Uiso   1.00
H162   H     0.99161   0.83415   0.14985   0.00000  Uiso   1.00
H163   H     0.09873   0.78815   0.08731   0.00000  Uiso   1.00
H164   H     0.93844   0.98862   0.11940   0.00000  Uiso   1.00
H165   H     0.94819   0.73881   0.25697   0.00000  Uiso   1.00
H166   H     0.20083   0.71657   0.99568   0.00000  Uiso   1.00
H167   H     0.86285   0.13925   0.06336   0.00000  Uiso   1.00
H168   H     0.88341   0.61249   0.35346   0.00000  Uiso   1.00
H169   H     0.86330   0.67531   0.97820   0.00000  Uiso   1.00
H170   H     0.96338   0.62058   0.90624   0.00000  Uiso   1.00
H171   H     0.80309   0.82105   0.93833   0.00000  Uiso   1.00
H172   H     0.81284   0.57125   0.07590   0.00000  Uiso   1.00
H173   H     0.09098   0.58057   0.84872   0.00000  Uiso   1.00
H174   H     0.75299   0.00325   0.91640   0.00000  Uiso   1.00
H175   H     0.77355   0.47648   0.20650   0.00000  Uiso   1.00
O176   O     0.21405   0.61546   0.87794   0.00000  Uiso   1.00
O177   O     0.77063   0.17001   0.96675   0.00000  Uiso   1.00
O178   O     0.79760   0.47890   0.34735   0.00000  Uiso   1.00
N179   N     0.16124   0.69205   0.97098   0.00000  Uiso   1.00
N180   N     0.84526   0.08724   0.03424   0.00000  Uiso   1.00
N181   N     0.86446   0.59478   0.30547   0.00000  Uiso   1.00
N182   N     0.10213   0.61887   0.89190   0.00000  Uiso   1.00
N183   N     0.78615   0.01406   0.95517   0.00000  Uiso   1.00
N184   N     0.80535   0.52159   0.22639   0.00000  Uiso   1.00
C185   C     0.53778   0.29776   0.11053   0.00000  Uiso   1.00
C186   C     0.49738   0.25073   0.05275   0.00000  Uiso   1.00
C187   C     0.43048   0.25196   0.04821   0.00000  Uiso   1.00
C188   C     0.40263   0.20474   0.99131   0.00000  Uiso   1.00
C189   C     0.33415   0.13887   0.90925   0.00000  Uiso   1.00
C190   C     0.58446   0.35965   0.07017   0.00000  Uiso   1.00
C191   C     0.59078   0.45246   0.08030   0.00000  Uiso   1.00
C192   C     0.63625   0.49693   0.03807   0.00000  Uiso   1.00
C193   C     0.70299   0.60015   0.98311   0.00000  Uiso   1.00
C194   C     0.57916   0.22392   0.14492   0.00000  Uiso   1.00
C195   C     0.58104   0.20262   0.21790   0.00000  Uiso   1.00
C196   C     0.62205   0.13282   0.23860   0.00000  Uiso   1.00
C197   C     0.68056   0.02530   0.29970   0.00000  Uiso   1.00
C198   C     0.60730   0.21170   0.01753   0.00000  Uiso   1.00
C199   C     0.53514   0.20399   0.00224   0.00000  Uiso   1.00
C200   C     0.50739   0.15675   0.94532   0.00000  Uiso   1.00
C201   C     0.44046   0.15791   0.94070   0.00000  Uiso   1.00
C202   C     0.62222   0.31291   0.01966   0.00000  Uiso   1.00
C203   C     0.66769   0.35725   0.97741   0.00000  Uiso   1.00
C204   C     0.67408   0.45011   0.98747   0.00000  Uiso   1.00
C205   C     0.61692   0.17717   0.09441   0.00000  Uiso   1.00
C206   C     0.65795   0.10740   0.11501   0.00000  Uiso   1.00
C207   C     0.65988   0.08600   0.18800   0.00000  Uiso   1.00
H208   H     0.50839   0.33415   0.14985   0.00000  Uiso   1.00
H209   H     0.40127   0.28815   0.08731   0.00000  Uiso   1.00
H210   H     0.56156   0.48862   0.11940   0.00000  Uiso   1.00
H211   H     0.55181   0.23881   0.25697   0.00000  Uiso   1.00
H212   H     0.29917   0.21657   0.99568   0.00000  Uiso   1.00
H213   H     0.63715   0.63925   0.06336   0.00000  Uiso   1.00
H214   H     0.61659   0.11249   0.35346   0.00000  Uiso   1.00
H215   H     0.63670   0.17531   0.97820   0.00000  Uiso   1.00
H216   H     0.53662   0.12058   0.90624   0.00000  Uiso   1.00
H217   H     0.69691   0.32105   0.93833   0.00000  Uiso   1.00
H218   H     0.68716   0.07125   0.07590   0.00000  Uiso   1.00
H219   H     0.40902   0.08057   0.84872   0.00000  Uiso   1.00
H220   H     0.74701   0.50325   0.91640   0.00000  Uiso   1.00
H221   H     0.72645   0.97648   0.20650   0.00000  Uiso   1.00
O222   O     0.28595   0.11546   0.87794   0.00000  Uiso   1.00
O223   O     0.72937   0.67001   0.96675   0.00000  Uiso   1.00
O224   O     0.70240   0.97890   0.34735   0.00000  Uiso   1.00
N225   N     0.33876   0.19205   0.97098   0.00000  Uiso   1.00
N226   N     0.65474   0.58724   0.03424   0.00000  Uiso   1.00
N227   N     0.63554   0.09478   0.30547   0.00000  Uiso   1.00
N228   N     0.39787   0.11887   0.89190   0.00000  Uiso   1.00
N229   N     0.71385   0.51406   0.95517   0.00000  Uiso   1.00
N230   N     0.69465   0.02159   0.22639   0.00000  Uiso   1.00
C231   C     0.96222   0.20224   0.61053   0.00000  Uiso   1.00
C232   C     0.00262   0.24927   0.55275   0.00000  Uiso   1.00
C233   C     0.06952   0.24804   0.54821   0.00000  Uiso   1.00
C234   C     0.09737   0.29526   0.49131   0.00000  Uiso   1.00
C235   C     0.16585   0.36113   0.40925   0.00000  Uiso   1.00
C236   C     0.91554   0.14035   0.57017   0.00000  Uiso   1.00
C237   C     0.90922   0.04754   0.58030   0.00000  Uiso   1.00
C238   C     0.86375   0.00307   0.53807   0.00000  Uiso   1.00
C239   C     0.79701   0.89985   0.48311   0.00000  Uiso   1.00
C240   C     0.92084   0.27608   0.64492   0.00000  Uiso   1.00
C241   C     0.91896   0.29738   0.71790   0.00000  Uiso   1.00
C242   C     0.87795   0.36718   0.73860   0.00000  Uiso   1.00
C243   C     0.81944   0.47470   0.79970   0.00000  Uiso   1.00
C244   C     0.89270   0.28830   0.51753   0.00000  Uiso   1.00
C245   C     0.96486   0.29601   0.50224   0.00000  Uiso   1.00
C246   C     0.99261   0.34325   0.44532   0.00000  Uiso   1.00
C247   C     0.05954   0.34209   0.44070   0.00000  Uiso   1.00
C248   C     0.87778   0.18709   0.51966   0.00000  Uiso   1.00
C249   C     0.83231   0.14275   0.47741   0.00000  Uiso   1.00
C250   C     0.82592   0.04989   0.48747   0.00000  Uiso   1.00
C251   C     0.88308   0.32283   0.59441   0.00000  Uiso   1.00
C252   C     0.84205   0.39260   0.61501   0.00000  Uiso   1.00
C253   C     0.84012   0.41400   0.68800   0.00000  Uiso   1.00
H254   H     0.99161   0.16585   0.64985   0.00000  Uiso   1.00
H255   H     0.09873   0.21185   0.58731   0.00000  Uiso   1.00
H256   H     0.93844   0.01138   0.61940   0.00000  Uiso   1.00
H257   H     0.94819   0.26119   0.75697   0.00000  Uiso   1.00
H258   H     0.20083   0.28343   0.49568   0.00000  Uiso   1.00
H259   H     0.86285   0.86075   0.56336   0.00000  Uiso   1.00
H260   H     0.88341   0.38751   0.85346   0.00000  Uiso   1.00
H261   H     0.86330   0.32469   0.47820   0.00000  Uiso   1.00
H262   H     0.96338   0.37942   0.40624   0.00000  Uiso   1.00
H263   H     0.80309   0.17895   0.43833   0.00000  Uiso   1.00
H264   H     0.81284   0.42875   0.57590   0.00000  Uiso   1.00
H265   H     0.09098   0.41943   0.34872   0.00000  Uiso   1.00
H266   H     0.75299   0.99675   0.41640   0.00000  Uiso   1.00
H267   H     0.77355   0.52352   0.70650   0.00000  Uiso   1.00
O268   O     0.21405   0.38454   0.37794   0.00000  Uiso   1.00
O269   O     0.77063   0.82999   0.46675   0.00000  Uiso   1.00
O270   O     0.79760   0.52110   0.84735   0.00000  Uiso   1.00
N271   N     0.16124   0.30795   0.47098   0.00000  Uiso   1.00
N272   N     0.84526   0.91276   0.53424   0.00000  Uiso   1.00
N273   N     0.86446   0.40522   0.80547   0.00000  Uiso   1.00
N274   N     0.10213   0.38113   0.39190   0.00000  Uiso   1.00
N275   N     0.78615   0.98594   0.45517   0.00000  Uiso   1.00
N276   N     0.80535   0.47841   0.72639   0.00000  Uiso   1.00
C277   C     0.46222   0.29776   0.38947   0.00000  Uiso   1.00
C278   C     0.50262   0.25073   0.44725   0.00000  Uiso   1.00
C279   C     0.56952   0.25196   0.45179   0.00000  Uiso   1.00
C280   C     0.59737   0.20474   0.50869   0.00000  Uiso   1.00
C281   C     0.66585   0.13887   0.59075   0.00000  Uiso   1.00
C282   C     0.41554   0.35965   0.42983   0.00000  Uiso   1.00
C283   C     0.40922   0.45246   0.41970   0.00000  Uiso   1.00
C284   C     0.36375   0.49693   0.46193   0.00000  Uiso   1.00
C285   C     0.29701   0.60015   0.51689   0.00000  Uiso   1.00
C286   C     0.42084   0.22392   0.35508   0.00000  Uiso   1.00
C287   C     0.41896   0.20262   0.28210   0.00000  Uiso   1.00
C288   C     0.37795   0.13282   0.26140   0.00000  Uiso   1.00
C289   C     0.31944   0.02530   0.20030   0.00000  Uiso   1.00
C290   C     0.39270   0.21170   0.48247   0.00000  Uiso   1.00
C291   C     0.46486   0.20399   0.49776   0.00000  Uiso   1.00
C292   C     0.49261   0.15675   0.55468   0.00000  Uiso   1.00
C293   C     0.55954   0.15791   0.55930   0.00000  Uiso   1.00
C294   C     0.37778   0.31291   0.48034   0.00000  Uiso   1.00
C295   C     0.33231   0.35725   0.52259   0.00000  Uiso   1.00
C296   C     0.32592   0.45011   0.51253   0.00000  Uiso   1.00
C297   C     0.38308   0.17717   0.40559   0.00000  Uiso   1.00
C298   C     0.34205   0.10740   0.38499   0.00000  Uiso   1.00
C299   C     0.34012   0.08600   0.31200   0.00000  Uiso   1.00
H300   H     0.49161   0.33415   0.35015   0.00000  Uiso   1.00
H301   H     0.59873   0.28815   0.41269   0.00000  Uiso   1.00
H302   H     0.43844   0.48862   0.38060   0.00000  Uiso   1.00
H303   H     0.44819   0.23881   0.24303   0.00000  Uiso   1.00
H304   H     0.70083   0.21657   0.50432   0.00000  Uiso   1.00
H305   H     0.36285   0.63925   0.43664   0.00000  Uiso   1.00
H306   H     0.38341   0.11249   0.14654   0.00000  Uiso   1.00
H307   H     0.36330   0.17531   0.52180   0.00000  Uiso   1.00
H308   H     0.46338   0.12058   0.59376   0.00000  Uiso   1.00
H309   H     0.30309   0.32105   0.56167   0.00000  Uiso   1.00
H310   H     0.31284   0.07125   0.42410   0.00000  Uiso   1.00
H311   H     0.59098   0.08057   0.65128   0.00000  Uiso   1.00
H312   H     0.25299   0.50325   0.58360   0.00000  Uiso   1.00
H313   H     0.27355   0.97648   0.29350   0.00000  Uiso   1.00
O314   O     0.71405   0.11546   0.62206   0.00000  Uiso   1.00
O315   O     0.27063   0.67001   0.53325   0.00000  Uiso   1.00
O316   O     0.29760   0.97890   0.15265   0.00000  Uiso   1.00
N317   N     0.66124   0.19205   0.52902   0.00000  Uiso   1.00
N318   N     0.34526   0.58724   0.46576   0.00000  Uiso   1.00
N319   N     0.36446   0.09478   0.19453   0.00000  Uiso   1.00
N320   N     0.60213   0.11887   0.60810   0.00000  Uiso   1.00
N321   N     0.28615   0.51406   0.54483   0.00000  Uiso   1.00
N322   N     0.30535   0.02159   0.27361   0.00000  Uiso   1.00
C323   C     0.03778   0.20224   0.88947   0.00000  Uiso   1.00
C324   C     0.99738   0.24927   0.94725   0.00000  Uiso   1.00
C325   C     0.93048   0.24804   0.95179   0.00000  Uiso   1.00
C326   C     0.90263   0.29526   0.00869   0.00000  Uiso   1.00
C327   C     0.83415   0.36113   0.09075   0.00000  Uiso   1.00
C328   C     0.08446   0.14035   0.92983   0.00000  Uiso   1.00
C329   C     0.09078   0.04754   0.91970   0.00000  Uiso   1.00
C330   C     0.13625   0.00307   0.96193   0.00000  Uiso   1.00
C331   C     0.20299   0.89985   0.01689   0.00000  Uiso   1.00
C332   C     0.07916   0.27608   0.85508   0.00000  Uiso   1.00
C333   C     0.08104   0.29738   0.78210   0.00000  Uiso   1.00
C334   C     0.12205   0.36718   0.76140   0.00000  Uiso   1.00
C335   C     0.18056   0.47470   0.70030   0.00000  Uiso   1.00
C336   C     0.10730   0.28830   0.98247   0.00000  Uiso   1.00
C337   C     0.03514   0.29601   0.99776   0.00000  Uiso   1.00
C338   C     0.00739   0.34325   0.05468   0.00000  Uiso   1.00
C339   C     0.94046   0.34209   0.05930   0.00000  Uiso   1.00
C340   C     0.12222   0.18709   0.98034   0.00000  Uiso   1.00
C341   C     0.16769   0.14275   0.02259   0.00000  Uiso   1.00
C342   C     0.17408   0.04989   0.01253   0.00000  Uiso   1.00
C343   C     0.11692   0.32283   0.90559   0.00000  Uiso   1.00
C344   C     0.15795   0.39260   0.88499   0.00000  Uiso   1.00
C345   C     0.15988   0.41400   0.81200   0.00000  Uiso   1.00
H346   H     0.00839   0.16585   0.85015   0.00000  Uiso   1.00
H347   H     0.90127   0.21185   0.91269   0.00000  Uiso   1.00
H348   H     0.06156   0.01138   0.88060   0.00000  Uiso   1.00
H349   H     0.05181   0.26119   0.74303   0.00000  Uiso   1.00
H350   H     0.79917   0.28343   0.00432   0.00000  Uiso   1.00
H351   H     0.13715   0.86075   0.93664   0.00000  Uiso   1.00
H352   H     0.11659   0.38751   0.64654   0.00000  Uiso   1.00
H353   H     0.13670   0.32469   0.02180   0.00000  Uiso   1.00
H354   H     0.03662   0.37942   0.09376   0.00000  Uiso   1.00
H355   H     0.19691   0.17895   0.06167   0.00000  Uiso   1.00
H356   H     0.18716   0.42875   0.92410   0.00000  Uiso   1.00
H357   H     0.90902   0.41943   0.15128   0.00000  Uiso   1.00
H358   H     0.24701   0.99675   0.08360   0.00000  Uiso   1.00
H359   H     0.22645   0.52352   0.79350   0.00000  Uiso   1.00
O360   O     0.78595   0.38454   0.12206   0.00000  Uiso   1.00
O361   O     0.22937   0.82999   0.03325   0.00000  Uiso   1.00
O362   O     0.20240   0.52110   0.65265   0.00000  Uiso   1.00
N363   N     0.83876   0.30795   0.02902   0.00000  Uiso   1.00
N364   N     0.15474   0.91276   0.96576   0.00000  Uiso   1.00
N365   N     0.13554   0.40522   0.69453   0.00000  Uiso   1.00
N366   N     0.89787   0.38113   0.10810   0.00000  Uiso   1.00
N367   N     0.21385   0.98594   0.04483   0.00000  Uiso   1.00
N368   N     0.19465   0.47841   0.77361   0.00000  Uiso   1.00
