data_job_06633
_audit_creation_date              2018-12-19
_audit_creation_method            'Materials Studio'
_symmetry_space_group_name_H-M    'P1'
_symmetry_Int_Tables_number       1
_symmetry_cell_setting            triclinic
loop_
_symmetry_equiv_pos_as_xyz
  x,y,z
_cell_length_a                    20.2975
_cell_length_b                    20.8849
_cell_length_c                    22.7450
_cell_angle_alpha                 65.4014
_cell_angle_beta                  108.1671
_cell_angle_gamma                 88.0375
loop_
_atom_site_label
_atom_site_type_symbol
_atom_site_fract_x
_atom_site_fract_y
_atom_site_fract_z
_atom_site_U_iso_or_equiv
_atom_site_adp_type
_atom_site_occupancy
C1     C     0.02136   0.05756   0.19746   0.00000  Uiso   1.00
C2     C     0.02913   0.12374   0.20982   0.00000  Uiso   1.00
C3     C     0.06191   0.17867   0.17887   0.00000  Uiso   1.00
C4     C     0.06355   0.23451   0.19704   0.00000  Uiso   1.00
C5     C     0.08023   0.33714   0.20905   0.00000  Uiso   1.00
C6     C     0.05455   0.99309   0.26850   0.00000  Uiso   1.00
C7     C     0.10868   0.93816   0.28688   0.00000  Uiso   1.00
C8     C     0.13171   0.88402   0.35444   0.00000  Uiso   1.00
C9     C     0.18781   0.78377   0.45753   0.00000  Uiso   1.00
C10    C     0.94245   0.05687   0.17388   0.00000  Uiso   1.00
C11    C     0.90234   0.05555   0.11272   0.00000  Uiso   1.00
C12    C     0.83099   0.05510   0.10063   0.00000  Uiso   1.00
C13    C     0.71304   0.05389   0.05681   0.00000  Uiso   1.00
C14    C     0.96598   0.05907   0.28475   0.00000  Uiso   1.00
C15    C     0.99906   0.12456   0.25723   0.00000  Uiso   1.00
C16    C     0.00064   0.18034   0.27545   0.00000  Uiso   1.00
C17    C     0.03342   0.23534   0.24454   0.00000  Uiso   1.00
C18    C     0.02447   0.99391   0.31591   0.00000  Uiso   1.00
C19    C     0.04742   0.93983   0.38346   0.00000  Uiso   1.00
C20    C     0.10158   0.88484   0.40194   0.00000  Uiso   1.00
C21    C     0.91237   0.05770   0.22129   0.00000  Uiso   1.00
C22    C     0.84107   0.05723   0.20930   0.00000  Uiso   1.00
C23    C     0.80086   0.05592   0.14813   0.00000  Uiso   1.00
H24    H     0.04477   0.05691   0.16055   0.00000  Uiso   1.00
H25    H     0.08518   0.17801   0.14219   0.00000  Uiso   1.00
H26    H     0.13194   0.93753   0.25017   0.00000  Uiso   1.00
H27    H     0.92563   0.05492   0.07604   0.00000  Uiso   1.00
H28    H     0.11674   0.31261   0.14276   0.00000  Uiso   1.00
H29    H     0.21532   0.80555   0.37045   0.00000  Uiso   1.00
H30    H     0.78027   0.05307   0.00326   0.00000  Uiso   1.00
H31    H     0.94257   0.05971   0.32166   0.00000  Uiso   1.00
H32    H     0.97737   0.18096   0.31214   0.00000  Uiso   1.00
H33    H     0.02413   0.94049   0.42013   0.00000  Uiso   1.00
H34    H     0.81782   0.05787   0.24600   0.00000  Uiso   1.00
H35    H     0.02924   0.31501   0.28071   0.00000  Uiso   1.00
H36    H     0.12782   0.80794   0.50840   0.00000  Uiso   1.00
H37    H     0.69276   0.05547   0.14120   0.00000  Uiso   1.00
O38    O     0.09775   0.39351   0.20258   0.00000  Uiso   1.00
O39    O     0.22707   0.72826   0.50130   0.00000  Uiso   1.00
O40    O     0.65629   0.05301   0.01955   0.00000  Uiso   1.00
N41    N     0.09136   0.29654   0.17652   0.00000  Uiso   1.00
N42    N     0.18354   0.82247   0.38940   0.00000  Uiso   1.00
N43    N     0.77680   0.05387   0.04611   0.00000  Uiso   1.00
N44    N     0.04427   0.29783   0.25075   0.00000  Uiso   1.00
N45    N     0.13645   0.82376   0.46363   0.00000  Uiso   1.00
N46    N     0.72971   0.05516   0.12034   0.00000  Uiso   1.00
C47    C     0.92054   0.02616   0.75474   0.00000  Uiso   1.00
C48    C     0.92865   0.00413   0.70093   0.00000  Uiso   1.00
C49    C     0.95429   0.93537   0.71365   0.00000  Uiso   1.00
C50    C     0.95761   0.92625   0.65749   0.00000  Uiso   1.00
C51    C     0.97351   0.88329   0.58406   0.00000  Uiso   1.00
C52    C     0.96259   0.08588   0.75153   0.00000  Uiso   1.00
C53    C     0.01676   0.08586   0.80678   0.00000  Uiso   1.00
C54    C     0.04864   0.14556   0.79321   0.00000  Uiso   1.00
C55    C     0.11720   0.22954   0.79834   0.00000  Uiso   1.00
C56    C     0.84318   0.06116   0.72791   0.00000  Uiso   1.00
C57    C     0.79694   0.04035   0.76332   0.00000  Uiso   1.00
C58    C     0.72827   0.07925   0.72988   0.00000  Uiso   1.00
C59    C     0.61142   0.12484   0.69834   0.00000  Uiso   1.00
C60    C     0.88083   0.13223   0.63239   0.00000  Uiso   1.00
C61    C     0.90708   0.06175   0.63448   0.00000  Uiso   1.00
C62    C     0.91035   0.05273   0.57829   0.00000  Uiso   1.00
C63    C     0.93599   0.98397   0.59092   0.00000  Uiso   1.00
C64    C     0.94102   0.14349   0.68508   0.00000  Uiso   1.00
C65    C     0.97282   0.20321   0.67142   0.00000  Uiso   1.00
C66    C     0.02702   0.20327   0.72664   0.00000  Uiso   1.00
C67    C     0.82160   0.11877   0.66146   0.00000  Uiso   1.00
C68    C     0.75300   0.15771   0.62796   0.00000  Uiso   1.00
C69    C     0.70666   0.13697   0.66331   0.00000  Uiso   1.00
H70    H     0.93734   0.98131   0.80647   0.00000  Uiso   1.00
H71    H     0.97099   0.89080   0.76508   0.00000  Uiso   1.00
H72    H     0.03344   0.04127   0.85820   0.00000  Uiso   1.00
H73    H     0.81365   0.99577   0.81475   0.00000  Uiso   1.00
H74    H     0.99880   0.81587   0.68989   0.00000  Uiso   1.00
H75    H     0.13047   0.13315   0.88624   0.00000  Uiso   1.00
H76    H     0.66700   0.03720   0.79461   0.00000  Uiso   1.00
H77    H     0.86403   0.17709   0.58066   0.00000  Uiso   1.00
H78    H     0.89365   0.09732   0.52687   0.00000  Uiso   1.00
H79    H     0.95611   0.24779   0.61999   0.00000  Uiso   1.00
H80    H     0.73632   0.20229   0.57653   0.00000  Uiso   1.00
H81    H     0.93604   0.98349   0.49655   0.00000  Uiso   1.00
H82    H     0.06770   0.30077   0.69290   0.00000  Uiso   1.00
H83    H     0.60424   0.20482   0.60127   0.00000  Uiso   1.00
O84    O     0.98825   0.84368   0.56192   0.00000  Uiso   1.00
O85    O     0.16098   0.25994   0.81953   0.00000  Uiso   1.00
O86    O     0.55293   0.13406   0.69930   0.00000  Uiso   1.00
N87    N     0.97995   0.86627   0.65177   0.00000  Uiso   1.00
N88    N     0.10306   0.16289   0.83534   0.00000  Uiso   1.00
N89    N     0.66976   0.07321   0.74968   0.00000  Uiso   1.00
N90    N     0.94618   0.95646   0.54773   0.00000  Uiso   1.00
N91    N     0.06929   0.25309   0.73131   0.00000  Uiso   1.00
N92    N     0.63599   0.16340   0.64564   0.00000  Uiso   1.00
C93    C     0.00819   0.59472   0.15194   0.00000  Uiso   1.00
C94    C     0.97084   0.53722   0.18825   0.00000  Uiso   1.00
C95    C     0.99279   0.49382   0.25910   0.00000  Uiso   1.00
C96    C     0.95135   0.44448   0.28210   0.00000  Uiso   1.00
C97    C     0.90269   0.35605   0.34551   0.00000  Uiso   1.00
C98    C     0.02302   0.57553   0.09893   0.00000  Uiso   1.00
C99    C     0.08883   0.56435   0.09468   0.00000  Uiso   1.00
C100   C     0.09132   0.54727   0.04249   0.00000  Uiso   1.00
C101   C     0.12366   0.51837   0.96719   0.00000  Uiso   1.00
C102   C     0.95354   0.66424   0.11030   0.00000  Uiso   1.00
C103   C     0.96093   0.72765   0.11560   0.00000  Uiso   1.00
C104   C     0.90493   0.78526   0.07296   0.00000  Uiso   1.00
C105   C     0.82938   0.89407   0.01532   0.00000  Uiso   1.00
C106   C     0.89558   0.58428   0.06679   0.00000  Uiso   1.00
C107   C     0.90968   0.53155   0.14199   0.00000  Uiso   1.00
C108   C     0.86820   0.48227   0.16489   0.00000  Uiso   1.00
C109   C     0.89008   0.43880   0.23577   0.00000  Uiso   1.00
C110   C     0.96186   0.56986   0.05268   0.00000  Uiso   1.00
C111   C     0.96425   0.55280   0.00048   0.00000  Uiso   1.00
C112   C     0.03005   0.54159   0.99615   0.00000  Uiso   1.00
C113   C     0.89237   0.65857   0.06405   0.00000  Uiso   1.00
C114   C     0.83635   0.71609   0.02139   0.00000  Uiso   1.00
C115   C     0.84366   0.77958   0.02663   0.00000  Uiso   1.00
H116   H     0.05581   0.59913   0.18795   0.00000  Uiso   1.00
H117   H     0.04013   0.49822   0.29488   0.00000  Uiso   1.00
H118   H     0.13615   0.56875   0.13048   0.00000  Uiso   1.00
H119   H     0.00827   0.73201   0.15139   0.00000  Uiso   1.00
H120   H     0.99578   0.38382   0.39303   0.00000  Uiso   1.00
H121   H     0.19826   0.53256   0.04637   0.00000  Uiso   1.00
H122   H     0.92860   0.87684   0.09047   0.00000  Uiso   1.00
H123   H     0.84797   0.57986   0.03078   0.00000  Uiso   1.00
H124   H     0.82088   0.47789   0.12909   0.00000  Uiso   1.00
H125   H     0.91691   0.54842   0.96469   0.00000  Uiso   1.00
H126   H     0.78903   0.71169   0.98561   0.00000  Uiso   1.00
H127   H     0.81783   0.36732   0.25847   0.00000  Uiso   1.00
H128   H     0.02031   0.51607   0.91181   0.00000  Uiso   1.00
H129   H     0.75065   0.86034   0.95591   0.00000  Uiso   1.00
O130   O     0.89275   0.30883   0.39326   0.00000  Uiso   1.00
O131   O     0.15839   0.50398   0.93845   0.00000  Uiso   1.00
O132   O     0.80460   0.95566   0.99631   0.00000  Uiso   1.00
N133   N     0.95761   0.39394   0.34787   0.00000  Uiso   1.00
N134   N     0.14692   0.53300   0.02377   0.00000  Uiso   1.00
N135   N     0.89481   0.85487   0.06499   0.00000  Uiso   1.00
N136   N     0.86186   0.38507   0.27547   0.00000  Uiso   1.00
N137   N     0.05116   0.52412   0.95137   0.00000  Uiso   1.00
N138   N     0.79906   0.84599   0.99259   0.00000  Uiso   1.00
C139   C     0.30674   0.04296   0.66730   0.00000  Uiso   1.00
C140   C     0.35432   0.03589   0.73731   0.00000  Uiso   1.00
C141   C     0.35255   0.98901   0.80128   0.00000  Uiso   1.00
C142   C     0.40045   0.99072   0.85926   0.00000  Uiso   1.00
C143   C     0.46706   0.97258   0.96885   0.00000  Uiso   1.00
C144   C     0.35605   0.03066   0.63276   0.00000  Uiso   1.00
C145   C     0.35573   0.97940   0.60882   0.00000  Uiso   1.00
C146   C     0.40507   0.97673   0.57878   0.00000  Uiso   1.00
C147   C     0.47433   0.95051   0.52602   0.00000  Uiso   1.00
C148   C     0.27031   0.12152   0.62444   0.00000  Uiso   1.00
C149   C     0.19789   0.14666   0.59349   0.00000  Uiso   1.00
C150   C     0.17504   0.22048   0.55643   0.00000  Uiso   1.00
C151   C     0.11118   0.33534   0.49076   0.00000  Uiso   1.00
C152   C     0.39495   0.12935   0.65651   0.00000  Uiso   1.00
C153   C     0.40223   0.08281   0.73144   0.00000  Uiso   1.00
C154   C     0.45014   0.08460   0.78934   0.00000  Uiso   1.00
C155   C     0.44844   0.03773   0.85339   0.00000  Uiso   1.00
C156   C     0.40396   0.07759   0.62690   0.00000  Uiso   1.00
C157   C     0.45331   0.07499   0.59688   0.00000  Uiso   1.00
C158   C     0.45307   0.02374   0.57291   0.00000  Uiso   1.00
C159   C     0.31821   0.16845   0.61858   0.00000  Uiso   1.00
C160   C     0.29548   0.24225   0.58156   0.00000  Uiso   1.00
C161   C     0.22304   0.26749   0.55056   0.00000  Uiso   1.00
H162   H     0.26945   0.00642   0.67186   0.00000  Uiso   1.00
H163   H     0.31547   0.95270   0.80579   0.00000  Uiso   1.00
H164   H     0.31864   0.94310   0.61336   0.00000  Uiso   1.00
H165   H     0.16083   0.11033   0.59804   0.00000  Uiso   1.00
H166   H     0.38765   0.91381   0.95170   0.00000  Uiso   1.00
H167   H     0.39431   0.89359   0.54592   0.00000  Uiso   1.00
H168   H     0.06154   0.24623   0.51361   0.00000  Uiso   1.00
H169   H     0.43225   0.16589   0.65195   0.00000  Uiso   1.00
H170   H     0.48721   0.12092   0.78479   0.00000  Uiso   1.00
H171   H     0.49038   0.11132   0.59235   0.00000  Uiso   1.00
H172   H     0.33257   0.27854   0.57703   0.00000  Uiso   1.00
H173   H     0.52704   0.05034   0.93465   0.00000  Uiso   1.00
H174   H     0.53370   0.03012   0.52887   0.00000  Uiso   1.00
H175   H     0.20092   0.38276   0.49656   0.00000  Uiso   1.00
O176   O     0.49058   0.94960   0.03092   0.00000  Uiso   1.00
O177   O     0.49931   0.92308   0.49854   0.00000  Uiso   1.00
O178   O     0.06271   0.38572   0.45616   0.00000  Uiso   1.00
N179   N     0.41290   0.95213   0.92945   0.00000  Uiso   1.00
N180   N     0.41914   0.93321   0.55008   0.00000  Uiso   1.00
N181   N     0.10802   0.26290   0.51986   0.00000  Uiso   1.00
N182   N     0.48791   0.02559   0.92028   0.00000  Uiso   1.00
N183   N     0.49414   0.00668   0.54091   0.00000  Uiso   1.00
N184   N     0.18302   0.33636   0.51069   0.00000  Uiso   1.00
C185   C     0.39354   0.49202   0.68537   0.00000  Uiso   1.00
C186   C     0.42448   0.43655   0.66910   0.00000  Uiso   1.00
C187   C     0.44079   0.45122   0.61044   0.00000  Uiso   1.00
C188   C     0.46867   0.39303   0.60518   0.00000  Uiso   1.00
C189   C     0.51504   0.31759   0.57209   0.00000  Uiso   1.00
C190   C     0.44449   0.48053   0.75584   0.00000  Uiso   1.00
C191   C     0.47763   0.53218   0.77011   0.00000  Uiso   1.00
C192   C     0.52235   0.51101   0.83788   0.00000  Uiso   1.00
C193   C     0.59976   0.50386   0.93946   0.00000  Uiso   1.00
C194   C     0.32570   0.47029   0.69626   0.00000  Uiso   1.00
C195   C     0.25895   0.51334   0.66045   0.00000  Uiso   1.00
C196   C     0.20365   0.48355   0.67806   0.00000  Uiso   1.00
C197   C     0.09662   0.46051   0.68713   0.00000  Uiso   1.00
C198   C     0.41403   0.36260   0.78035   0.00000  Uiso   1.00
C199   C     0.43561   0.36625   0.72069   0.00000  Uiso   1.00
C200   C     0.46347   0.30802   0.71552   0.00000  Uiso   1.00
C201   C     0.47982   0.32260   0.65686   0.00000  Uiso   1.00
C202   C     0.45563   0.41023   0.80743   0.00000  Uiso   1.00
C203   C     0.50030   0.38898   0.87519   0.00000  Uiso   1.00
C204   C     0.53350   0.44058   0.88956   0.00000  Uiso   1.00
C205   C     0.33683   0.39999   0.74785   0.00000  Uiso   1.00
C206   C     0.28163   0.37014   0.76552   0.00000  Uiso   1.00
C207   C     0.21481   0.41313   0.72974   0.00000  Uiso   1.00
H208   H     0.38487   0.54676   0.64521   0.00000  Uiso   1.00
H209   H     0.43217   0.50563   0.57053   0.00000  Uiso   1.00
H210   H     0.46900   0.58658   0.73018   0.00000  Uiso   1.00
H211   H     0.25036   0.56774   0.62053   0.00000  Uiso   1.00
H212   H     0.48955   0.42904   0.51050   0.00000  Uiso   1.00
H213   H     0.56717   0.59973   0.84713   0.00000  Uiso   1.00
H214   H     0.10612   0.56000   0.61591   0.00000  Uiso   1.00
H215   H     0.42270   0.30786   0.82052   0.00000  Uiso   1.00
H216   H     0.47208   0.25363   0.75545   0.00000  Uiso   1.00
H217   H     0.50890   0.33458   0.91510   0.00000  Uiso   1.00
H218   H     0.29026   0.31573   0.80545   0.00000  Uiso   1.00
H219   H     0.52194   0.22450   0.66059   0.00000  Uiso   1.00
H220   H     0.59956   0.39519   0.99722   0.00000  Uiso   1.00
H221   H     0.13852   0.35546   0.76600   0.00000  Uiso   1.00
O222   O     0.53756   0.29541   0.53959   0.00000  Uiso   1.00
O223   O     0.63939   0.51934   0.98124   0.00000  Uiso   1.00
O224   O     0.03451   0.46722   0.67788   0.00000  Uiso   1.00
N225   N     0.49038   0.38834   0.55474   0.00000  Uiso   1.00
N226   N     0.56297   0.54792   0.86947   0.00000  Uiso   1.00
N227   N     0.13193   0.51079   0.65331   0.00000  Uiso   1.00
N228   N     0.50781   0.27828   0.63550   0.00000  Uiso   1.00
N229   N     0.58039   0.43786   0.95023   0.00000  Uiso   1.00
N230   N     0.14936   0.40073   0.73407   0.00000  Uiso   1.00
C231   C     0.48475   0.06628   0.24496   0.00000  Uiso   1.00
C232   C     0.46161   0.11874   0.16829   0.00000  Uiso   1.00
C233   C     0.43477   0.19153   0.13905   0.00000  Uiso   1.00
C234   C     0.41669   0.23032   0.06791   0.00000  Uiso   1.00
C235   C     0.37951   0.31679   0.95501   0.00000  Uiso   1.00
C236   C     0.56124   0.03173   0.26656   0.00000  Uiso   1.00
C237   C     0.61817   0.03137   0.31994   0.00000  Uiso   1.00
C238   C     0.68396   0.99691   0.33151   0.00000  Uiso   1.00
C239   C     0.80146   0.94826   0.37120   0.00000  Uiso   1.00
C240   C     0.44210   0.00686   0.24909   0.00000  Uiso   1.00
C241   C     0.39885   0.98557   0.28780   0.00000  Uiso   1.00
C242   C     0.36434   0.93016   0.28468   0.00000  Uiso   1.00
C243   C     0.29684   0.84289   0.29724   0.00000  Uiso   1.00
C244   C     0.50037   0.00572   0.17061   0.00000  Uiso   1.00
C245   C     0.47010   0.08584   0.12791   0.00000  Uiso   1.00
C246   C     0.45206   0.12453   0.05679   0.00000  Uiso   1.00
C247   C     0.42519   0.19737   0.02745   0.00000  Uiso   1.00
C248   C     0.56973   0.99884   0.22617   0.00000  Uiso   1.00
C249   C     0.63546   0.96437   0.23768   0.00000  Uiso   1.00
C250   C     0.69246   0.96396   0.29106   0.00000  Uiso   1.00
C251   C     0.45058   0.97397   0.20870   0.00000  Uiso   1.00
C252   C     0.41614   0.91858   0.20553   0.00000  Uiso   1.00
C253   C     0.37284   0.89721   0.24422   0.00000  Uiso   1.00
H254   H     0.47814   0.09188   0.27641   0.00000  Uiso   1.00
H255   H     0.42822   0.21696   0.17033   0.00000  Uiso   1.00
H256   H     0.61158   0.05682   0.35119   0.00000  Uiso   1.00
H257   H     0.39230   0.01103   0.31904   0.00000  Uiso   1.00
H258   H     0.37663   0.34114   0.03491   0.00000  Uiso   1.00
H259   H     0.76327   0.00345   0.41628   0.00000  Uiso   1.00
H260   H     0.30086   0.90690   0.34850   0.00000  Uiso   1.00
H261   H     0.50698   0.98011   0.13917   0.00000  Uiso   1.00
H262   H     0.45863   0.09907   0.02555   0.00000  Uiso   1.00
H263   H     0.64200   0.93892   0.20641   0.00000  Uiso   1.00
H264   H     0.42272   0.89314   0.17427   0.00000  Uiso   1.00
H265   H     0.40132   0.24545   0.91740   0.00000  Uiso   1.00
H266   H     0.78796   0.90776   0.29878   0.00000  Uiso   1.00
H267   H     0.32555   0.81121   0.23100   0.00000  Uiso   1.00
O268   O     0.35667   0.37357   0.90389   0.00000  Uiso   1.00
O269   O     0.86392   0.93052   0.40425   0.00000  Uiso   1.00
O270   O     0.25725   0.80385   0.31532   0.00000  Uiso   1.00
N271   N     0.38906   0.30229   0.02284   0.00000  Uiso   1.00
N272   N     0.75055   0.98658   0.37940   0.00000  Uiso   1.00
N273   N     0.31825   0.89630   0.31604   0.00000  Uiso   1.00
N274   N     0.40235   0.25080   0.95961   0.00000  Uiso   1.00
N275   N     0.76383   0.93509   0.31617   0.00000  Uiso   1.00
N276   N     0.33153   0.84481   0.25282   0.00000  Uiso   1.00
C277   C     0.84696   0.75723   0.84792   0.00000  Uiso   1.00
C278   C     0.82729   0.68692   0.84933   0.00000  Uiso   1.00
C279   C     0.78849   0.64590   0.88645   0.00000  Uiso   1.00
C280   C     0.77610   0.58333   0.88089   0.00000  Uiso   1.00
C281   C     0.74166   0.47733   0.88931   0.00000  Uiso   1.00
C282   C     0.81855   0.81245   0.77189   0.00000  Uiso   1.00
C283   C     0.77240   0.87697   0.74391   0.00000  Uiso   1.00
C284   C     0.75265   0.92006   0.67316   0.00000  Uiso   1.00
C285   C     0.70467   0.00897   0.56137   0.00000  Uiso   1.00
C286   C     0.92723   0.74615   0.87052   0.00000  Uiso   1.00
C287   C     0.97246   0.75496   0.92547   0.00000  Uiso   1.00
C288   C     0.04422   0.74226   0.93775   0.00000  Uiso   1.00
C289   C     0.16498   0.72824   0.97911   0.00000  Uiso   1.00
C290   C     0.89395   0.71904   0.77201   0.00000  Uiso   1.00
C291   C     0.85282   0.66618   0.80809   0.00000  Uiso   1.00
C292   C     0.84049   0.60365   0.80247   0.00000  Uiso   1.00
C293   C     0.80168   0.56254   0.83959   0.00000  Uiso   1.00
C294   C     0.84407   0.79171   0.73066   0.00000  Uiso   1.00
C295   C     0.82439   0.83472   0.65993   0.00000  Uiso   1.00
C296   C     0.77822   0.89928   0.63185   0.00000  Uiso   1.00
C297   C     0.95275   0.72541   0.82930   0.00000  Uiso   1.00
C298   C     0.02445   0.71270   0.84149   0.00000  Uiso   1.00
C299   C     0.06979   0.72148   0.89645   0.00000  Uiso   1.00
H300   H     0.82708   0.77338   0.88001   0.00000  Uiso   1.00
H301   H     0.76874   0.66197   0.91835   0.00000  Uiso   1.00
H302   H     0.75266   0.89301   0.77583   0.00000  Uiso   1.00
H303   H     0.95269   0.77101   0.95736   0.00000  Uiso   1.00
H304   H     0.71530   0.52933   0.94265   0.00000  Uiso   1.00
H305   H     0.68140   0.01648   0.64214   0.00000  Uiso   1.00
H306   H     0.10321   0.75923   0.02494   0.00000  Uiso   1.00
H307   H     0.91382   0.70289   0.73991   0.00000  Uiso   1.00
H308   H     0.86024   0.58761   0.77056   0.00000  Uiso   1.00
H309   H     0.84416   0.81865   0.62804   0.00000  Uiso   1.00
H310   H     0.04419   0.69665   0.80958   0.00000  Uiso   1.00
H311   H     0.78956   0.46897   0.82270   0.00000  Uiso   1.00
H312   H     0.75567   0.95613   0.52219   0.00000  Uiso   1.00
H313   H     0.17747   0.69888   0.90499   0.00000  Uiso   1.00
O314   O     0.71560   0.42460   0.90534   0.00000  Uiso   1.00
O315   O     0.67114   0.06374   0.51110   0.00000  Uiso   1.00
O316   O     0.22454   0.72622   0.01332   0.00000  Uiso   1.00
N317   N     0.74014   0.53093   0.91022   0.00000  Uiso   1.00
N318   N     0.70844   0.98639   0.62926   0.00000  Uiso   1.00
N319   N     0.10279   0.74590   0.98714   0.00000  Uiso   1.00
N320   N     0.78010   0.49846   0.84568   0.00000  Uiso   1.00
N321   N     0.74840   0.95392   0.56472   0.00000  Uiso   1.00
N322   N     0.14275   0.71343   0.92260   0.00000  Uiso   1.00
C323   C     0.93096   0.79228   0.29734   0.00000  Uiso   1.00
C324   C     0.92182   0.75393   0.36704   0.00000  Uiso   1.00
C325   C     0.92424   0.78263   0.41265   0.00000  Uiso   1.00
C326   C     0.91465   0.73893   0.47376   0.00000  Uiso   1.00
C327   C     0.90220   0.69003   0.57971   0.00000  Uiso   1.00
C328   C     0.86478   0.79006   0.24367   0.00000  Uiso   1.00
C329   C     0.81924   0.84913   0.18555   0.00000  Uiso   1.00
C330   C     0.76163   0.83584   0.14280   0.00000  Uiso   1.00
C331   C     0.66064   0.84303   0.05719   0.00000  Uiso   1.00
C332   C     0.99164   0.74469   0.30009   0.00000  Uiso   1.00
C333   C     0.05276   0.76561   0.28939   0.00000  Uiso   1.00
C334   C     0.10195   0.71412   0.29412   0.00000  Uiso   1.00
C335   C     0.19793   0.65086   0.29611   0.00000  Uiso   1.00
C336   C     0.90962   0.66364   0.32475   0.00000  Uiso   1.00
C337   C     0.91024   0.68406   0.38192   0.00000  Uiso   1.00
C338   C     0.90064   0.64031   0.44298   0.00000  Uiso   1.00
C339   C     0.90304   0.66893   0.48868   0.00000  Uiso   1.00
C340   C     0.85319   0.72019   0.25855   0.00000  Uiso   1.00
C341   C     0.79563   0.70681   0.21588   0.00000  Uiso   1.00
C342   C     0.75002   0.76585   0.15772   0.00000  Uiso   1.00
C343   C     0.98005   0.67481   0.31498   0.00000  Uiso   1.00
C344   C     0.02915   0.62328   0.31972   0.00000  Uiso   1.00
C345   C     0.09034   0.64412   0.30904   0.00000  Uiso   1.00
H346   H     0.93997   0.84668   0.28574   0.00000  Uiso   1.00
H347   H     0.93320   0.83671   0.40110   0.00000  Uiso   1.00
H348   H     0.82822   0.90320   0.17404   0.00000  Uiso   1.00
H349   H     0.06170   0.81969   0.27787   0.00000  Uiso   1.00
H350   H     0.92057   0.79485   0.53557   0.00000  Uiso   1.00
H351   H     0.69921   0.93505   0.05677   0.00000  Uiso   1.00
H352   H     0.19156   0.75895   0.27570   0.00000  Uiso   1.00
H353   H     0.90060   0.60924   0.33634   0.00000  Uiso   1.00
H354   H     0.89167   0.58624   0.45449   0.00000  Uiso   1.00
H355   H     0.78669   0.65273   0.22742   0.00000  Uiso   1.00
H356   H     0.02017   0.56922   0.33125   0.00000  Uiso   1.00
H357   H     0.88685   0.59156   0.57889   0.00000  Uiso   1.00
H358   H     0.66550   0.73176   0.10009   0.00000  Uiso   1.00
H359   H     0.15785   0.55566   0.31903   0.00000  Uiso   1.00
O360   O     0.89852   0.68237   0.63403   0.00000  Uiso   1.00
O361   O     0.60813   0.86630   0.00585   0.00000  Uiso   1.00
O362   O     0.25407   0.63526   0.29310   0.00000  Uiso   1.00
N363   N     0.91387   0.75016   0.52956   0.00000  Uiso   1.00
N364   N     0.70691   0.88124   0.08191   0.00000  Uiso   1.00
N365   N     0.16721   0.71660   0.28658   0.00000  Uiso   1.00
N366   N     0.89573   0.64077   0.55287   0.00000  Uiso   1.00
N367   N     0.68877   0.77185   0.10522   0.00000  Uiso   1.00
N368   N     0.14907   0.60721   0.30990   0.00000  Uiso   1.00
C369   C     0.83332   0.16726   0.85854   0.00000  Uiso   1.00
C370   C     0.85596   0.22790   0.80711   0.00000  Uiso   1.00
C371   C     0.82765   0.25532   0.73555   0.00000  Uiso   1.00
C372   C     0.85558   0.31080   0.69756   0.00000  Uiso   1.00
C373   C     0.88245   0.40088   0.61276   0.00000  Uiso   1.00
C374   C     0.81256   0.19752   0.90215   0.00000  Uiso   1.00
C375   C     0.74775   0.19939   0.91050   0.00000  Uiso   1.00
C376   C     0.73915   0.22930   0.95252   0.00000  Uiso   1.00
C377   C     0.69866   0.27217   0.01531   0.00000  Uiso   1.00
C378   C     0.89992   0.11046   0.90734   0.00000  Uiso   1.00
C379   C     0.90858   0.03911   0.92007   0.00000  Uiso   1.00
C380   C     0.97353   0.99571   0.96648   0.00000  Uiso   1.00
C381   C     0.06869   0.90340   0.03733   0.00000  Uiso   1.00
C382   C     0.93327   0.21703   0.91834   0.00000  Uiso   1.00
C383   C     0.91025   0.25494   0.83960   0.00000  Uiso   1.00
C384   C     0.93824   0.31039   0.80171   0.00000  Uiso   1.00
C385   C     0.90997   0.33788   0.73010   0.00000  Uiso   1.00
C386   C     0.86685   0.22456   0.93463   0.00000  Uiso   1.00
C387   C     0.85834   0.25446   0.97666   0.00000  Uiso   1.00
C388   C     0.79354   0.25638   0.98506   0.00000  Uiso   1.00
C389   C     0.95422   0.13749   0.93982   0.00000  Uiso   1.00
C390   C     0.01917   0.09419   0.98622   0.00000  Uiso   1.00
C391   C     0.02792   0.02279   0.99902   0.00000  Uiso   1.00
H392   H     0.79105   0.14621   0.83326   0.00000  Uiso   1.00
H393   H     0.78562   0.23439   0.71043   0.00000  Uiso   1.00
H394   H     0.70575   0.17846   0.88536   0.00000  Uiso   1.00
H395   H     0.86655   0.01821   0.89493   0.00000  Uiso   1.00
H396   H     0.80354   0.34409   0.58858   0.00000  Uiso   1.00
H397   H     0.63513   0.22615   0.95745   0.00000  Uiso   1.00
H398   H     0.97421   0.88823   0.97762   0.00000  Uiso   1.00
H399   H     0.97554   0.23808   0.94363   0.00000  Uiso   1.00
H400   H     0.98025   0.33130   0.82686   0.00000  Uiso   1.00
H401   H     0.90037   0.27538   0.00179   0.00000  Uiso   1.00
H402   H     0.06117   0.11513   0.01135   0.00000  Uiso   1.00
H403   H     0.96150   0.42275   0.68307   0.00000  Uiso   1.00
H404   H     0.79309   0.30481   0.05195   0.00000  Uiso   1.00
H405   H     0.13217   0.96689   0.07211   0.00000  Uiso   1.00
O406   O     0.88227   0.44310   0.55702   0.00000  Uiso   1.00
O407   O     0.66133   0.28835   0.04097   0.00000  Uiso   1.00
O408   O     0.10619   0.84501   0.06742   0.00000  Uiso   1.00
N409   N     0.84008   0.34980   0.62684   0.00000  Uiso   1.00
N410   N     0.68262   0.23954   0.97171   0.00000  Uiso   1.00
N411   N     0.99963   0.92361   0.99058   0.00000  Uiso   1.00
N412   N     0.92508   0.39212   0.67769   0.00000  Uiso   1.00
N413   N     0.76762   0.28187   0.02255   0.00000  Uiso   1.00
N414   N     0.08462   0.96594   0.04142   0.00000  Uiso   1.00
C415   C     0.53621   0.70099   0.35126   0.00000  Uiso   1.00
C416   C     0.48641   0.72041   0.27793   0.00000  Uiso   1.00
C417   C     0.49294   0.76991   0.21727   0.00000  Uiso   1.00
C418   C     0.44193   0.78005   0.15536   0.00000  Uiso   1.00
C419   C     0.37303   0.81602   0.04167   0.00000  Uiso   1.00
C420   C     0.49028   0.71455   0.38823   0.00000  Uiso   1.00
C421   C     0.50006   0.75912   0.42031   0.00000  Uiso   1.00
C422   C     0.45232   0.76433   0.45124   0.00000  Uiso   1.00
C423   C     0.38945   0.79116   0.50883   0.00000  Uiso   1.00
C424   C     0.56191   0.62003   0.38619   0.00000  Uiso   1.00
C425   C     0.63192   0.58511   0.41658   0.00000  Uiso   1.00
C426   C     0.64448   0.51072   0.44581   0.00000  Uiso   1.00
C427   C     0.69283   0.39079   0.50023   0.00000  Uiso   1.00
C428   C     0.43401   0.63097   0.34917   0.00000  Uiso   1.00
C429   C     0.43090   0.68238   0.27680   0.00000  Uiso   1.00
C430   C     0.37987   0.69244   0.21495   0.00000  Uiso   1.00
C431   C     0.38633   0.74195   0.15421   0.00000  Uiso   1.00
C432   C     0.43477   0.67652   0.38709   0.00000  Uiso   1.00
C433   C     0.38700   0.68166   0.41799   0.00000  Uiso   1.00
C434   C     0.39671   0.72623   0.45010   0.00000  Uiso   1.00
C435   C     0.50640   0.58199   0.38505   0.00000  Uiso   1.00
C436   C     0.51885   0.50764   0.41425   0.00000  Uiso   1.00
C437   C     0.58887   0.47262   0.44467   0.00000  Uiso   1.00
H438   H     0.57942   0.73060   0.35215   0.00000  Uiso   1.00
H439   H     0.53590   0.79934   0.21818   0.00000  Uiso   1.00
H440   H     0.54303   0.78854   0.42119   0.00000  Uiso   1.00
H441   H     0.67486   0.61456   0.41745   0.00000  Uiso   1.00
H442   H     0.46315   0.85879   0.06914   0.00000  Uiso   1.00
H443   H     0.47820   0.83602   0.49721   0.00000  Uiso   1.00
H444   H     0.75620   0.46914   0.48933   0.00000  Uiso   1.00
H445   H     0.39080   0.60136   0.34828   0.00000  Uiso   1.00
H446   H     0.33692   0.66300   0.21409   0.00000  Uiso   1.00
H447   H     0.34405   0.65221   0.41710   0.00000  Uiso   1.00
H448   H     0.47588   0.47823   0.41336   0.00000  Uiso   1.00
H449   H     0.30165   0.74814   0.06582   0.00000  Uiso   1.00
H450   H     0.31670   0.72537   0.49390   0.00000  Uiso   1.00
H451   H     0.59470   0.35849   0.48602   0.00000  Uiso   1.00
O452   O     0.35035   0.84637   0.97928   0.00000  Uiso   1.00
O453   O     0.37010   0.81648   0.54090   0.00000  Uiso   1.00
O454   O     0.73483   0.33514   0.53056   0.00000  Uiso   1.00
N455   N     0.43255   0.82428   0.08678   0.00000  Uiso   1.00
N456   N     0.44660   0.80300   0.48699   0.00000  Uiso   1.00
N457   N     0.70651   0.45999   0.47964   0.00000  Uiso   1.00
N458   N     0.34565   0.76474   0.08499   0.00000  Uiso   1.00
N459   N     0.35970   0.74346   0.48520   0.00000  Uiso   1.00
N460   N     0.61961   0.40045   0.47785   0.00000  Uiso   1.00
C461   C     0.36395   0.18968   0.33420   0.00000  Uiso   1.00
C462   C     0.32351   0.25853   0.32428   0.00000  Uiso   1.00
C463   C     0.29904   0.26595   0.37210   0.00000  Uiso   1.00
C464   C     0.26320   0.33337   0.35321   0.00000  Uiso   1.00
C465   C     0.20205   0.43146   0.34758   0.00000  Uiso   1.00
C466   C     0.32173   0.17598   0.27359   0.00000  Uiso   1.00
C467   C     0.29576   0.11399   0.27880   0.00000  Uiso   1.00
C468   C     0.25842   0.11191   0.21724   0.00000  Uiso   1.00
C469   C     0.19453   0.08182   0.13293   0.00000  Uiso   1.00
C470   C     0.43281   0.20755   0.32347   0.00000  Uiso   1.00
C471   C     0.50025   0.17209   0.37060   0.00000  Uiso   1.00
C472   C     0.55644   0.19658   0.35103   0.00000  Uiso   1.00
C473   C     0.66504   0.21550   0.34415   0.00000  Uiso   1.00
C474   C     0.34383   0.29622   0.21561   0.00000  Uiso   1.00
C475   C     0.31258   0.31640   0.25986   0.00000  Uiso   1.00
C476   C     0.27677   0.38382   0.24089   0.00000  Uiso   1.00
C477   C     0.25225   0.39134   0.28868   0.00000  Uiso   1.00
C478   C     0.31079   0.23385   0.20918   0.00000  Uiso   1.00
C479   C     0.27349   0.23186   0.14760   0.00000  Uiso   1.00
C480   C     0.24747   0.16988   0.15271   0.00000  Uiso   1.00
C481   C     0.42188   0.26542   0.25905   0.00000  Uiso   1.00
C482   C     0.47798   0.28997   0.23940   0.00000  Uiso   1.00
C483   C     0.54549   0.25455   0.28650   0.00000  Uiso   1.00
H484   H     0.37246   0.14463   0.38435   0.00000  Uiso   1.00
H485   H     0.30751   0.22115   0.42194   0.00000  Uiso   1.00
H486   H     0.30423   0.06921   0.32866   0.00000  Uiso   1.00
H487   H     0.50869   0.12731   0.42044   0.00000  Uiso   1.00
H488   H     0.23065   0.33150   0.43520   0.00000  Uiso   1.00
H489   H     0.22376   0.01112   0.23851   0.00000  Uiso   1.00
H490   H     0.65491   0.13362   0.43206   0.00000  Uiso   1.00
H491   H     0.33531   0.34128   0.16546   0.00000  Uiso   1.00
H492   H     0.26832   0.42860   0.19104   0.00000  Uiso   1.00
H493   H     0.26504   0.27665   0.09776   0.00000  Uiso   1.00
H494   H     0.46950   0.33475   0.18955   0.00000  Uiso   1.00
H495   H     0.19884   0.49987   0.24779   0.00000  Uiso   1.00
H496   H     0.19196   0.17949   0.05110   0.00000  Uiso   1.00
H497   H     0.62310   0.30199   0.24465   0.00000  Uiso   1.00
O498   O     0.17132   0.46957   0.36226   0.00000  Uiso   1.00
O499   O     0.16231   0.04924   0.10422   0.00000  Uiso   1.00
O500   O     0.72796   0.20996   0.35815   0.00000  Uiso   1.00
N501   N     0.23237   0.35915   0.38759   0.00000  Uiso   1.00
N502   N     0.22592   0.05961   0.20370   0.00000  Uiso   1.00
N503   N     0.62901   0.17413   0.38464   0.00000  Uiso   1.00
N504   N     0.21525   0.44975   0.28675   0.00000  Uiso   1.00
N505   N     0.20881   0.15021   0.10285   0.00000  Uiso   1.00
N506   N     0.61189   0.26473   0.28380   0.00000  Uiso   1.00
C507   C     0.37834   0.73212   0.76614   0.00000  Uiso   1.00
C508   C     0.36406   0.67593   0.82760   0.00000  Uiso   1.00
C509   C     0.36649   0.60386   0.84379   0.00000  Uiso   1.00
C510   C     0.35175   0.56121   0.90217   0.00000  Uiso   1.00
C511   C     0.33207   0.46963   0.99139   0.00000  Uiso   1.00
C512   C     0.31264   0.79124   0.72565   0.00000  Uiso   1.00
C513   C     0.27186   0.81613   0.65613   0.00000  Uiso   1.00
C514   C     0.21384   0.87055   0.62869   0.00000  Uiso   1.00
C515   C     0.11436   0.95804   0.55963   0.00000  Uiso   1.00
C516   C     0.43740   0.76512   0.79649   0.00000  Uiso   1.00
C517   C     0.50150   0.76807   0.78652   0.00000  Uiso   1.00
C518   C     0.54851   0.80052   0.81871   0.00000  Uiso   1.00
C519   C     0.64273   0.84744   0.85963   0.00000  Uiso   1.00
C520   C     0.34783   0.78455   0.84104   0.00000  Uiso   1.00
C521   C     0.34749   0.70441   0.86828   0.00000  Uiso   1.00
C522   C     0.33274   0.66185   0.92665   0.00000  Uiso   1.00
C523   C     0.33516   0.58973   0.94293   0.00000  Uiso   1.00
C524   C     0.29607   0.81972   0.76633   0.00000  Uiso   1.00
C525   C     0.23811   0.87412   0.73899   0.00000  Uiso   1.00
C526   C     0.19724   0.89908   0.66944   0.00000  Uiso   1.00
C527   C     0.42083   0.79360   0.83717   0.00000  Uiso   1.00
C528   C     0.46775   0.82606   0.86938   0.00000  Uiso   1.00
C529   C     0.53191   0.82904   0.85946   0.00000  Uiso   1.00
H530   H     0.39123   0.70996   0.73447   0.00000  Uiso   1.00
H531   H     0.37931   0.58185   0.81229   0.00000  Uiso   1.00
H532   H     0.28469   0.79409   0.62466   0.00000  Uiso   1.00
H533   H     0.51430   0.74603   0.75503   0.00000  Uiso   1.00
H534   H     0.35876   0.45237   0.91650   0.00000  Uiso   1.00
H535   H     0.15927   0.89991   0.52086   0.00000  Uiso   1.00
H536   H     0.64344   0.79856   0.79577   0.00000  Uiso   1.00
H537   H     0.33493   0.80671   0.87271   0.00000  Uiso   1.00
H538   H     0.31992   0.68390   0.95812   0.00000  Uiso   1.00
H539   H     0.22531   0.89615   0.77049   0.00000  Uiso   1.00
H540   H     0.45491   0.84808   0.90086   0.00000  Uiso   1.00
H541   H     0.31056   0.53520   0.03486   0.00000  Uiso   1.00
H542   H     0.11107   0.98274   0.63922   0.00000  Uiso   1.00
H543   H     0.59524   0.88140   0.91414   0.00000  Uiso   1.00
O544   O     0.32577   0.41126   0.02936   0.00000  Uiso   1.00
O545   O     0.06407   0.99842   0.51029   0.00000  Uiso   1.00
O546   O     0.69928   0.86545   0.87098   0.00000  Uiso   1.00
N547   N     0.34949   0.48871   0.93264   0.00000  Uiso   1.00
N548   N     0.16297   0.90713   0.56274   0.00000  Uiso   1.00
N549   N     0.61562   0.81240   0.81975   0.00000  Uiso   1.00
N550   N     0.32355   0.53329   0.99633   0.00000  Uiso   1.00
N551   N     0.13704   0.95170   0.62643   0.00000  Uiso   1.00
N552   N     0.58969   0.85697   0.88344   0.00000  Uiso   1.00
