data_job_06690
_audit_creation_date              2018-12-19
_audit_creation_method            'Materials Studio'
_symmetry_space_group_name_H-M    'P1'
_symmetry_Int_Tables_number       1
_symmetry_cell_setting            triclinic
loop_
_symmetry_equiv_pos_as_xyz
  x,y,z
_cell_length_a                    17.7824
_cell_length_b                    21.7973
_cell_length_c                    20.3902
_cell_angle_alpha                 92.5841
_cell_angle_beta                  85.3674
_cell_angle_gamma                 90.1673
loop_
_atom_site_label
_atom_site_type_symbol
_atom_site_fract_x
_atom_site_fract_y
_atom_site_fract_z
_atom_site_U_iso_or_equiv
_atom_site_adp_type
_atom_site_occupancy
C1     C     0.15938   0.54610   0.24489   0.00000  Uiso   1.00
C2     C     0.19450   0.59409   0.28981   0.00000  Uiso   1.00
C3     C     0.26568   0.61974   0.27886   0.00000  Uiso   1.00
C4     C     0.28745   0.66289   0.32582   0.00000  Uiso   1.00
C5     C     0.34926   0.73482   0.38709   0.00000  Uiso   1.00
C6     C     0.13840   0.49199   0.28758   0.00000  Uiso   1.00
C7     C     0.16239   0.43180   0.27475   0.00000  Uiso   1.00
C8     C     0.13693   0.38900   0.31982   0.00000  Uiso   1.00
C9     C     0.11160   0.30241   0.37760   0.00000  Uiso   1.00
C10    C     0.08499   0.57347   0.22778   0.00000  Uiso   1.00
C11    C     0.06407   0.58177   0.16466   0.00000  Uiso   1.00
C12    C     0.99363   0.60755   0.15938   0.00000  Uiso   1.00
C13    C     0.88538   0.64747   0.12430   0.00000  Uiso   1.00
C14    C     0.07147   0.57711   0.34775   0.00000  Uiso   1.00
C15    C     0.14675   0.61093   0.34568   0.00000  Uiso   1.00
C16    C     0.16842   0.65405   0.39266   0.00000  Uiso   1.00
C17    C     0.23961   0.67977   0.38179   0.00000  Uiso   1.00
C18    C     0.09065   0.50883   0.34344   0.00000  Uiso   1.00
C19    C     0.06514   0.46611   0.38855   0.00000  Uiso   1.00
C20    C     0.08909   0.40587   0.37579   0.00000  Uiso   1.00
C21    C     0.03724   0.59031   0.28364   0.00000  Uiso   1.00
C22    C     0.96682   0.61608   0.27846   0.00000  Uiso   1.00
C23    C     0.94580   0.62442   0.21535   0.00000  Uiso   1.00
H24    H     0.19655   0.53298   0.20140   0.00000  Uiso   1.00
H25    H     0.30261   0.60669   0.23563   0.00000  Uiso   1.00
H26    H     0.19934   0.41878   0.23151   0.00000  Uiso   1.00
H27    H     0.10104   0.56873   0.12144   0.00000  Uiso   1.00
H28    H     0.39916   0.69582   0.29822   0.00000  Uiso   1.00
H29    H     0.18138   0.29959   0.28953   0.00000  Uiso   1.00
H30    H     0.97409   0.61579   0.05742   0.00000  Uiso   1.00
H31    H     0.03429   0.59022   0.39124   0.00000  Uiso   1.00
H32    H     0.13146   0.66708   0.43589   0.00000  Uiso   1.00
H33    H     0.02818   0.47916   0.43177   0.00000  Uiso   1.00
H34    H     0.92988   0.62911   0.32170   0.00000  Uiso   1.00
H35    H     0.26024   0.74483   0.46077   0.00000  Uiso   1.00
H36    H     0.04246   0.34860   0.45207   0.00000  Uiso   1.00
H37    H     0.83517   0.66480   0.21997   0.00000  Uiso   1.00
O38    O     0.39656   0.76984   0.40545   0.00000  Uiso   1.00
O39    O     0.11083   0.25000   0.39403   0.00000  Uiso   1.00
O40    O     0.83887   0.66484   0.08952   0.00000  Uiso   1.00
N41    N     0.35313   0.69682   0.33034   0.00000  Uiso   1.00
N42    N     0.14953   0.32637   0.32222   0.00000  Uiso   1.00
N43    N     0.95571   0.62197   0.10522   0.00000  Uiso   1.00
N44    N     0.27838   0.72319   0.41781   0.00000  Uiso   1.00
N45    N     0.07478   0.35274   0.40968   0.00000  Uiso   1.00
N46    N     0.88097   0.64834   0.19268   0.00000  Uiso   1.00
C47    C     0.35979   0.17608   0.59738   0.00000  Uiso   1.00
C48    C     0.39414   0.23528   0.62433   0.00000  Uiso   1.00
C49    C     0.36138   0.27379   0.67466   0.00000  Uiso   1.00
C50    C     0.40185   0.32574   0.69214   0.00000  Uiso   1.00
C51    C     0.44442   0.41570   0.73879   0.00000  Uiso   1.00
C52    C     0.35677   0.18355   0.52364   0.00000  Uiso   1.00
C53    C     0.29257   0.17855   0.48932   0.00000  Uiso   1.00
C54    C     0.30158   0.18695   0.42204   0.00000  Uiso   1.00
C55    C     0.28613   0.19655   0.31236   0.00000  Uiso   1.00
C56    C     0.41765   0.12573   0.60413   0.00000  Uiso   1.00
C57    C     0.40464   0.07211   0.63746   0.00000  Uiso   1.00
C58    C     0.46491   0.03182   0.63794   0.00000  Uiso   1.00
C59    C     0.54398   0.95165   0.65322   0.00000  Uiso   1.00
C60    C     0.48993   0.19986   0.53894   0.00000  Uiso   1.00
C61    C     0.46483   0.24819   0.59258   0.00000  Uiso   1.00
C62    C     0.50536   0.30010   0.61000   0.00000  Uiso   1.00
C63    C     0.47266   0.33868   0.66034   0.00000  Uiso   1.00
C64    C     0.42745   0.19646   0.49190   0.00000  Uiso   1.00
C65    C     0.43656   0.20486   0.42466   0.00000  Uiso   1.00
C66    C     0.37240   0.19989   0.39024   0.00000  Uiso   1.00
C67    C     0.48834   0.13864   0.57238   0.00000  Uiso   1.00
C68    C     0.54863   0.09842   0.57280   0.00000  Uiso   1.00
C69    C     0.53572   0.04475   0.60613   0.00000  Uiso   1.00
H70    H     0.30476   0.16603   0.62209   0.00000  Uiso   1.00
H71    H     0.30667   0.26378   0.69921   0.00000  Uiso   1.00
H72    H     0.23788   0.16855   0.51389   0.00000  Uiso   1.00
H73    H     0.34993   0.06213   0.66202   0.00000  Uiso   1.00
H74    H     0.33995   0.37786   0.77069   0.00000  Uiso   1.00
H75    H     0.19491   0.17705   0.37994   0.00000  Uiso   1.00
H76    H     0.43119   0.95263   0.69229   0.00000  Uiso   1.00
H77    H     0.54497   0.20992   0.51422   0.00000  Uiso   1.00
H78    H     0.56007   0.31008   0.58542   0.00000  Uiso   1.00
H79    H     0.49127   0.21485   0.40011   0.00000  Uiso   1.00
H80    H     0.60332   0.10843   0.54823   0.00000  Uiso   1.00
H81    H     0.54561   0.41544   0.67833   0.00000  Uiso   1.00
H82    H     0.40057   0.21463   0.28759   0.00000  Uiso   1.00
H83    H     0.63685   0.99021   0.59993   0.00000  Uiso   1.00
O84    O     0.44837   0.46176   0.77328   0.00000  Uiso   1.00
O85    O     0.25808   0.19829   0.26063   0.00000  Uiso   1.00
O86    O     0.56807   0.90386   0.67043   0.00000  Uiso   1.00
N87    N     0.38629   0.37296   0.73919   0.00000  Uiso   1.00
N88    N     0.25068   0.18522   0.37387   0.00000  Uiso   1.00
N89    N     0.47158   0.97540   0.66587   0.00000  Uiso   1.00
N90    N     0.49695   0.39318   0.68949   0.00000  Uiso   1.00
N91    N     0.36135   0.20544   0.32417   0.00000  Uiso   1.00
N92    N     0.58224   0.99562   0.61617   0.00000  Uiso   1.00
C93    C     0.66015   0.35269   0.07540   0.00000  Uiso   1.00
C94    C     0.72546   0.36674   0.11778   0.00000  Uiso   1.00
C95    C     0.78391   0.32694   0.12746   0.00000  Uiso   1.00
C96    C     0.83822   0.34844   0.16801   0.00000  Uiso   1.00
C97    C     0.94022   0.36125   0.22931   0.00000  Uiso   1.00
C98    C     0.58829   0.36324   0.12054   0.00000  Uiso   1.00
C99    C     0.53141   0.32050   0.13253   0.00000  Uiso   1.00
C100   C     0.47025   0.33906   0.17540   0.00000  Uiso   1.00
C101   C     0.35928   0.34645   0.24095   0.00000  Uiso   1.00
C102   C     0.66156   0.40276   0.02545   0.00000  Uiso   1.00
C103   C     0.66627   0.39323   0.95748   0.00000  Uiso   1.00
C104   C     0.66678   0.44507   0.92029   0.00000  Uiso   1.00
C105   C     0.66958   0.51381   0.83819   0.00000  Uiso   1.00
C106   C     0.65267   0.46167   0.13020   0.00000  Uiso   1.00
C107   C     0.72139   0.42593   0.14755   0.00000  Uiso   1.00
C108   C     0.77563   0.44751   0.18809   0.00000  Uiso   1.00
C109   C     0.83415   0.40774   0.19783   0.00000  Uiso   1.00
C110   C     0.58423   0.42243   0.15031   0.00000  Uiso   1.00
C111   C     0.52314   0.44107   0.19317   0.00000  Uiso   1.00
C112   C     0.46618   0.39836   0.20522   0.00000  Uiso   1.00
C113   C     0.65750   0.46195   0.05521   0.00000  Uiso   1.00
C114   C     0.65800   0.51381   0.01812   0.00000  Uiso   1.00
C115   C     0.66271   0.50437   0.95011   0.00000  Uiso   1.00
H116   H     0.66331   0.30660   0.05223   0.00000  Uiso   1.00
H117   H     0.78703   0.28113   0.10442   0.00000  Uiso   1.00
H118   H     0.53457   0.27470   0.10948   0.00000  Uiso   1.00
H119   H     0.66941   0.34742   0.93446   0.00000  Uiso   1.00
H120   H     0.92239   0.27898   0.17543   0.00000  Uiso   1.00
H121   H     0.39005   0.26542   0.18609   0.00000  Uiso   1.00
H122   H     0.67439   0.41878   0.81702   0.00000  Uiso   1.00
H123   H     0.64950   0.50775   0.15338   0.00000  Uiso   1.00
H124   H     0.77247   0.49332   0.21112   0.00000  Uiso   1.00
H125   H     0.52001   0.48688   0.21619   0.00000  Uiso   1.00
H126   H     0.65485   0.55961   0.04117   0.00000  Uiso   1.00
H127   H     0.91057   0.45120   0.26204   0.00000  Uiso   1.00
H128   H     0.37823   0.43764   0.27270   0.00000  Uiso   1.00
H129   H     0.66258   0.59100   0.90363   0.00000  Uiso   1.00
O130   O     0.99760   0.35196   0.25491   0.00000  Uiso   1.00
O131   O     0.29920   0.33417   0.26889   0.00000  Uiso   1.00
O132   O     0.67225   0.53537   0.78468   0.00000  Uiso   1.00
N133   N     0.90274   0.32150   0.18788   0.00000  Uiso   1.00
N134   N     0.40504   0.30882   0.19786   0.00000  Uiso   1.00
N135   N     0.67086   0.45220   0.85281   0.00000  Uiso   1.00
N136   N     0.89638   0.41417   0.23448   0.00000  Uiso   1.00
N137   N     0.39869   0.40149   0.24446   0.00000  Uiso   1.00
N138   N     0.66450   0.54486   0.89941   0.00000  Uiso   1.00
C139   C     0.76624   0.84883   0.97683   0.00000  Uiso   1.00
C140   C     0.83074   0.86895   0.01783   0.00000  Uiso   1.00
C141   C     0.89720   0.83672   0.02222   0.00000  Uiso   1.00
C142   C     0.94921   0.86287   0.06237   0.00000  Uiso   1.00
C143   C     0.05151   0.88555   0.12076   0.00000  Uiso   1.00
C144   C     0.75445   0.90110   0.93147   0.00000  Uiso   1.00
C145   C     0.75676   0.89591   0.86324   0.00000  Uiso   1.00
C146   C     0.74454   0.94913   0.83069   0.00000  Uiso   1.00
C147   C     0.72834   0.02172   0.75501   0.00000  Uiso   1.00
C148   C     0.69585   0.84755   0.02469   0.00000  Uiso   1.00
C149   C     0.64887   0.79734   0.03485   0.00000  Uiso   1.00
C150   C     0.58730   0.80547   0.08078   0.00000  Uiso   1.00
C151   C     0.48011   0.79492   0.14985   0.00000  Uiso   1.00
C152   C     0.74042   0.95259   0.04032   0.00000  Uiso   1.00
C153   C     0.81671   0.92530   0.05232   0.00000  Uiso   1.00
C154   C     0.86863   0.95151   0.09247   0.00000  Uiso   1.00
C155   C     0.93516   0.91933   0.09692   0.00000  Uiso   1.00
C156   C     0.74043   0.95746   0.96595   0.00000  Uiso   1.00
C157   C     0.72819   0.01070   0.93349   0.00000  Uiso   1.00
C158   C     0.73049   0.00559   0.86524   0.00000  Uiso   1.00
C159   C     0.68182   0.90391   0.05918   0.00000  Uiso   1.00
C160   C     0.62031   0.91213   0.10510   0.00000  Uiso   1.00
C161   C     0.57325   0.86193   0.11533   0.00000  Uiso   1.00
H162   H     0.77716   0.80496   0.94997   0.00000  Uiso   1.00
H163   H     0.90804   0.79311   0.99552   0.00000  Uiso   1.00
H164   H     0.76761   0.85229   0.83657   0.00000  Uiso   1.00
H165   H     0.65974   0.75373   0.00815   0.00000  Uiso   1.00
H166   H     0.04696   0.80484   0.06120   0.00000  Uiso   1.00
H167   H     0.75084   0.92962   0.72605   0.00000  Uiso   1.00
H168   H     0.52338   0.72179   0.08786   0.00000  Uiso   1.00
H169   H     0.72950   0.99646   0.06717   0.00000  Uiso   1.00
H170   H     0.85776   0.99512   0.11915   0.00000  Uiso   1.00
H171   H     0.71734   0.05430   0.96020   0.00000  Uiso   1.00
H172   H     0.60947   0.95574   0.13178   0.00000  Uiso   1.00
H173   H     0.00616   0.96880   0.16155   0.00000  Uiso   1.00
H174   H     0.71003   0.09358   0.82639   0.00000  Uiso   1.00
H175   H     0.48258   0.88575   0.18821   0.00000  Uiso   1.00
O176   O     0.11181   0.88249   0.14344   0.00000  Uiso   1.00
O177   O     0.72329   0.04619   0.70373   0.00000  Uiso   1.00
O178   O     0.42487   0.77352   0.17842   0.00000  Uiso   1.00
N179   N     0.01975   0.84360   0.07770   0.00000  Uiso   1.00
N180   N     0.74290   0.96027   0.76435   0.00000  Uiso   1.00
N181   N     0.53024   0.76597   0.10260   0.00000  Uiso   1.00
N182   N     0.99780   0.93183   0.13169   0.00000  Uiso   1.00
N183   N     0.72095   0.04849   0.81834   0.00000  Uiso   1.00
N184   N     0.50828   0.85419   0.15659   0.00000  Uiso   1.00
C185   C     0.82041   0.16668   0.56448   0.00000  Uiso   1.00
C186   C     0.84402   0.22874   0.59370   0.00000  Uiso   1.00
C187   C     0.80334   0.26329   0.64319   0.00000  Uiso   1.00
C188   C     0.83457   0.31884   0.66312   0.00000  Uiso   1.00
C189   C     0.86069   0.41212   0.71285   0.00000  Uiso   1.00
C190   C     0.88487   0.12253   0.57316   0.00000  Uiso   1.00
C191   C     0.87852   0.06779   0.60537   0.00000  Uiso   1.00
C192   C     0.94414   0.03393   0.60800   0.00000  Uiso   1.00
C193   C     0.03366   0.96230   0.62580   0.00000  Uiso   1.00
C194   C     0.81993   0.17425   0.49054   0.00000  Uiso   1.00
C195   C     0.75900   0.16298   0.45328   0.00000  Uiso   1.00
C196   C     0.76995   0.17264   0.38635   0.00000  Uiso   1.00
C197   C     0.75864   0.18131   0.27587   0.00000  Uiso   1.00
C198   C     0.94821   0.20388   0.51185   0.00000  Uiso   1.00
C199   C     0.91344   0.24894   0.56511   0.00000  Uiso   1.00
C200   C     0.94474   0.30445   0.58497   0.00000  Uiso   1.00
C201   C     0.90411   0.33908   0.63448   0.00000  Uiso   1.00
C202   C     0.95428   0.14274   0.54457   0.00000  Uiso   1.00
C203   C     0.01992   0.10895   0.54715   0.00000  Uiso   1.00
C204   C     0.01368   0.05417   0.57936   0.00000  Uiso   1.00
C205   C     0.88935   0.19446   0.46195   0.00000  Uiso   1.00
C206   C     0.90039   0.20414   0.39506   0.00000  Uiso   1.00
C207   C     0.83949   0.19288   0.35771   0.00000  Uiso   1.00
H208   H     0.76637   0.15094   0.58674   0.00000  Uiso   1.00
H209   H     0.74962   0.24764   0.66531   0.00000  Uiso   1.00
H210   H     0.82480   0.05216   0.62749   0.00000  Uiso   1.00
H211   H     0.70529   0.14734   0.47542   0.00000  Uiso   1.00
H212   H     0.76169   0.36374   0.73982   0.00000  Uiso   1.00
H213   H     0.92019   0.95156   0.66006   0.00000  Uiso   1.00
H214   H     0.66818   0.15226   0.33940   0.00000  Uiso   1.00
H215   H     0.00226   0.21961   0.48960   0.00000  Uiso   1.00
H216   H     0.99846   0.32008   0.56283   0.00000  Uiso   1.00
H217   H     0.07363   0.12460   0.52502   0.00000  Uiso   1.00
H218   H     0.95412   0.21977   0.37295   0.00000  Uiso   1.00
H219   H     0.96365   0.42253   0.65666   0.00000  Uiso   1.00
H220   H     0.12215   0.01035   0.57689   0.00000  Uiso   1.00
H221   H     0.87014   0.21105   0.25623   0.00000  Uiso   1.00
O222   O     0.85592   0.45798   0.74819   0.00000  Uiso   1.00
O223   O     0.06386   0.91721   0.64352   0.00000  Uiso   1.00
O224   O     0.73323   0.18052   0.22283   0.00000  Uiso   1.00
N225   N     0.80973   0.36380   0.71019   0.00000  Uiso   1.00
N226   N     0.95792   0.97844   0.63562   0.00000  Uiso   1.00
N227   N     0.72232   0.16606   0.33583   0.00000  Uiso   1.00
N228   N     0.91841   0.39543   0.66544   0.00000  Uiso   1.00
N229   N     0.06660   0.01007   0.59087   0.00000  Uiso   1.00
N230   N     0.83099   0.19769   0.29108   0.00000  Uiso   1.00
C231   C     0.26284   0.74631   0.83942   0.00000  Uiso   1.00
C232   C     0.28675   0.78398   0.89906   0.00000  Uiso   1.00
C233   C     0.34911   0.82237   0.89978   0.00000  Uiso   1.00
C234   C     0.36132   0.85284   0.95924   0.00000  Uiso   1.00
C235   C     0.40581   0.91254   0.04322   0.00000  Uiso   1.00
C236   C     0.18190   0.76540   0.83090   0.00000  Uiso   1.00
C237   C     0.15610   0.78816   0.77431   0.00000  Uiso   1.00
C238   C     0.08003   0.80298   0.77640   0.00000  Uiso   1.00
C239   C     0.96172   0.83379   0.75454   0.00000  Uiso   1.00
C240   C     0.25872   0.67985   0.85980   0.00000  Uiso   1.00
C241   C     0.29749   0.63066   0.82750   0.00000  Uiso   1.00
C242   C     0.28609   0.57344   0.85392   0.00000  Uiso   1.00
C243   C     0.28705   0.47141   0.87692   0.00000  Uiso   1.00
C244   C     0.17363   0.73217   0.94375   0.00000  Uiso   1.00
C245   C     0.23829   0.77631   0.95572   0.00000  Uiso   1.00
C246   C     0.25041   0.80673   0.01520   0.00000  Uiso   1.00
C247   C     0.31278   0.84515   0.01601   0.00000  Uiso   1.00
C248   C     0.13344   0.75773   0.88756   0.00000  Uiso   1.00
C249   C     0.05740   0.77252   0.88974   0.00000  Uiso   1.00
C250   C     0.03149   0.79529   0.83317   0.00000  Uiso   1.00
C251   C     0.21026   0.67217   0.91646   0.00000  Uiso   1.00
C252   C     0.19879   0.61502   0.94293   0.00000  Uiso   1.00
C253   C     0.23754   0.56575   0.91068   0.00000  Uiso   1.00
H254   H     0.30056   0.75228   0.79530   0.00000  Uiso   1.00
H255   H     0.38659   0.82830   0.85591   0.00000  Uiso   1.00
H256   H     0.19361   0.79409   0.73047   0.00000  Uiso   1.00
H257   H     0.33498   0.63662   0.78365   0.00000  Uiso   1.00
H258   H     0.46060   0.90921   0.94810   0.00000  Uiso   1.00
H259   H     0.05367   0.83705   0.68358   0.00000  Uiso   1.00
H260   H     0.35178   0.50499   0.79573   0.00000  Uiso   1.00
H261   H     0.13590   0.72619   0.98786   0.00000  Uiso   1.00
H262   H     0.21290   0.80078   0.05904   0.00000  Uiso   1.00
H263   H     0.01992   0.76657   0.93359   0.00000  Uiso   1.00
H264   H     0.16129   0.60910   0.98678   0.00000  Uiso   1.00
H265   H     0.31962   0.88687   0.11296   0.00000  Uiso   1.00
H266   H     0.91269   0.81471   0.84844   0.00000  Uiso   1.00
H267   H     0.21081   0.48265   0.96059   0.00000  Uiso   1.00
O268   O     0.44372   0.94759   0.07388   0.00000  Uiso   1.00
O269   O     0.90985   0.85291   0.72683   0.00000  Uiso   1.00
O270   O     0.30097   0.41726   0.87397   0.00000  Uiso   1.00
N271   N     0.41686   0.89371   0.97713   0.00000  Uiso   1.00
N272   N     0.03641   0.82625   0.72983   0.00000  Uiso   1.00
N273   N     0.31510   0.51580   0.83466   0.00000  Uiso   1.00
N274   N     0.34100   0.88169   0.06585   0.00000  Uiso   1.00
N275   N     0.96055   0.81423   0.81854   0.00000  Uiso   1.00
N276   N     0.23925   0.50378   0.92338   0.00000  Uiso   1.00
C277   C     0.94570   0.62461   0.65320   0.00000  Uiso   1.00
C278   C     0.88708   0.57863   0.63099   0.00000  Uiso   1.00
C279   C     0.82258   0.56100   0.66832   0.00000  Uiso   1.00
C280   C     0.77607   0.51835   0.63911   0.00000  Uiso   1.00
C281   C     0.68238   0.45065   0.61437   0.00000  Uiso   1.00
C282   C     0.95093   0.67395   0.60233   0.00000  Uiso   1.00
C283   C     0.94012   0.73645   0.61558   0.00000  Uiso   1.00
C284   C     0.94737   0.77405   0.56225   0.00000  Uiso   1.00
C285   C     0.95286   0.85432   0.49304   0.00000  Uiso   1.00
C286   C     0.02110   0.59085   0.64524   0.00000  Uiso   1.00
C287   C     0.06929   0.58350   0.69456   0.00000  Uiso   1.00
C288   C     0.13563   0.55115   0.67735   0.00000  Uiso   1.00
C289   C     0.25007   0.50242   0.67475   0.00000  Uiso   1.00
C290   C     0.97782   0.58024   0.53493   0.00000  Uiso   1.00
C291   C     0.90453   0.55453   0.56675   0.00000  Uiso   1.00
C292   C     0.85812   0.51190   0.53747   0.00000  Uiso   1.00
C293   C     0.79355   0.49421   0.57476   0.00000  Uiso   1.00
C294   C     0.96838   0.64985   0.53810   0.00000  Uiso   1.00
C295   C     0.97566   0.68736   0.48473   0.00000  Uiso   1.00
C296   C     0.96485   0.74990   0.49790   0.00000  Uiso   1.00
C297   C     0.03855   0.56675   0.58100   0.00000  Uiso   1.00
C298   C     0.10483   0.53441   0.56371   0.00000  Uiso   1.00
C299   C     0.15312   0.52701   0.61299   0.00000  Uiso   1.00
H300   H     0.93212   0.64338   0.70321   0.00000  Uiso   1.00
H301   H     0.80909   0.57966   0.71803   0.00000  Uiso   1.00
H302   H     0.92662   0.75509   0.66530   0.00000  Uiso   1.00
H303   H     0.05577   0.60216   0.74426   0.00000  Uiso   1.00
H304   H     0.68037   0.49841   0.70612   0.00000  Uiso   1.00
H305   H     0.92822   0.86831   0.59494   0.00000  Uiso   1.00
H306   H     0.20056   0.54584   0.76145   0.00000  Uiso   1.00
H307   H     0.99141   0.56148   0.48492   0.00000  Uiso   1.00
H308   H     0.87163   0.49326   0.48776   0.00000  Uiso   1.00
H309   H     0.98916   0.66869   0.43503   0.00000  Uiso   1.00
H310   H     0.11832   0.51577   0.51399   0.00000  Uiso   1.00
H311   H     0.73113   0.42829   0.51922   0.00000  Uiso   1.00
H312   H     0.97898   0.79819   0.40804   0.00000  Uiso   1.00
H313   H     0.25132   0.47571   0.57455   0.00000  Uiso   1.00
O314   O     0.62588   0.41997   0.61847   0.00000  Uiso   1.00
O315   O     0.95106   0.90526   0.47261   0.00000  Uiso   1.00
O316   O     0.30836   0.48218   0.69106   0.00000  Uiso   1.00
N317   N     0.70876   0.49126   0.66175   0.00000  Uiso   1.00
N318   N     0.94047   0.83709   0.55780   0.00000  Uiso   1.00
N319   N     0.19510   0.53562   0.71347   0.00000  Uiso   1.00
N320   N     0.73608   0.45353   0.56118   0.00000  Uiso   1.00
N321   N     0.96779   0.79936   0.45723   0.00000  Uiso   1.00
N322   N     0.22242   0.49789   0.61290   0.00000  Uiso   1.00
C323   C     0.71685   0.92552   0.30587   0.00000  Uiso   1.00
C324   C     0.69001   0.86369   0.27856   0.00000  Uiso   1.00
C325   C     0.72895   0.82662   0.23020   0.00000  Uiso   1.00
C326   C     0.69483   0.77177   0.21199   0.00000  Uiso   1.00
C327   C     0.66391   0.67835   0.16518   0.00000  Uiso   1.00
C328   C     0.71670   0.91977   0.38014   0.00000  Uiso   1.00
C329   C     0.77806   0.92985   0.41717   0.00000  Uiso   1.00
C330   C     0.76641   0.92221   0.48446   0.00000  Uiso   1.00
C331   C     0.77689   0.91589   0.59535   0.00000  Uiso   1.00
C332   C     0.65487   0.97152   0.29568   0.00000  Uiso   1.00
C333   C     0.66426   0.02513   0.26172   0.00000  Uiso   1.00
C334   C     0.60056   0.06107   0.25791   0.00000  Uiso   1.00
C335   C     0.51506   0.13511   0.23767   0.00000  Uiso   1.00
C336   C     0.58703   0.89403   0.35952   0.00000  Uiso   1.00
C337   C     0.61950   0.84659   0.30771   0.00000  Uiso   1.00
C338   C     0.58532   0.79178   0.28956   0.00000  Uiso   1.00
C339   C     0.62419   0.75463   0.24118   0.00000  Uiso   1.00
C340   C     0.64619   0.90266   0.40928   0.00000  Uiso   1.00
C341   C     0.63443   0.89501   0.47653   0.00000  Uiso   1.00
C342   C     0.69577   0.90507   0.51366   0.00000  Uiso   1.00
C343   C     0.58436   0.95442   0.32482   0.00000  Uiso   1.00
C344   C     0.52063   0.99028   0.32107   0.00000  Uiso   1.00
C345   C     0.52992   0.04393   0.28711   0.00000  Uiso   1.00
H346   H     0.77175   0.93884   0.28319   0.00000  Uiso   1.00
H347   H     0.78352   0.83987   0.20767   0.00000  Uiso   1.00
H348   H     0.83262   0.94309   0.39461   0.00000  Uiso   1.00
H349   H     0.71884   0.03835   0.23917   0.00000  Uiso   1.00
H350   H     0.76549   0.72260   0.13681   0.00000  Uiso   1.00
H351   H     0.86902   0.94026   0.53099   0.00000  Uiso   1.00
H352   H     0.62908   0.14114   0.20322   0.00000  Uiso   1.00
H353   H     0.53213   0.88071   0.38221   0.00000  Uiso   1.00
H354   H     0.53075   0.77855   0.31212   0.00000  Uiso   1.00
H355   H     0.57986   0.88177   0.49907   0.00000  Uiso   1.00
H356   H     0.46607   0.97703   0.34363   0.00000  Uiso   1.00
H357   H     0.56033   0.67283   0.22159   0.00000  Uiso   1.00
H358   H     0.66387   0.89049   0.61577   0.00000  Uiso   1.00
H359   H     0.42393   0.09137   0.28801   0.00000  Uiso   1.00
O360   O     0.66634   0.63155   0.13132   0.00000  Uiso   1.00
O361   O     0.80216   0.91712   0.64847   0.00000  Uiso   1.00
O362   O     0.48737   0.18067   0.21845   0.00000  Uiso   1.00
N363   N     0.71739   0.72491   0.16637   0.00000  Uiso   1.00
N364   N     0.81419   0.92840   0.53490   0.00000  Uiso   1.00
N365   N     0.58987   0.11621   0.22849   0.00000  Uiso   1.00
N366   N     0.60699   0.69813   0.21199   0.00000  Uiso   1.00
N367   N     0.70379   0.90162   0.58052   0.00000  Uiso   1.00
N368   N     0.47948   0.08943   0.27411   0.00000  Uiso   1.00
C369   C     0.50746   0.74541   0.67846   0.00000  Uiso   1.00
C370   C     0.43020   0.73160   0.65385   0.00000  Uiso   1.00
C371   C     0.37860   0.77494   0.63765   0.00000  Uiso   1.00
C372   C     0.31106   0.75302   0.61607   0.00000  Uiso   1.00
C373   C     0.19343   0.74116   0.57860   0.00000  Uiso   1.00
C374   C     0.56444   0.71047   0.63092   0.00000  Uiso   1.00
C375   C     0.62570   0.73605   0.59546   0.00000  Uiso   1.00
C376   C     0.67117   0.69633   0.55459   0.00000  Uiso   1.00
C377   C     0.76198   0.65166   0.48157   0.00000  Uiso   1.00
C378   C     0.50844   0.71465   0.74409   0.00000  Uiso   1.00
C379   C     0.52264   0.74374   0.80378   0.00000  Uiso   1.00
C380   C     0.52097   0.70753   0.85819   0.00000  Uiso   1.00
C381   C     0.52483   0.66936   0.96088   0.00000  Uiso   1.00
C382   C     0.47928   0.62940   0.66895   0.00000  Uiso   1.00
C383   C     0.41490   0.66859   0.64868   0.00000  Uiso   1.00
C384   C     0.34741   0.64659   0.62712   0.00000  Uiso   1.00
C385   C     0.29572   0.68989   0.61089   0.00000  Uiso   1.00
C386   C     0.54913   0.64746   0.62575   0.00000  Uiso   1.00
C387   C     0.59452   0.60769   0.58493   0.00000  Uiso   1.00
C388   C     0.65583   0.63320   0.54941   0.00000  Uiso   1.00
C389   C     0.49313   0.65164   0.73892   0.00000  Uiso   1.00
C390   C     0.49145   0.61538   0.79325   0.00000  Uiso   1.00
C391   C     0.50563   0.64441   0.85301   0.00000  Uiso   1.00
H392   H     0.51939   0.79447   0.68248   0.00000  Uiso   1.00
H393   H     0.39047   0.82371   0.64165   0.00000  Uiso   1.00
H394   H     0.63754   0.78481   0.59947   0.00000  Uiso   1.00
H395   H     0.53448   0.79250   0.80776   0.00000  Uiso   1.00
H396   H     0.24080   0.82833   0.59407   0.00000  Uiso   1.00
H397   H     0.76178   0.74632   0.50516   0.00000  Uiso   1.00
H398   H     0.54446   0.76253   0.94437   0.00000  Uiso   1.00
H399   H     0.46736   0.58033   0.66492   0.00000  Uiso   1.00
H400   H     0.33558   0.59782   0.62312   0.00000  Uiso   1.00
H401   H     0.58266   0.55893   0.58094   0.00000  Uiso   1.00
H402   H     0.47960   0.56662   0.78923   0.00000  Uiso   1.00
H403   H     0.19625   0.64500   0.57903   0.00000  Uiso   1.00
H404   H     0.71724   0.56299   0.49012   0.00000  Uiso   1.00
H405   H     0.49991   0.57920   0.92933   0.00000  Uiso   1.00
O406   O     0.13279   0.75203   0.55935   0.00000  Uiso   1.00
O407   O     0.81630   0.64444   0.44271   0.00000  Uiso   1.00
O408   O     0.53118   0.66571   0.01895   0.00000  Uiso   1.00
N409   N     0.24840   0.78278   0.59628   0.00000  Uiso   1.00
N410   N     0.73547   0.70611   0.51314   0.00000  Uiso   1.00
N411   N     0.53232   0.72127   0.92377   0.00000  Uiso   1.00
N412   N     0.22442   0.68413   0.58819   0.00000  Uiso   1.00
N413   N     0.71150   0.60746   0.50505   0.00000  Uiso   1.00
N414   N     0.50835   0.62261   0.91568   0.00000  Uiso   1.00
C415   C     0.31957   0.22853   0.92808   0.00000  Uiso   1.00
C416   C     0.27161   0.19508   0.87909   0.00000  Uiso   1.00
C417   C     0.20198   0.21439   0.86158   0.00000  Uiso   1.00
C418   C     0.16709   0.17733   0.81590   0.00000  Uiso   1.00
C419   C     0.08749   0.13365   0.74398   0.00000  Uiso   1.00
C420   C     0.33347   0.18254   0.97998   0.00000  Uiso   1.00
C421   C     0.31587   0.19132   0.04731   0.00000  Uiso   1.00
C422   C     0.33306   0.14370   0.08656   0.00000  Uiso   1.00
C423   C     0.34956   0.08058   0.17129   0.00000  Uiso   1.00
C424   C     0.39602   0.23933   0.89093   0.00000  Uiso   1.00
C425   C     0.43102   0.29585   0.88338   0.00000  Uiso   1.00
C426   C     0.50088   0.29605   0.84767   0.00000  Uiso   1.00
C427   C     0.61449   0.32109   0.79413   0.00000  Uiso   1.00
C428   C     0.38143   0.12837   0.87810   0.00000  Uiso   1.00
C429   C     0.30521   0.14067   0.85194   0.00000  Uiso   1.00
C430   C     0.27042   0.10357   0.80628   0.00000  Uiso   1.00
C431   C     0.20075   0.12283   0.78870   0.00000  Uiso   1.00
C432   C     0.36707   0.12814   0.95284   0.00000  Uiso   1.00
C433   C     0.38430   0.08050   0.99201   0.00000  Uiso   1.00
C434   C     0.36672   0.08920   0.05937   0.00000  Uiso   1.00
C435   C     0.42962   0.18492   0.86378   0.00000  Uiso   1.00
C436   C     0.49945   0.18503   0.82808   0.00000  Uiso   1.00
C437   C     0.53454   0.24154   0.82048   0.00000  Uiso   1.00
H438   H     0.29342   0.27089   0.94922   0.00000  Uiso   1.00
H439   H     0.17599   0.25649   0.88260   0.00000  Uiso   1.00
H440   H     0.28987   0.23343   0.06830   0.00000  Uiso   1.00
H441   H     0.40500   0.33794   0.90440   0.00000  Uiso   1.00
H442   H     0.06061   0.21653   0.79678   0.00000  Uiso   1.00
H443   H     0.30075   0.16791   0.18834   0.00000  Uiso   1.00
H444   H     0.54353   0.38830   0.84273   0.00000  Uiso   1.00
H445   H     0.40759   0.08601   0.85697   0.00000  Uiso   1.00
H446   H     0.29643   0.06147   0.78528   0.00000  Uiso   1.00
H447   H     0.41031   0.03841   0.97098   0.00000  Uiso   1.00
H448   H     0.52544   0.14292   0.80708   0.00000  Uiso   1.00
H449   H     0.15836   0.05825   0.71780   0.00000  Uiso   1.00
H450   H     0.39851   0.00962   0.10936   0.00000  Uiso   1.00
H451   H     0.64128   0.23001   0.76374   0.00000  Uiso   1.00
O452   O     0.03429   0.12458   0.71181   0.00000  Uiso   1.00
O453   O     0.34936   0.06078   0.22553   0.00000  Uiso   1.00
O454   O     0.66787   0.34993   0.77208   0.00000  Uiso   1.00
N455   N     0.09888   0.18266   0.78802   0.00000  Uiso   1.00
N456   N     0.32339   0.13719   0.15411   0.00000  Uiso   1.00
N457   N     0.55037   0.34324   0.83100   0.00000  Uiso   1.00
N458   N     0.15148   0.09748   0.74552   0.00000  Uiso   1.00
N459   N     0.37599   0.05201   0.11160   0.00000  Uiso   1.00
N460   N     0.60297   0.25806   0.78850   0.00000  Uiso   1.00
C461   C     0.23424   0.95359   0.31676   0.00000  Uiso   1.00
C462   C     0.21660   0.89043   0.28653   0.00000  Uiso   1.00
C463   C     0.26184   0.85787   0.23844   0.00000  Uiso   1.00
C464   C     0.23573   0.80086   0.21723   0.00000  Uiso   1.00
C465   C     0.21880   0.70639   0.16632   0.00000  Uiso   1.00
C466   C     0.16740   0.99446   0.30564   0.00000  Uiso   1.00
C467   C     0.17128   0.04936   0.27362   0.00000  Uiso   1.00
C468   C     0.10375   0.07992   0.26851   0.00000  Uiso   1.00
C469   C     0.01045   0.14698   0.24731   0.00000  Uiso   1.00
C470   C     0.23179   0.94617   0.39091   0.00000  Uiso   1.00
C471   C     0.28980   0.96048   0.43058   0.00000  Uiso   1.00
C472   C     0.27647   0.95040   0.49726   0.00000  Uiso   1.00
C473   C     0.28314   0.94247   0.60845   0.00000  Uiso   1.00
C474   C     0.10741   0.91024   0.36464   0.00000  Uiso   1.00
C475   C     0.14771   0.86689   0.31254   0.00000  Uiso   1.00
C476   C     0.12152   0.80991   0.29141   0.00000  Uiso   1.00
C477   C     0.16672   0.77727   0.24328   0.00000  Uiso   1.00
C478   C     0.09852   0.97091   0.33165   0.00000  Uiso   1.00
C479   C     0.03096   0.00140   0.32659   0.00000  Uiso   1.00
C480   C     0.03474   0.05633   0.29456   0.00000  Uiso   1.00
C481   C     0.16290   0.92262   0.41691   0.00000  Uiso   1.00
C482   C     0.14948   0.91251   0.48355   0.00000  Uiso   1.00
C483   C     0.20746   0.92681   0.52332   0.00000  Uiso   1.00
H484   H     0.28787   0.97192   0.29651   0.00000  Uiso   1.00
H485   H     0.31515   0.87611   0.21832   0.00000  Uiso   1.00
H486   H     0.22460   0.06758   0.25351   0.00000  Uiso   1.00
H487   H     0.34310   0.97870   0.41044   0.00000  Uiso   1.00
H488   H     0.31500   0.75952   0.14308   0.00000  Uiso   1.00
H489   H     0.12409   0.16324   0.21729   0.00000  Uiso   1.00
H490   H     0.37396   0.97584   0.54822   0.00000  Uiso   1.00
H491   H     0.05377   0.89190   0.38488   0.00000  Uiso   1.00
H492   H     0.06821   0.79170   0.31154   0.00000  Uiso   1.00
H493   H     0.97766   0.98316   0.34672   0.00000  Uiso   1.00
H494   H     0.09616   0.89429   0.50366   0.00000  Uiso   1.00
H495   H     0.11457   0.69100   0.21873   0.00000  Uiso   1.00
H496   H     0.92366   0.09473   0.29295   0.00000  Uiso   1.00
H497   H     0.17353   0.90732   0.62387   0.00000  Uiso   1.00
O498   O     0.22849   0.66080   0.13104   0.00000  Uiso   1.00
O499   O     0.97803   0.19047   0.22842   0.00000  Uiso   1.00
O500   O     0.30586   0.94460   0.66259   0.00000  Uiso   1.00
N501   N     0.26585   0.75714   0.17096   0.00000  Uiso   1.00
N502   N     0.08736   0.13459   0.24033   0.00000  Uiso   1.00
N503   N     0.32097   0.95940   0.54972   0.00000  Uiso   1.00
N504   N     0.15801   0.72027   0.21167   0.00000  Uiso   1.00
N505   N     0.97951   0.09772   0.28104   0.00000  Uiso   1.00
N506   N     0.21312   0.92253   0.59044   0.00000  Uiso   1.00
C507   C     0.91804   0.41725   0.99083   0.00000  Uiso   1.00
C508   C     0.89184   0.36847   0.94176   0.00000  Uiso   1.00
C509   C     0.83194   0.32838   0.95324   0.00000  Uiso   1.00
C510   C     0.81699   0.28713   0.90204   0.00000  Uiso   1.00
C511   C     0.76973   0.21153   0.83505   0.00000  Uiso   1.00
C512   C     0.00113   0.40387   0.99755   0.00000  Uiso   1.00
C513   C     0.03311   0.39354   0.05595   0.00000  Uiso   1.00
C514   C     0.11016   0.38210   0.05172   0.00000  Uiso   1.00
C515   C     0.23256   0.36150   0.07136   0.00000  Uiso   1.00
C516   C     0.91597   0.47808   0.95689   0.00000  Uiso   1.00
C517   C     0.87637   0.53015   0.98110   0.00000  Uiso   1.00
C518   C     0.88173   0.58119   0.94264   0.00000  Uiso   1.00
C519   C     0.87191   0.67581   0.89914   0.00000  Uiso   1.00
C520   C     0.99801   0.41530   0.87950   0.00000  Uiso   1.00
C521   C     0.93528   0.36741   0.88129   0.00000  Uiso   1.00
C522   C     0.92041   0.32622   0.83006   0.00000  Uiso   1.00
C523   C     0.86050   0.28607   0.84146   0.00000  Uiso   1.00
C524   C     0.04456   0.40281   0.93708   0.00000  Uiso   1.00
C525   C     0.12158   0.39139   0.93277   0.00000  Uiso   1.00
C526   C     0.15367   0.38104   0.99114   0.00000  Uiso   1.00
C527   C     0.95940   0.47702   0.89641   0.00000  Uiso   1.00
C528   C     0.96483   0.52799   0.85791   0.00000  Uiso   1.00
C529   C     0.92524   0.58013   0.88206   0.00000  Uiso   1.00
H530   H     0.88424   0.41808   0.03792   0.00000  Uiso   1.00
H531   H     0.79835   0.32921   0.00005   0.00000  Uiso   1.00
H532   H     0.99949   0.39437   0.10274   0.00000  Uiso   1.00
H533   H     0.84276   0.53095   0.02790   0.00000  Uiso   1.00
H534   H     0.72230   0.23020   0.93140   0.00000  Uiso   1.00
H535   H     0.14641   0.36762   0.14794   0.00000  Uiso   1.00
H536   H     0.81593   0.65563   0.99012   0.00000  Uiso   1.00
H537   H     0.03182   0.41448   0.83241   0.00000  Uiso   1.00
H538   H     0.95403   0.32541   0.78326   0.00000  Uiso   1.00
H539   H     0.15517   0.39057   0.88596   0.00000  Uiso   1.00
H540   H     0.99845   0.52716   0.81112   0.00000  Uiso   1.00
H541   H     0.84866   0.22711   0.75545   0.00000  Uiso   1.00
H542   H     0.27278   0.36454   0.97199   0.00000  Uiso   1.00
H543   H     0.94229   0.65255   0.81418   0.00000  Uiso   1.00
O544   O     0.73166   0.17011   0.81481   0.00000  Uiso   1.00
O545   O     0.28808   0.35042   0.09890   0.00000  Uiso   1.00
O546   O     0.85449   0.72828   0.89185   0.00000  Uiso   1.00
N547   N     0.76271   0.24170   0.89673   0.00000  Uiso   1.00
N548   N     0.15922   0.37017   0.09918   0.00000  Uiso   1.00
N549   N     0.85027   0.63945   0.95165   0.00000  Uiso   1.00
N550   N     0.83070   0.24004   0.80205   0.00000  Uiso   1.00
N551   N     0.22722   0.36852   0.00451   0.00000  Uiso   1.00
N552   N     0.91826   0.63779   0.85697   0.00000  Uiso   1.00
