data_job_02546
_audit_creation_date              2018-12-19
_audit_creation_method            'Materials Studio'
_symmetry_space_group_name_H-M    'P1'
_symmetry_Int_Tables_number       1
_symmetry_cell_setting            triclinic
loop_
_symmetry_equiv_pos_as_xyz
  x,y,z
_cell_length_a                    12.1258
_cell_length_b                    12.7684
_cell_length_c                    15.5130
_cell_angle_alpha                 95.5331
_cell_angle_beta                  78.2239
_cell_angle_gamma                 72.6955
loop_
_atom_site_label
_atom_site_type_symbol
_atom_site_fract_x
_atom_site_fract_y
_atom_site_fract_z
_atom_site_U_iso_or_equiv
_atom_site_adp_type
_atom_site_occupancy
C1     C     0.07609   0.80069   0.66979   0.00000  Uiso   1.00
C2     C     0.03166   0.77904   0.58685   0.00000  Uiso   1.00
C3     C     0.92498   0.84134   0.57078   0.00000  Uiso   1.00
C4     C     0.90055   0.80801   0.49090   0.00000  Uiso   1.00
C5     C     0.81943   0.78841   0.37148   0.00000  Uiso   1.00
C6     C     0.09892   0.69322   0.70869   0.00000  Uiso   1.00
C7     C     0.04881   0.68337   0.79506   0.00000  Uiso   1.00
C8     C     0.08102   0.57779   0.81774   0.00000  Uiso   1.00
C9     C     0.10440   0.42497   0.88751   0.00000  Uiso   1.00
C10    C     0.19797   0.81332   0.63621   0.00000  Uiso   1.00
C11    C     0.23116   0.90443   0.66167   0.00000  Uiso   1.00
C12    C     0.34678   0.89996   0.62334   0.00000  Uiso   1.00
C13    C     0.52395   0.93361   0.58058   0.00000  Uiso   1.00
C14    C     0.22242   0.63072   0.55650   0.00000  Uiso   1.00
C15    C     0.11114   0.68672   0.52531   0.00000  Uiso   1.00
C16    C     0.08687   0.65329   0.44543   0.00000  Uiso   1.00
C17    C     0.98017   0.71553   0.42924   0.00000  Uiso   1.00
C18    C     0.17839   0.60090   0.64715   0.00000  Uiso   1.00
C19    C     0.21070   0.49532   0.66972   0.00000  Uiso   1.00
C20    C     0.16064   0.48531   0.75610   0.00000  Uiso   1.00
C21    C     0.27745   0.72100   0.57467   0.00000  Uiso   1.00
C22    C     0.39304   0.71639   0.53631   0.00000  Uiso   1.00
C23    C     0.42640   0.80748   0.56170   0.00000  Uiso   1.00
H24    H     0.01422   0.87255   0.71771   0.00000  Uiso   1.00
H25    H     0.86349   0.91277   0.61842   0.00000  Uiso   1.00
H26    H     0.98731   0.75482   0.84267   0.00000  Uiso   1.00
H27    H     0.16963   0.97586   0.70929   0.00000  Uiso   1.00
H28    H     0.73141   0.91662   0.48122   0.00000  Uiso   1.00
H29    H     0.99253   0.58359   0.95407   0.00000  Uiso   1.00
H30    H     0.37698   0.04968   0.67281   0.00000  Uiso   1.00
H31    H     0.28430   0.55885   0.50859   0.00000  Uiso   1.00
H32    H     0.14839   0.58185   0.39782   0.00000  Uiso   1.00
H33    H     0.27221   0.42390   0.62208   0.00000  Uiso   1.00
H34    H     0.45452   0.64494   0.48869   0.00000  Uiso   1.00
H35    H     0.96264   0.64803   0.30218   0.00000  Uiso   1.00
H36    H     0.22377   0.31500   0.77504   0.00000  Uiso   1.00
H37    H     0.60821   0.78109   0.49377   0.00000  Uiso   1.00
O38    O     0.75273   0.80309   0.32262   0.00000  Uiso   1.00
O39    O     0.09533   0.36618   0.94299   0.00000  Uiso   1.00
O40    O     0.59971   0.97768   0.57398   0.00000  Uiso   1.00
N41    N     0.80449   0.85026   0.45428   0.00000  Uiso   1.00
N42    N     0.04861   0.53890   0.89636   0.00000  Uiso   1.00
N43    N     0.40805   0.97464   0.63342   0.00000  Uiso   1.00
N44    N     0.92892   0.70574   0.35793   0.00000  Uiso   1.00
N45    N     0.17303   0.39437   0.80002   0.00000  Uiso   1.00
N46    N     0.53247   0.83012   0.53708   0.00000  Uiso   1.00
C47    C     0.92391   0.19931   0.33021   0.00000  Uiso   1.00
C48    C     0.96834   0.22096   0.41315   0.00000  Uiso   1.00
C49    C     0.07502   0.15866   0.42922   0.00000  Uiso   1.00
C50    C     0.09945   0.19199   0.50910   0.00000  Uiso   1.00
C51    C     0.18057   0.21159   0.62852   0.00000  Uiso   1.00
C52    C     0.90108   0.30678   0.29131   0.00000  Uiso   1.00
C53    C     0.95119   0.31663   0.20494   0.00000  Uiso   1.00
C54    C     0.91898   0.42221   0.18226   0.00000  Uiso   1.00
C55    C     0.89560   0.57503   0.11249   0.00000  Uiso   1.00
C56    C     0.80203   0.18668   0.36379   0.00000  Uiso   1.00
C57    C     0.76884   0.09557   0.33833   0.00000  Uiso   1.00
C58    C     0.65322   0.10004   0.37666   0.00000  Uiso   1.00
C59    C     0.47605   0.06639   0.41942   0.00000  Uiso   1.00
C60    C     0.77758   0.36928   0.44350   0.00000  Uiso   1.00
C61    C     0.88886   0.31328   0.47469   0.00000  Uiso   1.00
C62    C     0.91313   0.34671   0.55457   0.00000  Uiso   1.00
C63    C     0.01983   0.28447   0.57076   0.00000  Uiso   1.00
C64    C     0.82161   0.39910   0.35285   0.00000  Uiso   1.00
C65    C     0.78930   0.50468   0.33028   0.00000  Uiso   1.00
C66    C     0.83936   0.51469   0.24390   0.00000  Uiso   1.00
C67    C     0.72255   0.27900   0.42533   0.00000  Uiso   1.00
C68    C     0.60696   0.28361   0.46369   0.00000  Uiso   1.00
C69    C     0.57360   0.19252   0.43830   0.00000  Uiso   1.00
H70    H     0.98578   0.12745   0.28229   0.00000  Uiso   1.00
H71    H     0.13651   0.08723   0.38158   0.00000  Uiso   1.00
H72    H     0.01269   0.24518   0.15733   0.00000  Uiso   1.00
H73    H     0.83037   0.02414   0.29071   0.00000  Uiso   1.00
H74    H     0.26859   0.08338   0.51878   0.00000  Uiso   1.00
H75    H     0.00747   0.41641   0.04593   0.00000  Uiso   1.00
H76    H     0.62302   0.95032   0.32719   0.00000  Uiso   1.00
H77    H     0.71570   0.44115   0.49141   0.00000  Uiso   1.00
H78    H     0.85161   0.41815   0.60218   0.00000  Uiso   1.00
H79    H     0.72779   0.57610   0.37792   0.00000  Uiso   1.00
H80    H     0.54548   0.35506   0.51131   0.00000  Uiso   1.00
H81    H     0.03736   0.35197   0.69782   0.00000  Uiso   1.00
H82    H     0.77623   0.68500   0.22496   0.00000  Uiso   1.00
H83    H     0.39179   0.21891   0.50623   0.00000  Uiso   1.00
O84    O     0.24727   0.19691   0.67738   0.00000  Uiso   1.00
O85    O     0.90467   0.63382   0.05701   0.00000  Uiso   1.00
O86    O     0.40029   0.02232   0.42602   0.00000  Uiso   1.00
N87    N     0.19551   0.14974   0.54572   0.00000  Uiso   1.00
N88    N     0.95139   0.46110   0.10364   0.00000  Uiso   1.00
N89    N     0.59195   0.02536   0.36658   0.00000  Uiso   1.00
N90    N     0.07108   0.29426   0.64207   0.00000  Uiso   1.00
N91    N     0.82697   0.60563   0.19998   0.00000  Uiso   1.00
N92    N     0.46753   0.16988   0.46292   0.00000  Uiso   1.00
