data_job_01355
_audit_creation_date              2018-12-19
_audit_creation_method            'Materials Studio'
_symmetry_space_group_name_H-M    'P1'
_symmetry_Int_Tables_number       1
_symmetry_cell_setting            triclinic
loop_
_symmetry_equiv_pos_as_xyz
  x,y,z
_cell_length_a                    13.1341
_cell_length_b                    17.8878
_cell_length_c                    24.2246
_cell_angle_alpha                 90.0000
_cell_angle_beta                  90.0000
_cell_angle_gamma                 90.0000
loop_
_atom_site_label
_atom_site_type_symbol
_atom_site_fract_x
_atom_site_fract_y
_atom_site_fract_z
_atom_site_U_iso_or_equiv
_atom_site_adp_type
_atom_site_occupancy
C1     C     0.84059   0.48699   0.36175   0.00000  Uiso   1.00
C2     C     0.80580   0.42968   0.31914   0.00000  Uiso   1.00
C3     C     0.85669   0.41163   0.27074   0.00000  Uiso   1.00
C4     C     0.81237   0.35774   0.23722   0.00000  Uiso   1.00
C5     C     0.77230   0.27403   0.16884   0.00000  Uiso   1.00
C6     C     0.75310   0.54244   0.36777   0.00000  Uiso   1.00
C7     C     0.75970   0.61921   0.36026   0.00000  Uiso   1.00
C8     C     0.67102   0.66024   0.36768   0.00000  Uiso   1.00
C9     C     0.54916   0.75161   0.37484   0.00000  Uiso   1.00
C10    C     0.84690   0.44526   0.41654   0.00000  Uiso   1.00
C11    C     0.93235   0.44033   0.45004   0.00000  Uiso   1.00
C12    C     0.92263   0.39956   0.49853   0.00000  Uiso   1.00
C13    C     0.94640   0.34004   0.58141   0.00000  Uiso   1.00
C14    C     0.67138   0.42338   0.38830   0.00000  Uiso   1.00
C15    C     0.71389   0.39513   0.33356   0.00000  Uiso   1.00
C16    C     0.66947   0.34125   0.30010   0.00000  Uiso   1.00
C17    C     0.72029   0.32312   0.25166   0.00000  Uiso   1.00
C18    C     0.66120   0.50789   0.38219   0.00000  Uiso   1.00
C19    C     0.57248   0.54882   0.38962   0.00000  Uiso   1.00
C20    C     0.57894   0.62563   0.38212   0.00000  Uiso   1.00
C21    C     0.75499   0.41071   0.43096   0.00000  Uiso   1.00
C22    C     0.74513   0.36994   0.47940   0.00000  Uiso   1.00
C23    C     0.83055   0.36495   0.51297   0.00000  Uiso   1.00
H24    H     0.91214   0.51390   0.35053   0.00000  Uiso   1.00
H25    H     0.92781   0.43839   0.25959   0.00000  Uiso   1.00
H26    H     0.83084   0.64593   0.34911   0.00000  Uiso   1.00
H27    H     0.00346   0.46708   0.43887   0.00000  Uiso   1.00
H28    H     0.90463   0.33946   0.16512   0.00000  Uiso   1.00
H29    H     0.70017   0.77707   0.35388   0.00000  Uiso   1.00
H30    H     0.06418   0.39993   0.54317   0.00000  Uiso   1.00
H31    H     0.59982   0.39648   0.39952   0.00000  Uiso   1.00
H32    H     0.59835   0.31452   0.31127   0.00000  Uiso   1.00
H33    H     0.50137   0.52207   0.40078   0.00000  Uiso   1.00
H34    H     0.67400   0.34321   0.49055   0.00000  Uiso   1.00
H35    H     0.63723   0.23892   0.20706   0.00000  Uiso   1.00
H36    H     0.43276   0.67654   0.39583   0.00000  Uiso   1.00
H37    H     0.79677   0.29940   0.58511   0.00000  Uiso   1.00
O38    O     0.77558   0.23741   0.12714   0.00000  Uiso   1.00
O39    O     0.50734   0.81155   0.37480   0.00000  Uiso   1.00
O40    O     0.98491   0.31675   0.62314   0.00000  Uiso   1.00
N41    N     0.84191   0.32703   0.18711   0.00000  Uiso   1.00
N42    N     0.65074   0.73618   0.36358   0.00000  Uiso   1.00
N43    N     0.99105   0.38360   0.54056   0.00000  Uiso   1.00
N44    N     0.69802   0.27293   0.20968   0.00000  Uiso   1.00
N45    N     0.50685   0.68208   0.38615   0.00000  Uiso   1.00
N46    N     0.84717   0.32950   0.56313   0.00000  Uiso   1.00
C47    C     0.65941   0.01301   0.86175   0.00000  Uiso   1.00
C48    C     0.69420   0.07032   0.81914   0.00000  Uiso   1.00
C49    C     0.64331   0.08837   0.77074   0.00000  Uiso   1.00
C50    C     0.68763   0.14226   0.73722   0.00000  Uiso   1.00
C51    C     0.72770   0.22597   0.66884   0.00000  Uiso   1.00
C52    C     0.74690   0.95756   0.86777   0.00000  Uiso   1.00
C53    C     0.74030   0.88079   0.86026   0.00000  Uiso   1.00
C54    C     0.82898   0.83976   0.86768   0.00000  Uiso   1.00
C55    C     0.95084   0.74839   0.87484   0.00000  Uiso   1.00
C56    C     0.65310   0.05474   0.91654   0.00000  Uiso   1.00
C57    C     0.56765   0.05967   0.95004   0.00000  Uiso   1.00
C58    C     0.57737   0.10044   0.99853   0.00000  Uiso   1.00
C59    C     0.55360   0.15996   0.08141   0.00000  Uiso   1.00
C60    C     0.82862   0.07662   0.88830   0.00000  Uiso   1.00
C61    C     0.78611   0.10487   0.83356   0.00000  Uiso   1.00
C62    C     0.83053   0.15875   0.80010   0.00000  Uiso   1.00
C63    C     0.77971   0.17688   0.75166   0.00000  Uiso   1.00
C64    C     0.83880   0.99211   0.88219   0.00000  Uiso   1.00
C65    C     0.92752   0.95118   0.88962   0.00000  Uiso   1.00
C66    C     0.92106   0.87437   0.88212   0.00000  Uiso   1.00
C67    C     0.74501   0.08929   0.93096   0.00000  Uiso   1.00
C68    C     0.75487   0.13006   0.97940   0.00000  Uiso   1.00
C69    C     0.66945   0.13505   0.01297   0.00000  Uiso   1.00
H70    H     0.58786   0.98610   0.85053   0.00000  Uiso   1.00
H71    H     0.57219   0.06161   0.75959   0.00000  Uiso   1.00
H72    H     0.66916   0.85407   0.84911   0.00000  Uiso   1.00
H73    H     0.49654   0.03292   0.93887   0.00000  Uiso   1.00
H74    H     0.59537   0.16054   0.66512   0.00000  Uiso   1.00
H75    H     0.79983   0.72293   0.85388   0.00000  Uiso   1.00
H76    H     0.43582   0.10007   0.04317   0.00000  Uiso   1.00
H77    H     0.90018   0.10352   0.89952   0.00000  Uiso   1.00
H78    H     0.90165   0.18548   0.81127   0.00000  Uiso   1.00
H79    H     0.99863   0.97793   0.90078   0.00000  Uiso   1.00
H80    H     0.82600   0.15679   0.99055   0.00000  Uiso   1.00
H81    H     0.86277   0.26108   0.70706   0.00000  Uiso   1.00
H82    H     0.06724   0.82346   0.89583   0.00000  Uiso   1.00
H83    H     0.70323   0.20060   0.08511   0.00000  Uiso   1.00
O84    O     0.72442   0.26259   0.62714   0.00000  Uiso   1.00
O85    O     0.99266   0.68845   0.87480   0.00000  Uiso   1.00
O86    O     0.51509   0.18325   0.12314   0.00000  Uiso   1.00
N87    N     0.65809   0.17297   0.68711   0.00000  Uiso   1.00
N88    N     0.84926   0.76382   0.86358   0.00000  Uiso   1.00
N89    N     0.50895   0.11640   0.04056   0.00000  Uiso   1.00
N90    N     0.80198   0.22707   0.70968   0.00000  Uiso   1.00
N91    N     0.99315   0.81792   0.88615   0.00000  Uiso   1.00
N92    N     0.65283   0.17050   0.06313   0.00000  Uiso   1.00
C93    C     0.15941   0.48699   0.13825   0.00000  Uiso   1.00
C94    C     0.19420   0.42968   0.18086   0.00000  Uiso   1.00
C95    C     0.14331   0.41163   0.22926   0.00000  Uiso   1.00
C96    C     0.18763   0.35774   0.26278   0.00000  Uiso   1.00
C97    C     0.22770   0.27403   0.33116   0.00000  Uiso   1.00
C98    C     0.24690   0.54244   0.13223   0.00000  Uiso   1.00
C99    C     0.24030   0.61921   0.13974   0.00000  Uiso   1.00
C100   C     0.32898   0.66024   0.13232   0.00000  Uiso   1.00
C101   C     0.45084   0.75161   0.12516   0.00000  Uiso   1.00
C102   C     0.15310   0.44526   0.08346   0.00000  Uiso   1.00
C103   C     0.06765   0.44033   0.04996   0.00000  Uiso   1.00
C104   C     0.07737   0.39956   0.00147   0.00000  Uiso   1.00
C105   C     0.05360   0.34004   0.91859   0.00000  Uiso   1.00
C106   C     0.32862   0.42338   0.11170   0.00000  Uiso   1.00
C107   C     0.28611   0.39513   0.16644   0.00000  Uiso   1.00
C108   C     0.33053   0.34125   0.19990   0.00000  Uiso   1.00
C109   C     0.27971   0.32312   0.24834   0.00000  Uiso   1.00
C110   C     0.33880   0.50789   0.11781   0.00000  Uiso   1.00
C111   C     0.42752   0.54882   0.11038   0.00000  Uiso   1.00
C112   C     0.42106   0.62563   0.11788   0.00000  Uiso   1.00
C113   C     0.24501   0.41071   0.06904   0.00000  Uiso   1.00
C114   C     0.25487   0.36994   0.02060   0.00000  Uiso   1.00
C115   C     0.16945   0.36495   0.98703   0.00000  Uiso   1.00
H116   H     0.08786   0.51390   0.14947   0.00000  Uiso   1.00
H117   H     0.07219   0.43839   0.24041   0.00000  Uiso   1.00
H118   H     0.16916   0.64593   0.15089   0.00000  Uiso   1.00
H119   H     0.99654   0.46708   0.06113   0.00000  Uiso   1.00
H120   H     0.09537   0.33946   0.33488   0.00000  Uiso   1.00
H121   H     0.29983   0.77707   0.14612   0.00000  Uiso   1.00
H122   H     0.93582   0.39993   0.95683   0.00000  Uiso   1.00
H123   H     0.40018   0.39648   0.10048   0.00000  Uiso   1.00
H124   H     0.40165   0.31452   0.18873   0.00000  Uiso   1.00
H125   H     0.49863   0.52207   0.09922   0.00000  Uiso   1.00
H126   H     0.32600   0.34321   0.00945   0.00000  Uiso   1.00
H127   H     0.36277   0.23892   0.29294   0.00000  Uiso   1.00
H128   H     0.56724   0.67654   0.10417   0.00000  Uiso   1.00
H129   H     0.20323   0.29940   0.91489   0.00000  Uiso   1.00
O130   O     0.22442   0.23741   0.37286   0.00000  Uiso   1.00
O131   O     0.49266   0.81155   0.12520   0.00000  Uiso   1.00
O132   O     0.01509   0.31675   0.87686   0.00000  Uiso   1.00
N133   N     0.15809   0.32703   0.31289   0.00000  Uiso   1.00
N134   N     0.34926   0.73618   0.13642   0.00000  Uiso   1.00
N135   N     0.00895   0.38360   0.95944   0.00000  Uiso   1.00
N136   N     0.30198   0.27293   0.29032   0.00000  Uiso   1.00
N137   N     0.49315   0.68208   0.11385   0.00000  Uiso   1.00
N138   N     0.15283   0.32950   0.93687   0.00000  Uiso   1.00
C139   C     0.34059   0.01301   0.63825   0.00000  Uiso   1.00
C140   C     0.30580   0.07032   0.68086   0.00000  Uiso   1.00
C141   C     0.35669   0.08837   0.72926   0.00000  Uiso   1.00
C142   C     0.31237   0.14226   0.76278   0.00000  Uiso   1.00
C143   C     0.27230   0.22597   0.83116   0.00000  Uiso   1.00
C144   C     0.25310   0.95756   0.63223   0.00000  Uiso   1.00
C145   C     0.25970   0.88079   0.63974   0.00000  Uiso   1.00
C146   C     0.17102   0.83976   0.63232   0.00000  Uiso   1.00
C147   C     0.04916   0.74839   0.62516   0.00000  Uiso   1.00
C148   C     0.34690   0.05474   0.58346   0.00000  Uiso   1.00
C149   C     0.43235   0.05967   0.54996   0.00000  Uiso   1.00
C150   C     0.42263   0.10044   0.50147   0.00000  Uiso   1.00
C151   C     0.44640   0.15996   0.41859   0.00000  Uiso   1.00
C152   C     0.17138   0.07662   0.61170   0.00000  Uiso   1.00
C153   C     0.21389   0.10487   0.66644   0.00000  Uiso   1.00
C154   C     0.16947   0.15875   0.69990   0.00000  Uiso   1.00
C155   C     0.22029   0.17688   0.74834   0.00000  Uiso   1.00
C156   C     0.16120   0.99211   0.61781   0.00000  Uiso   1.00
C157   C     0.07248   0.95118   0.61038   0.00000  Uiso   1.00
C158   C     0.07894   0.87437   0.61788   0.00000  Uiso   1.00
C159   C     0.25499   0.08929   0.56904   0.00000  Uiso   1.00
C160   C     0.24513   0.13006   0.52060   0.00000  Uiso   1.00
C161   C     0.33055   0.13505   0.48703   0.00000  Uiso   1.00
H162   H     0.41214   0.98610   0.64947   0.00000  Uiso   1.00
H163   H     0.42781   0.06161   0.74041   0.00000  Uiso   1.00
H164   H     0.33084   0.85407   0.65089   0.00000  Uiso   1.00
H165   H     0.50346   0.03292   0.56113   0.00000  Uiso   1.00
H166   H     0.40463   0.16054   0.83488   0.00000  Uiso   1.00
H167   H     0.20017   0.72293   0.64612   0.00000  Uiso   1.00
H168   H     0.56418   0.10007   0.45683   0.00000  Uiso   1.00
H169   H     0.09982   0.10352   0.60048   0.00000  Uiso   1.00
H170   H     0.09835   0.18548   0.68873   0.00000  Uiso   1.00
H171   H     0.00137   0.97793   0.59922   0.00000  Uiso   1.00
H172   H     0.17400   0.15679   0.50945   0.00000  Uiso   1.00
H173   H     0.13723   0.26108   0.79294   0.00000  Uiso   1.00
H174   H     0.93276   0.82346   0.60417   0.00000  Uiso   1.00
H175   H     0.29677   0.20060   0.41489   0.00000  Uiso   1.00
O176   O     0.27558   0.26259   0.87286   0.00000  Uiso   1.00
O177   O     0.00734   0.68845   0.62520   0.00000  Uiso   1.00
O178   O     0.48491   0.18325   0.37686   0.00000  Uiso   1.00
N179   N     0.34191   0.17297   0.81289   0.00000  Uiso   1.00
N180   N     0.15074   0.76382   0.63642   0.00000  Uiso   1.00
N181   N     0.49105   0.11640   0.45944   0.00000  Uiso   1.00
N182   N     0.19802   0.22707   0.79032   0.00000  Uiso   1.00
N183   N     0.00685   0.81792   0.61385   0.00000  Uiso   1.00
N184   N     0.34717   0.17050   0.43687   0.00000  Uiso   1.00
C185   C     0.15941   0.51301   0.63825   0.00000  Uiso   1.00
C186   C     0.19420   0.57032   0.68086   0.00000  Uiso   1.00
C187   C     0.14331   0.58837   0.72926   0.00000  Uiso   1.00
C188   C     0.18763   0.64226   0.76278   0.00000  Uiso   1.00
C189   C     0.22770   0.72597   0.83116   0.00000  Uiso   1.00
C190   C     0.24690   0.45756   0.63223   0.00000  Uiso   1.00
C191   C     0.24030   0.38079   0.63974   0.00000  Uiso   1.00
C192   C     0.32898   0.33976   0.63232   0.00000  Uiso   1.00
C193   C     0.45084   0.24839   0.62516   0.00000  Uiso   1.00
C194   C     0.15310   0.55474   0.58346   0.00000  Uiso   1.00
C195   C     0.06765   0.55967   0.54996   0.00000  Uiso   1.00
C196   C     0.07737   0.60044   0.50147   0.00000  Uiso   1.00
C197   C     0.05360   0.65996   0.41859   0.00000  Uiso   1.00
C198   C     0.32862   0.57662   0.61170   0.00000  Uiso   1.00
C199   C     0.28611   0.60487   0.66644   0.00000  Uiso   1.00
C200   C     0.33053   0.65875   0.69990   0.00000  Uiso   1.00
C201   C     0.27971   0.67688   0.74834   0.00000  Uiso   1.00
C202   C     0.33880   0.49211   0.61781   0.00000  Uiso   1.00
C203   C     0.42752   0.45118   0.61038   0.00000  Uiso   1.00
C204   C     0.42106   0.37437   0.61788   0.00000  Uiso   1.00
C205   C     0.24501   0.58929   0.56904   0.00000  Uiso   1.00
C206   C     0.25487   0.63006   0.52060   0.00000  Uiso   1.00
C207   C     0.16945   0.63505   0.48703   0.00000  Uiso   1.00
H208   H     0.08786   0.48610   0.64947   0.00000  Uiso   1.00
H209   H     0.07219   0.56161   0.74041   0.00000  Uiso   1.00
H210   H     0.16916   0.35407   0.65089   0.00000  Uiso   1.00
H211   H     0.99654   0.53292   0.56113   0.00000  Uiso   1.00
H212   H     0.09537   0.66054   0.83488   0.00000  Uiso   1.00
H213   H     0.29983   0.22293   0.64612   0.00000  Uiso   1.00
H214   H     0.93582   0.60007   0.45683   0.00000  Uiso   1.00
H215   H     0.40018   0.60352   0.60048   0.00000  Uiso   1.00
H216   H     0.40165   0.68548   0.68873   0.00000  Uiso   1.00
H217   H     0.49863   0.47793   0.59922   0.00000  Uiso   1.00
H218   H     0.32600   0.65679   0.50945   0.00000  Uiso   1.00
H219   H     0.36277   0.76108   0.79294   0.00000  Uiso   1.00
H220   H     0.56724   0.32346   0.60417   0.00000  Uiso   1.00
H221   H     0.20323   0.70060   0.41489   0.00000  Uiso   1.00
O222   O     0.22442   0.76259   0.87286   0.00000  Uiso   1.00
O223   O     0.49266   0.18845   0.62520   0.00000  Uiso   1.00
O224   O     0.01509   0.68325   0.37686   0.00000  Uiso   1.00
N225   N     0.15809   0.67297   0.81289   0.00000  Uiso   1.00
N226   N     0.34926   0.26382   0.63642   0.00000  Uiso   1.00
N227   N     0.00895   0.61640   0.45944   0.00000  Uiso   1.00
N228   N     0.30198   0.72707   0.79032   0.00000  Uiso   1.00
N229   N     0.49315   0.31792   0.61385   0.00000  Uiso   1.00
N230   N     0.15283   0.67050   0.43687   0.00000  Uiso   1.00
C231   C     0.34059   0.98699   0.13825   0.00000  Uiso   1.00
C232   C     0.30580   0.92968   0.18086   0.00000  Uiso   1.00
C233   C     0.35669   0.91163   0.22926   0.00000  Uiso   1.00
C234   C     0.31237   0.85774   0.26278   0.00000  Uiso   1.00
C235   C     0.27230   0.77403   0.33116   0.00000  Uiso   1.00
C236   C     0.25310   0.04244   0.13223   0.00000  Uiso   1.00
C237   C     0.25970   0.11921   0.13974   0.00000  Uiso   1.00
C238   C     0.17102   0.16024   0.13232   0.00000  Uiso   1.00
C239   C     0.04916   0.25161   0.12516   0.00000  Uiso   1.00
C240   C     0.34690   0.94526   0.08346   0.00000  Uiso   1.00
C241   C     0.43235   0.94033   0.04996   0.00000  Uiso   1.00
C242   C     0.42263   0.89956   0.00147   0.00000  Uiso   1.00
C243   C     0.44640   0.84004   0.91859   0.00000  Uiso   1.00
C244   C     0.17138   0.92338   0.11170   0.00000  Uiso   1.00
C245   C     0.21389   0.89513   0.16644   0.00000  Uiso   1.00
C246   C     0.16947   0.84125   0.19990   0.00000  Uiso   1.00
C247   C     0.22029   0.82312   0.24834   0.00000  Uiso   1.00
C248   C     0.16120   0.00789   0.11781   0.00000  Uiso   1.00
C249   C     0.07248   0.04882   0.11038   0.00000  Uiso   1.00
C250   C     0.07894   0.12563   0.11788   0.00000  Uiso   1.00
C251   C     0.25499   0.91071   0.06904   0.00000  Uiso   1.00
C252   C     0.24513   0.86994   0.02060   0.00000  Uiso   1.00
C253   C     0.33055   0.86495   0.98703   0.00000  Uiso   1.00
H254   H     0.41214   0.01390   0.14947   0.00000  Uiso   1.00
H255   H     0.42781   0.93839   0.24041   0.00000  Uiso   1.00
H256   H     0.33084   0.14593   0.15089   0.00000  Uiso   1.00
H257   H     0.50346   0.96708   0.06113   0.00000  Uiso   1.00
H258   H     0.40463   0.83946   0.33488   0.00000  Uiso   1.00
H259   H     0.20017   0.27707   0.14612   0.00000  Uiso   1.00
H260   H     0.56418   0.89993   0.95683   0.00000  Uiso   1.00
H261   H     0.09982   0.89648   0.10048   0.00000  Uiso   1.00
H262   H     0.09835   0.81452   0.18873   0.00000  Uiso   1.00
H263   H     0.00137   0.02207   0.09922   0.00000  Uiso   1.00
H264   H     0.17400   0.84321   0.00945   0.00000  Uiso   1.00
H265   H     0.13723   0.73892   0.29294   0.00000  Uiso   1.00
H266   H     0.93276   0.17654   0.10417   0.00000  Uiso   1.00
H267   H     0.29677   0.79940   0.91489   0.00000  Uiso   1.00
O268   O     0.27558   0.73741   0.37286   0.00000  Uiso   1.00
O269   O     0.00734   0.31155   0.12520   0.00000  Uiso   1.00
O270   O     0.48491   0.81675   0.87686   0.00000  Uiso   1.00
N271   N     0.34191   0.82703   0.31289   0.00000  Uiso   1.00
N272   N     0.15074   0.23618   0.13642   0.00000  Uiso   1.00
N273   N     0.49105   0.88360   0.95944   0.00000  Uiso   1.00
N274   N     0.19802   0.77293   0.29032   0.00000  Uiso   1.00
N275   N     0.00685   0.18208   0.11385   0.00000  Uiso   1.00
N276   N     0.34717   0.82950   0.93687   0.00000  Uiso   1.00
C277   C     0.84059   0.51301   0.86175   0.00000  Uiso   1.00
C278   C     0.80580   0.57032   0.81914   0.00000  Uiso   1.00
C279   C     0.85669   0.58837   0.77074   0.00000  Uiso   1.00
C280   C     0.81237   0.64226   0.73722   0.00000  Uiso   1.00
C281   C     0.77230   0.72597   0.66884   0.00000  Uiso   1.00
C282   C     0.75310   0.45756   0.86777   0.00000  Uiso   1.00
C283   C     0.75970   0.38079   0.86026   0.00000  Uiso   1.00
C284   C     0.67102   0.33976   0.86768   0.00000  Uiso   1.00
C285   C     0.54916   0.24839   0.87484   0.00000  Uiso   1.00
C286   C     0.84690   0.55474   0.91654   0.00000  Uiso   1.00
C287   C     0.93235   0.55967   0.95004   0.00000  Uiso   1.00
C288   C     0.92263   0.60044   0.99853   0.00000  Uiso   1.00
C289   C     0.94640   0.65996   0.08141   0.00000  Uiso   1.00
C290   C     0.67138   0.57662   0.88830   0.00000  Uiso   1.00
C291   C     0.71389   0.60487   0.83356   0.00000  Uiso   1.00
C292   C     0.66947   0.65875   0.80010   0.00000  Uiso   1.00
C293   C     0.72029   0.67688   0.75166   0.00000  Uiso   1.00
C294   C     0.66120   0.49211   0.88219   0.00000  Uiso   1.00
C295   C     0.57248   0.45118   0.88962   0.00000  Uiso   1.00
C296   C     0.57894   0.37437   0.88212   0.00000  Uiso   1.00
C297   C     0.75499   0.58929   0.93096   0.00000  Uiso   1.00
C298   C     0.74513   0.63006   0.97940   0.00000  Uiso   1.00
C299   C     0.83055   0.63505   0.01297   0.00000  Uiso   1.00
H300   H     0.91214   0.48610   0.85053   0.00000  Uiso   1.00
H301   H     0.92781   0.56161   0.75959   0.00000  Uiso   1.00
H302   H     0.83084   0.35407   0.84911   0.00000  Uiso   1.00
H303   H     0.00346   0.53292   0.93887   0.00000  Uiso   1.00
H304   H     0.90463   0.66054   0.66512   0.00000  Uiso   1.00
H305   H     0.70017   0.22293   0.85388   0.00000  Uiso   1.00
H306   H     0.06418   0.60007   0.04317   0.00000  Uiso   1.00
H307   H     0.59982   0.60352   0.89952   0.00000  Uiso   1.00
H308   H     0.59835   0.68548   0.81127   0.00000  Uiso   1.00
H309   H     0.50137   0.47793   0.90078   0.00000  Uiso   1.00
H310   H     0.67400   0.65679   0.99055   0.00000  Uiso   1.00
H311   H     0.63723   0.76108   0.70706   0.00000  Uiso   1.00
H312   H     0.43276   0.32346   0.89583   0.00000  Uiso   1.00
H313   H     0.79677   0.70060   0.08511   0.00000  Uiso   1.00
O314   O     0.77558   0.76259   0.62714   0.00000  Uiso   1.00
O315   O     0.50734   0.18845   0.87480   0.00000  Uiso   1.00
O316   O     0.98491   0.68325   0.12314   0.00000  Uiso   1.00
N317   N     0.84191   0.67297   0.68711   0.00000  Uiso   1.00
N318   N     0.65074   0.26382   0.86358   0.00000  Uiso   1.00
N319   N     0.99105   0.61640   0.04056   0.00000  Uiso   1.00
N320   N     0.69802   0.72707   0.70968   0.00000  Uiso   1.00
N321   N     0.50685   0.31792   0.88615   0.00000  Uiso   1.00
N322   N     0.84717   0.67050   0.06313   0.00000  Uiso   1.00
C323   C     0.65941   0.98699   0.36175   0.00000  Uiso   1.00
C324   C     0.69420   0.92968   0.31914   0.00000  Uiso   1.00
C325   C     0.64331   0.91163   0.27074   0.00000  Uiso   1.00
C326   C     0.68763   0.85774   0.23722   0.00000  Uiso   1.00
C327   C     0.72770   0.77403   0.16884   0.00000  Uiso   1.00
C328   C     0.74690   0.04244   0.36777   0.00000  Uiso   1.00
C329   C     0.74030   0.11921   0.36026   0.00000  Uiso   1.00
C330   C     0.82898   0.16024   0.36768   0.00000  Uiso   1.00
C331   C     0.95084   0.25161   0.37484   0.00000  Uiso   1.00
C332   C     0.65310   0.94526   0.41654   0.00000  Uiso   1.00
C333   C     0.56765   0.94033   0.45004   0.00000  Uiso   1.00
C334   C     0.57737   0.89956   0.49853   0.00000  Uiso   1.00
C335   C     0.55360   0.84004   0.58141   0.00000  Uiso   1.00
C336   C     0.82862   0.92338   0.38830   0.00000  Uiso   1.00
C337   C     0.78611   0.89513   0.33356   0.00000  Uiso   1.00
C338   C     0.83053   0.84125   0.30010   0.00000  Uiso   1.00
C339   C     0.77971   0.82312   0.25166   0.00000  Uiso   1.00
C340   C     0.83880   0.00789   0.38219   0.00000  Uiso   1.00
C341   C     0.92752   0.04882   0.38962   0.00000  Uiso   1.00
C342   C     0.92106   0.12563   0.38212   0.00000  Uiso   1.00
C343   C     0.74501   0.91071   0.43096   0.00000  Uiso   1.00
C344   C     0.75487   0.86994   0.47940   0.00000  Uiso   1.00
C345   C     0.66945   0.86495   0.51297   0.00000  Uiso   1.00
H346   H     0.58786   0.01390   0.35053   0.00000  Uiso   1.00
H347   H     0.57219   0.93839   0.25959   0.00000  Uiso   1.00
H348   H     0.66916   0.14593   0.34911   0.00000  Uiso   1.00
H349   H     0.49654   0.96708   0.43887   0.00000  Uiso   1.00
H350   H     0.59537   0.83946   0.16512   0.00000  Uiso   1.00
H351   H     0.79983   0.27707   0.35388   0.00000  Uiso   1.00
H352   H     0.43582   0.89993   0.54317   0.00000  Uiso   1.00
H353   H     0.90018   0.89648   0.39952   0.00000  Uiso   1.00
H354   H     0.90165   0.81452   0.31127   0.00000  Uiso   1.00
H355   H     0.99863   0.02207   0.40078   0.00000  Uiso   1.00
H356   H     0.82600   0.84321   0.49055   0.00000  Uiso   1.00
H357   H     0.86277   0.73892   0.20706   0.00000  Uiso   1.00
H358   H     0.06724   0.17654   0.39583   0.00000  Uiso   1.00
H359   H     0.70323   0.79940   0.58511   0.00000  Uiso   1.00
O360   O     0.72442   0.73741   0.12714   0.00000  Uiso   1.00
O361   O     0.99266   0.31155   0.37480   0.00000  Uiso   1.00
O362   O     0.51509   0.81675   0.62314   0.00000  Uiso   1.00
N363   N     0.65809   0.82703   0.18711   0.00000  Uiso   1.00
N364   N     0.84926   0.23618   0.36358   0.00000  Uiso   1.00
N365   N     0.50895   0.88360   0.54056   0.00000  Uiso   1.00
N366   N     0.80198   0.77293   0.20968   0.00000  Uiso   1.00
N367   N     0.99315   0.18208   0.38615   0.00000  Uiso   1.00
N368   N     0.65283   0.82950   0.56313   0.00000  Uiso   1.00
