data_job_01411
_audit_creation_date              2018-12-19
_audit_creation_method            'Materials Studio'
_symmetry_space_group_name_H-M    'P1'
_symmetry_Int_Tables_number       1
_symmetry_cell_setting            triclinic
loop_
_symmetry_equiv_pos_as_xyz
  x,y,z
_cell_length_a                    21.7122
_cell_length_b                    13.4030
_cell_length_c                    18.6104
_cell_angle_alpha                 90.0000
_cell_angle_beta                  143.7569
_cell_angle_gamma                 90.0000
loop_
_atom_site_label
_atom_site_type_symbol
_atom_site_fract_x
_atom_site_fract_y
_atom_site_fract_z
_atom_site_U_iso_or_equiv
_atom_site_adp_type
_atom_site_occupancy
C1     C     0.25508   0.13884   0.93873   0.00000  Uiso   1.00
C2     C     0.20755   0.11399   0.82108   0.00000  Uiso   1.00
C3     C     0.15006   0.17877   0.72443   0.00000  Uiso   1.00
C4     C     0.11332   0.14177   0.62495   0.00000  Uiso   1.00
C5     C     0.03642   0.11811   0.44263   0.00000  Uiso   1.00
C6     C     0.21183   0.06187   0.95048   0.00000  Uiso   1.00
C7     C     0.15794   0.08284   0.96264   0.00000  Uiso   1.00
C8     C     0.12481   0.00196   0.97210   0.00000  Uiso   1.00
C9     C     0.05461   0.89738   0.99077   0.00000  Uiso   1.00
C10    C     0.37120   0.11670   0.04135   0.00000  Uiso   1.00
C11    C     0.45133   0.18376   0.12993   0.00000  Uiso   1.00
C12    C     0.55238   0.14905   0.21592   0.00000  Uiso   1.00
C13    C     0.72964   0.12961   0.37567   0.00000  Uiso   1.00
C14    C     0.29207   0.95794   0.93394   0.00000  Uiso   1.00
C15    C     0.22764   0.01572   0.81848   0.00000  Uiso   1.00
C16    C     0.19098   0.97862   0.71912   0.00000  Uiso   1.00
C17    C     0.13345   0.04334   0.62233   0.00000  Uiso   1.00
C18    C     0.23191   0.96361   0.94787   0.00000  Uiso   1.00
C19    C     0.19886   0.88268   0.95733   0.00000  Uiso   1.00
C20    C     0.14493   0.90352   0.96949   0.00000  Uiso   1.00
C21    C     0.39130   0.01844   0.03874   0.00000  Uiso   1.00
C22    C     0.49225   0.98361   0.12462   0.00000  Uiso   1.00
C23    C     0.57251   0.05061   0.21331   0.00000  Uiso   1.00
H24    H     0.23944   0.21534   0.94077   0.00000  Uiso   1.00
H25    H     0.13452   0.25480   0.72648   0.00000  Uiso   1.00
H26    H     0.14241   0.15888   0.96466   0.00000  Uiso   1.00
H27    H     0.43575   0.25979   0.13192   0.00000  Uiso   1.00
H28    H     0.02703   0.25521   0.48773   0.00000  Uiso   1.00
H29    H     0.04370   0.05296   0.99000   0.00000  Uiso   1.00
H30    H     0.66226   0.26575   0.34270   0.00000  Uiso   1.00
H31    H     0.30771   0.88143   0.93191   0.00000  Uiso   1.00
H32    H     0.20654   0.90257   0.71713   0.00000  Uiso   1.00
H33    H     0.21443   0.80666   0.95531   0.00000  Uiso   1.00
H34    H     0.50776   0.90757   0.12257   0.00000  Uiso   1.00
H35    H     0.08548   0.96933   0.48014   0.00000  Uiso   1.00
H36    H     0.10215   0.76708   0.98242   0.00000  Uiso   1.00
H37    H     0.72071   0.97987   0.33511   0.00000  Uiso   1.00
O38    O     0.98844   0.13219   0.34279   0.00000  Uiso   1.00
O39    O     0.01032   0.86685   0.00177   0.00000  Uiso   1.00
O40    O     0.82186   0.14603   0.46450   0.00000  Uiso   1.00
N41    N     0.05469   0.18504   0.51543   0.00000  Uiso   1.00
N42    N     0.07025   0.99594   0.98500   0.00000  Uiso   1.00
N43    N     0.64856   0.19488   0.31477   0.00000  Uiso   1.00
N44    N     0.08614   0.03120   0.51134   0.00000  Uiso   1.00
N45    N     0.10171   0.84211   0.98092   0.00000  Uiso   1.00
N46    N     0.68001   0.04105   0.31068   0.00000  Uiso   1.00
C47    C     0.74492   0.63884   0.56127   0.00000  Uiso   1.00
C48    C     0.79245   0.61399   0.67892   0.00000  Uiso   1.00
C49    C     0.84994   0.67877   0.77557   0.00000  Uiso   1.00
C50    C     0.88668   0.64177   0.87505   0.00000  Uiso   1.00
C51    C     0.96358   0.61811   0.05737   0.00000  Uiso   1.00
C52    C     0.78817   0.56187   0.54952   0.00000  Uiso   1.00
C53    C     0.84206   0.58284   0.53736   0.00000  Uiso   1.00
C54    C     0.87519   0.50196   0.52790   0.00000  Uiso   1.00
C55    C     0.94539   0.39738   0.50923   0.00000  Uiso   1.00
C56    C     0.62880   0.61670   0.45865   0.00000  Uiso   1.00
C57    C     0.54867   0.68376   0.37007   0.00000  Uiso   1.00
C58    C     0.44762   0.64905   0.28408   0.00000  Uiso   1.00
C59    C     0.27036   0.62961   0.12433   0.00000  Uiso   1.00
C60    C     0.70793   0.45794   0.56606   0.00000  Uiso   1.00
C61    C     0.77236   0.51572   0.68152   0.00000  Uiso   1.00
C62    C     0.80902   0.47862   0.78088   0.00000  Uiso   1.00
C63    C     0.86655   0.54334   0.87767   0.00000  Uiso   1.00
C64    C     0.76809   0.46361   0.55213   0.00000  Uiso   1.00
C65    C     0.80114   0.38268   0.54267   0.00000  Uiso   1.00
C66    C     0.85507   0.40352   0.53051   0.00000  Uiso   1.00
C67    C     0.60870   0.51844   0.46126   0.00000  Uiso   1.00
C68    C     0.50775   0.48361   0.37538   0.00000  Uiso   1.00
C69    C     0.42749   0.55061   0.28669   0.00000  Uiso   1.00
H70    H     0.76056   0.71534   0.55923   0.00000  Uiso   1.00
H71    H     0.86548   0.75480   0.77352   0.00000  Uiso   1.00
H72    H     0.85759   0.65888   0.53534   0.00000  Uiso   1.00
H73    H     0.56425   0.75979   0.36808   0.00000  Uiso   1.00
H74    H     0.97297   0.75521   0.01227   0.00000  Uiso   1.00
H75    H     0.95630   0.55296   0.51000   0.00000  Uiso   1.00
H76    H     0.33774   0.76575   0.15730   0.00000  Uiso   1.00
H77    H     0.69229   0.38143   0.56809   0.00000  Uiso   1.00
H78    H     0.79346   0.40257   0.78287   0.00000  Uiso   1.00
H79    H     0.78557   0.30666   0.54469   0.00000  Uiso   1.00
H80    H     0.49224   0.40757   0.37743   0.00000  Uiso   1.00
H81    H     0.91452   0.46933   0.01986   0.00000  Uiso   1.00
H82    H     0.89785   0.26708   0.51758   0.00000  Uiso   1.00
H83    H     0.27929   0.47987   0.16489   0.00000  Uiso   1.00
O84    O     0.01156   0.63219   0.15721   0.00000  Uiso   1.00
O85    O     0.98968   0.36685   0.49823   0.00000  Uiso   1.00
O86    O     0.17814   0.64603   0.03550   0.00000  Uiso   1.00
N87    N     0.94531   0.68504   0.98457   0.00000  Uiso   1.00
N88    N     0.92975   0.49594   0.51500   0.00000  Uiso   1.00
N89    N     0.35144   0.69488   0.18523   0.00000  Uiso   1.00
N90    N     0.91386   0.53120   0.98866   0.00000  Uiso   1.00
N91    N     0.89829   0.34211   0.51908   0.00000  Uiso   1.00
N92    N     0.31999   0.54105   0.18932   0.00000  Uiso   1.00
C93    C     0.74492   0.86116   0.06127   0.00000  Uiso   1.00
C94    C     0.79245   0.88601   0.17892   0.00000  Uiso   1.00
C95    C     0.84994   0.82123   0.27557   0.00000  Uiso   1.00
C96    C     0.88668   0.85823   0.37505   0.00000  Uiso   1.00
C97    C     0.96358   0.88189   0.55737   0.00000  Uiso   1.00
C98    C     0.78817   0.93813   0.04952   0.00000  Uiso   1.00
C99    C     0.84206   0.91716   0.03736   0.00000  Uiso   1.00
C100   C     0.87519   0.99804   0.02790   0.00000  Uiso   1.00
C101   C     0.94539   0.10262   0.00923   0.00000  Uiso   1.00
C102   C     0.62880   0.88330   0.95865   0.00000  Uiso   1.00
C103   C     0.54867   0.81624   0.87007   0.00000  Uiso   1.00
C104   C     0.44762   0.85095   0.78408   0.00000  Uiso   1.00
C105   C     0.27036   0.87039   0.62433   0.00000  Uiso   1.00
C106   C     0.70793   0.04206   0.06606   0.00000  Uiso   1.00
C107   C     0.77236   0.98428   0.18152   0.00000  Uiso   1.00
C108   C     0.80902   0.02138   0.28088   0.00000  Uiso   1.00
C109   C     0.86655   0.95666   0.37767   0.00000  Uiso   1.00
C110   C     0.76809   0.03639   0.05213   0.00000  Uiso   1.00
C111   C     0.80114   0.11732   0.04267   0.00000  Uiso   1.00
C112   C     0.85507   0.09648   0.03051   0.00000  Uiso   1.00
C113   C     0.60870   0.98156   0.96126   0.00000  Uiso   1.00
C114   C     0.50775   0.01639   0.87538   0.00000  Uiso   1.00
C115   C     0.42749   0.94939   0.78669   0.00000  Uiso   1.00
H116   H     0.76056   0.78466   0.05923   0.00000  Uiso   1.00
H117   H     0.86548   0.74520   0.27352   0.00000  Uiso   1.00
H118   H     0.85759   0.84112   0.03534   0.00000  Uiso   1.00
H119   H     0.56425   0.74021   0.86808   0.00000  Uiso   1.00
H120   H     0.97297   0.74479   0.51227   0.00000  Uiso   1.00
H121   H     0.95630   0.94704   0.01000   0.00000  Uiso   1.00
H122   H     0.33774   0.73425   0.65730   0.00000  Uiso   1.00
H123   H     0.69229   0.11857   0.06809   0.00000  Uiso   1.00
H124   H     0.79346   0.09743   0.28287   0.00000  Uiso   1.00
H125   H     0.78557   0.19334   0.04469   0.00000  Uiso   1.00
H126   H     0.49224   0.09243   0.87743   0.00000  Uiso   1.00
H127   H     0.91452   0.03067   0.51986   0.00000  Uiso   1.00
H128   H     0.89785   0.23292   0.01758   0.00000  Uiso   1.00
H129   H     0.27929   0.02013   0.66489   0.00000  Uiso   1.00
O130   O     0.01156   0.86781   0.65721   0.00000  Uiso   1.00
O131   O     0.98968   0.13315   0.99823   0.00000  Uiso   1.00
O132   O     0.17814   0.85397   0.53550   0.00000  Uiso   1.00
N133   N     0.94531   0.81496   0.48457   0.00000  Uiso   1.00
N134   N     0.92975   0.00406   0.01500   0.00000  Uiso   1.00
N135   N     0.35144   0.80512   0.68523   0.00000  Uiso   1.00
N136   N     0.91386   0.96880   0.48866   0.00000  Uiso   1.00
N137   N     0.89829   0.15789   0.01908   0.00000  Uiso   1.00
N138   N     0.31999   0.95895   0.68932   0.00000  Uiso   1.00
C139   C     0.25508   0.36116   0.43873   0.00000  Uiso   1.00
C140   C     0.20755   0.38601   0.32108   0.00000  Uiso   1.00
C141   C     0.15006   0.32123   0.22443   0.00000  Uiso   1.00
C142   C     0.11332   0.35823   0.12495   0.00000  Uiso   1.00
C143   C     0.03642   0.38189   0.94263   0.00000  Uiso   1.00
C144   C     0.21183   0.43813   0.45048   0.00000  Uiso   1.00
C145   C     0.15794   0.41716   0.46264   0.00000  Uiso   1.00
C146   C     0.12481   0.49804   0.47210   0.00000  Uiso   1.00
C147   C     0.05461   0.60262   0.49077   0.00000  Uiso   1.00
C148   C     0.37120   0.38330   0.54135   0.00000  Uiso   1.00
C149   C     0.45133   0.31624   0.62993   0.00000  Uiso   1.00
C150   C     0.55238   0.35095   0.71592   0.00000  Uiso   1.00
C151   C     0.72964   0.37039   0.87567   0.00000  Uiso   1.00
C152   C     0.29207   0.54206   0.43394   0.00000  Uiso   1.00
C153   C     0.22764   0.48428   0.31848   0.00000  Uiso   1.00
C154   C     0.19098   0.52138   0.21912   0.00000  Uiso   1.00
C155   C     0.13345   0.45666   0.12233   0.00000  Uiso   1.00
C156   C     0.23191   0.53639   0.44787   0.00000  Uiso   1.00
C157   C     0.19886   0.61732   0.45733   0.00000  Uiso   1.00
C158   C     0.14493   0.59648   0.46949   0.00000  Uiso   1.00
C159   C     0.39130   0.48156   0.53874   0.00000  Uiso   1.00
C160   C     0.49225   0.51639   0.62462   0.00000  Uiso   1.00
C161   C     0.57251   0.44939   0.71331   0.00000  Uiso   1.00
H162   H     0.23944   0.28466   0.44077   0.00000  Uiso   1.00
H163   H     0.13452   0.24520   0.22648   0.00000  Uiso   1.00
H164   H     0.14241   0.34112   0.46466   0.00000  Uiso   1.00
H165   H     0.43575   0.24021   0.63192   0.00000  Uiso   1.00
H166   H     0.02703   0.24479   0.98773   0.00000  Uiso   1.00
H167   H     0.04370   0.44704   0.49000   0.00000  Uiso   1.00
H168   H     0.66226   0.23425   0.84270   0.00000  Uiso   1.00
H169   H     0.30771   0.61857   0.43191   0.00000  Uiso   1.00
H170   H     0.20654   0.59743   0.21713   0.00000  Uiso   1.00
H171   H     0.21443   0.69334   0.45531   0.00000  Uiso   1.00
H172   H     0.50776   0.59243   0.62257   0.00000  Uiso   1.00
H173   H     0.08548   0.53067   0.98014   0.00000  Uiso   1.00
H174   H     0.10215   0.73292   0.48242   0.00000  Uiso   1.00
H175   H     0.72071   0.52013   0.83511   0.00000  Uiso   1.00
O176   O     0.98844   0.36781   0.84279   0.00000  Uiso   1.00
O177   O     0.01032   0.63315   0.50177   0.00000  Uiso   1.00
O178   O     0.82186   0.35397   0.96450   0.00000  Uiso   1.00
N179   N     0.05469   0.31496   0.01543   0.00000  Uiso   1.00
N180   N     0.07025   0.50406   0.48500   0.00000  Uiso   1.00
N181   N     0.64856   0.30512   0.81477   0.00000  Uiso   1.00
N182   N     0.08614   0.46880   0.01134   0.00000  Uiso   1.00
N183   N     0.10171   0.65789   0.48092   0.00000  Uiso   1.00
N184   N     0.68001   0.45895   0.81068   0.00000  Uiso   1.00
