data_job_06988
_audit_creation_date              2018-12-19
_audit_creation_method            'Materials Studio'
_symmetry_space_group_name_H-M    'P1'
_symmetry_Int_Tables_number       1
_symmetry_cell_setting            triclinic
loop_
_symmetry_equiv_pos_as_xyz
  x,y,z
_cell_length_a                    22.3852
_cell_length_b                    20.3279
_cell_length_c                    19.4439
_cell_angle_alpha                 78.5491
_cell_angle_beta                  78.8023
_cell_angle_gamma                 88.7913
loop_
_atom_site_label
_atom_site_type_symbol
_atom_site_fract_x
_atom_site_fract_y
_atom_site_fract_z
_atom_site_U_iso_or_equiv
_atom_site_adp_type
_atom_site_occupancy
C1     C     0.01295   0.88580   0.46193   0.00000  Uiso   1.00
C2     C     0.01291   0.84944   0.40047   0.00000  Uiso   1.00
C3     C     0.97189   0.79940   0.39991   0.00000  Uiso   1.00
C4     C     0.97955   0.77242   0.33860   0.00000  Uiso   1.00
C5     C     0.97236   0.71254   0.25210   0.00000  Uiso   1.00
C6     C     0.07596   0.87571   0.48079   0.00000  Uiso   1.00
C7     C     0.08795   0.84777   0.54777   0.00000  Uiso   1.00
C8     C     0.14869   0.84292   0.55406   0.00000  Uiso   1.00
C9     C     0.23939   0.82387   0.59228   0.00000  Uiso   1.00
C10    C     0.00929   0.96041   0.43058   0.00000  Uiso   1.00
C11    C     0.96522   0.00369   0.45535   0.00000  Uiso   1.00
C12    C     0.96984   0.07015   0.41938   0.00000  Uiso   1.00
C13    C     0.95702   0.18260   0.37963   0.00000  Uiso   1.00
C14    C     0.09951   0.92689   0.35402   0.00000  Uiso   1.00
C15    C     0.05993   0.87175   0.34186   0.00000  Uiso   1.00
C16    C     0.06766   0.84485   0.28053   0.00000  Uiso   1.00
C17    C     0.02665   0.79478   0.27988   0.00000  Uiso   1.00
C18    C     0.12298   0.89802   0.42218   0.00000  Uiso   1.00
C19    C     0.18372   0.89322   0.42838   0.00000  Uiso   1.00
C20    C     0.19579   0.86528   0.49535   0.00000  Uiso   1.00
C21    C     0.05631   0.98272   0.37197   0.00000  Uiso   1.00
C22    C     0.06099   0.04913   0.33596   0.00000  Uiso   1.00
C23    C     0.01694   0.09250   0.36066   0.00000  Uiso   1.00
H24    H     0.97635   0.86843   0.50756   0.00000  Uiso   1.00
H25    H     0.93551   0.78214   0.44528   0.00000  Uiso   1.00
H26    H     0.05155   0.83051   0.59311   0.00000  Uiso   1.00
H27    H     0.92885   0.98640   0.50070   0.00000  Uiso   1.00
H28    H     0.91098   0.69629   0.35041   0.00000  Uiso   1.00
H29    H     0.15567   0.79831   0.66212   0.00000  Uiso   1.00
H30    H     0.89692   0.12703   0.46725   0.00000  Uiso   1.00
H31    H     0.13612   0.94426   0.30839   0.00000  Uiso   1.00
H32    H     0.10405   0.86213   0.23518   0.00000  Uiso   1.00
H33    H     0.22009   0.91050   0.38302   0.00000  Uiso   1.00
H34    H     0.09738   0.06638   0.29061   0.00000  Uiso   1.00
H35    H     0.04778   0.76121   0.17988   0.00000  Uiso   1.00
H36    H     0.29246   0.86323   0.49160   0.00000  Uiso   1.00
H37    H     0.03371   0.19195   0.29673   0.00000  Uiso   1.00
O38    O     0.95541   0.67334   0.22059   0.00000  Uiso   1.00
O39    O     0.27643   0.80720   0.62955   0.00000  Uiso   1.00
O40    O     0.93695   0.23846   0.37389   0.00000  Uiso   1.00
N41    N     0.94757   0.72285   0.32031   0.00000  Uiso   1.00
N42    N     0.17634   0.81822   0.61174   0.00000  Uiso   1.00
N43    N     0.93444   0.12555   0.42957   0.00000  Uiso   1.00
N44    N     0.02118   0.75779   0.22856   0.00000  Uiso   1.00
N45    N     0.24995   0.85315   0.51999   0.00000  Uiso   1.00
N46    N     0.00804   0.16048   0.33782   0.00000  Uiso   1.00
C47    C     0.48908   0.96209   0.87945   0.00000  Uiso   1.00
C48    C     0.44834   0.91933   0.85068   0.00000  Uiso   1.00
C49    C     0.46342   0.85804   0.83137   0.00000  Uiso   1.00
C50    C     0.41988   0.82678   0.80622   0.00000  Uiso   1.00
C51    C     0.36524   0.75597   0.76236   0.00000  Uiso   1.00
C52    C     0.49476   0.03067   0.82948   0.00000  Uiso   1.00
C53    C     0.54888   0.06300   0.79236   0.00000  Uiso   1.00
C54    C     0.54441   0.12549   0.74936   0.00000  Uiso   1.00
C55    C     0.56185   0.22756   0.67263   0.00000  Uiso   1.00
C56    C     0.45276   0.97295   0.95111   0.00000  Uiso   1.00
C57    C     0.47157   0.95676   0.01626   0.00000  Uiso   1.00
C58    C     0.43175   0.97065   0.07566   0.00000  Uiso   1.00
C59    C     0.38397   0.98310   0.18778   0.00000  Uiso   1.00
C60    C     0.38492   0.01558   0.86911   0.00000  Uiso   1.00
C61    C     0.39176   0.94838   0.84506   0.00000  Uiso   1.00
C62    C     0.34818   0.91722   0.81993   0.00000  Uiso   1.00
C63    C     0.36320   0.85589   0.80059   0.00000  Uiso   1.00
C64    C     0.43819   0.05973   0.82386   0.00000  Uiso   1.00
C65    C     0.43364   0.12218   0.78091   0.00000  Uiso   1.00
C66    C     0.48774   0.15460   0.74373   0.00000  Uiso   1.00
C67    C     0.39618   0.00200   0.94549   0.00000  Uiso   1.00
C68    C     0.35633   0.01593   0.00481   0.00000  Uiso   1.00
C69    C     0.37507   0.99976   0.07003   0.00000  Uiso   1.00
H70    H     0.53313   0.93948   0.88383   0.00000  Uiso   1.00
H71    H     0.50721   0.83557   0.83572   0.00000  Uiso   1.00
H72    H     0.59266   0.04051   0.79672   0.00000  Uiso   1.00
H73    H     0.51535   0.93427   0.02058   0.00000  Uiso   1.00
H74    H     0.45354   0.73319   0.77989   0.00000  Uiso   1.00
H75    H     0.63370   0.16533   0.69767   0.00000  Uiso   1.00
H76    H     0.47070   0.94131   0.16973   0.00000  Uiso   1.00
H77    H     0.34087   0.03821   0.86473   0.00000  Uiso   1.00
H78    H     0.30441   0.93971   0.81558   0.00000  Uiso   1.00
H79    H     0.38985   0.14465   0.77658   0.00000  Uiso   1.00
H80    H     0.31255   0.03841   0.00044   0.00000  Uiso   1.00
H81    H     0.28894   0.81772   0.76354   0.00000  Uiso   1.00
H82    H     0.46910   0.24985   0.68132   0.00000  Uiso   1.00
H83    H     0.30610   0.02583   0.15338   0.00000  Uiso   1.00
O84    O     0.35073   0.70889   0.73971   0.00000  Uiso   1.00
O85    O     0.58709   0.27584   0.63185   0.00000  Uiso   1.00
O86    O     0.37324   0.98193   0.25118   0.00000  Uiso   1.00
N87    N     0.41980   0.76660   0.78280   0.00000  Uiso   1.00
N88    N     0.58824   0.17061   0.70592   0.00000  Uiso   1.00
N89    N     0.43586   0.96119   0.14725   0.00000  Uiso   1.00
N90    N     0.33123   0.81208   0.77400   0.00000  Uiso   1.00
N91    N     0.49967   0.21609   0.69713   0.00000  Uiso   1.00
N92    N     0.34728   0.00667   0.13846   0.00000  Uiso   1.00
C93    C     0.92867   0.26522   0.08134   0.00000  Uiso   1.00
C94    C     0.88314   0.22713   0.05409   0.00000  Uiso   1.00
C95    C     0.86250   0.24786   0.99051   0.00000  Uiso   1.00
C96    C     0.82085   0.20590   0.97520   0.00000  Uiso   1.00
C97    C     0.75321   0.15597   0.92581   0.00000  Uiso   1.00
C98    C     0.89695   0.27527   0.15526   0.00000  Uiso   1.00
C99    C     0.88793   0.33647   0.17673   0.00000  Uiso   1.00
C100   C     0.85791   0.33504   0.24659   0.00000  Uiso   1.00
C101   C     0.81174   0.35984   0.35427   0.00000  Uiso   1.00
C102   C     0.98038   0.21695   0.09353   0.00000  Uiso   1.00
C103   C     0.04153   0.22913   0.06312   0.00000  Uiso   1.00
C104   C     0.08176   0.17860   0.08102   0.00000  Uiso   1.00
C105   C     0.16514   0.11286   0.09286   0.00000  Uiso   1.00
C106   C     0.89140   0.15384   0.16721   0.00000  Uiso   1.00
C107   C     0.86289   0.16663   0.10073   0.00000  Uiso   1.00
C108   C     0.82126   0.12463   0.08551   0.00000  Uiso   1.00
C109   C     0.80057   0.14529   0.02192   0.00000  Uiso   1.00
C110   C     0.87670   0.21477   0.20189   0.00000  Uiso   1.00
C111   C     0.84669   0.21324   0.27173   0.00000  Uiso   1.00
C112   C     0.83763   0.27443   0.29331   0.00000  Uiso   1.00
C113   C     0.96014   0.15645   0.14017   0.00000  Uiso   1.00
C114   C     0.00028   0.10590   0.15812   0.00000  Uiso   1.00
C115   C     0.06147   0.11800   0.12774   0.00000  Uiso   1.00
H116   H     0.94444   0.31232   0.04504   0.00000  Uiso   1.00
H117   H     0.87818   0.29468   0.95444   0.00000  Uiso   1.00
H118   H     0.90361   0.38328   0.14063   0.00000  Uiso   1.00
H119   H     0.05718   0.27595   0.02703   0.00000  Uiso   1.00
H120   H     0.79578   0.24846   0.87457   0.00000  Uiso   1.00
H121   H     0.84942   0.43527   0.26718   0.00000  Uiso   1.00
H122   H     0.17325   0.20895   0.02764   0.00000  Uiso   1.00
H123   H     0.87563   0.10674   0.20352   0.00000  Uiso   1.00
H124   H     0.80560   0.07782   0.12162   0.00000  Uiso   1.00
H125   H     0.83103   0.16642   0.30781   0.00000  Uiso   1.00
H126   H     0.98460   0.05909   0.19421   0.00000  Uiso   1.00
H127   H     0.73687   0.07244   0.01026   0.00000  Uiso   1.00
H128   H     0.79051   0.25926   0.40287   0.00000  Uiso   1.00
H129   H     0.11434   0.03293   0.16333   0.00000  Uiso   1.00
O130   O     0.72148   0.14514   0.88569   0.00000  Uiso   1.00
O131   O     0.79186   0.39023   0.40078   0.00000  Uiso   1.00
O132   O     0.21672   0.09330   0.08650   0.00000  Uiso   1.00
N133   N     0.79153   0.21099   0.91774   0.00000  Uiso   1.00
N134   N     0.84167   0.38565   0.28480   0.00000  Uiso   1.00
N135   N     0.14443   0.17407   0.06086   0.00000  Uiso   1.00
N136   N     0.75984   0.11628   0.99075   0.00000  Uiso   1.00
N137   N     0.80997   0.29094   0.35781   0.00000  Uiso   1.00
N138   N     0.11273   0.07936   0.13388   0.00000  Uiso   1.00
C139   C     0.58145   0.82634   0.41823   0.00000  Uiso   1.00
C140   C     0.52900   0.80488   0.38744   0.00000  Uiso   1.00
C141   C     0.48517   0.84687   0.36178   0.00000  Uiso   1.00
C142   C     0.44097   0.81756   0.33580   0.00000  Uiso   1.00
C143   C     0.35959   0.79472   0.28800   0.00000  Uiso   1.00
C144   C     0.63950   0.80425   0.37396   0.00000  Uiso   1.00
C145   C     0.68858   0.84572   0.33697   0.00000  Uiso   1.00
C146   C     0.73740   0.81587   0.29965   0.00000  Uiso   1.00
C147   C     0.82759   0.79206   0.23096   0.00000  Uiso   1.00
C148   C     0.57547   0.78303   0.49295   0.00000  Uiso   1.00
C149   C     0.57073   0.80664   0.55601   0.00000  Uiso   1.00
C150   C     0.56567   0.75892   0.61888   0.00000  Uiso   1.00
C151   C     0.55645   0.70215   0.73494   0.00000  Uiso   1.00
C152   C     0.58089   0.69961   0.41774   0.00000  Uiso   1.00
C153   C     0.52870   0.73605   0.38717   0.00000  Uiso   1.00
C154   C     0.48455   0.70666   0.36123   0.00000  Uiso   1.00
C155   C     0.44067   0.74860   0.33553   0.00000  Uiso   1.00
C156   C     0.63920   0.73543   0.37369   0.00000  Uiso   1.00
C157   C     0.68796   0.70551   0.33642   0.00000  Uiso   1.00
C158   C     0.73710   0.74692   0.29938   0.00000  Uiso   1.00
C159   C     0.57517   0.71419   0.49268   0.00000  Uiso   1.00
C160   C     0.57011   0.66643   0.55546   0.00000  Uiso   1.00
C161   C     0.56536   0.68997   0.61861   0.00000  Uiso   1.00
H162   H     0.58169   0.87992   0.41844   0.00000  Uiso   1.00
H163   H     0.48542   0.90014   0.36199   0.00000  Uiso   1.00
H164   H     0.68880   0.89898   0.33719   0.00000  Uiso   1.00
H165   H     0.57097   0.85991   0.55620   0.00000  Uiso   1.00
H166   H     0.37857   0.89219   0.29926   0.00000  Uiso   1.00
H167   H     0.80741   0.88976   0.24700   0.00000  Uiso   1.00
H168   H     0.55895   0.80737   0.70881   0.00000  Uiso   1.00
H169   H     0.58066   0.64602   0.41753   0.00000  Uiso   1.00
H170   H     0.48433   0.65339   0.36103   0.00000  Uiso   1.00
H171   H     0.68771   0.65224   0.33623   0.00000  Uiso   1.00
H172   H     0.56988   0.61317   0.55524   0.00000  Uiso   1.00
H173   H     0.37769   0.69193   0.29848   0.00000  Uiso   1.00
H174   H     0.80653   0.68949   0.24621   0.00000  Uiso   1.00
H175   H     0.55807   0.60710   0.70803   0.00000  Uiso   1.00
O176   O     0.31480   0.80114   0.26170   0.00000  Uiso   1.00
O177   O     0.87742   0.79794   0.19314   0.00000  Uiso   1.00
O178   O     0.55144   0.68985   0.79903   0.00000  Uiso   1.00
N179   N     0.39158   0.84405   0.30684   0.00000  Uiso   1.00
N180   N     0.79251   0.84177   0.25797   0.00000  Uiso   1.00
N181   N     0.56024   0.76474   0.68973   0.00000  Uiso   1.00
N182   N     0.39110   0.73629   0.30642   0.00000  Uiso   1.00
N183   N     0.79204   0.73401   0.25755   0.00000  Uiso   1.00
N184   N     0.55976   0.65698   0.68931   0.00000  Uiso   1.00
C185   C     0.99291   0.43701   0.60975   0.00000  Uiso   1.00
C186   C     0.94198   0.39247   0.60114   0.00000  Uiso   1.00
C187   C     0.94211   0.36175   0.54343   0.00000  Uiso   1.00
C188   C     0.89119   0.32298   0.54564   0.00000  Uiso   1.00
C189   C     0.81962   0.25496   0.52348   0.00000  Uiso   1.00
C190   C     0.01095   0.40526   0.68052   0.00000  Uiso   1.00
C191   C     0.06907   0.38530   0.68956   0.00000  Uiso   1.00
C192   C     0.07621   0.35730   0.75860   0.00000  Uiso   1.00
C193   C     0.11172   0.30919   0.85969   0.00000  Uiso   1.00
C194   C     0.96367   0.50356   0.62061   0.00000  Uiso   1.00
C195   C     0.98205   0.56625   0.57930   0.00000  Uiso   1.00
C196   C     0.94938   0.62102   0.59791   0.00000  Uiso   1.00
C197   C     0.91149   0.72553   0.60599   0.00000  Uiso   1.00
C198   C     0.90226   0.42279   0.71630   0.00000  Uiso   1.00
C199   C     0.89275   0.38475   0.65901   0.00000  Uiso   1.00
C200   C     0.84181   0.34601   0.66131   0.00000  Uiso   1.00
C201   C     0.84186   0.31524   0.60362   0.00000  Uiso   1.00
C202   C     0.96172   0.39753   0.73839   0.00000  Uiso   1.00
C203   C     0.96877   0.36956   0.80744   0.00000  Uiso   1.00
C204   C     0.02688   0.34956   0.81658   0.00000  Uiso   1.00
C205   C     0.91443   0.49583   0.67849   0.00000  Uiso   1.00
C206   C     0.88174   0.55052   0.69718   0.00000  Uiso   1.00
C207   C     0.90006   0.61328   0.65589   0.00000  Uiso   1.00
H208   H     0.03125   0.44302   0.56470   0.00000  Uiso   1.00
H209   H     0.98023   0.36773   0.49866   0.00000  Uiso   1.00
H210   H     0.10716   0.39129   0.64476   0.00000  Uiso   1.00
H211   H     0.02015   0.57221   0.53452   0.00000  Uiso   1.00
H212   H     0.90196   0.28083   0.45097   0.00000  Uiso   1.00
H213   H     0.16962   0.33052   0.75905   0.00000  Uiso   1.00
H214   H     0.98613   0.71203   0.52657   0.00000  Uiso   1.00
H215   H     0.86392   0.41678   0.76136   0.00000  Uiso   1.00
H216   H     0.80371   0.34004   0.70610   0.00000  Uiso   1.00
H217   H     0.93066   0.36360   0.85221   0.00000  Uiso   1.00
H218   H     0.84364   0.54452   0.74196   0.00000  Uiso   1.00
H219   H     0.75869   0.25835   0.61934   0.00000  Uiso   1.00
H220   H     0.02636   0.30805   0.92742   0.00000  Uiso   1.00
H221   H     0.84287   0.68956   0.69495   0.00000  Uiso   1.00
O222   O     0.79375   0.21957   0.49527   0.00000  Uiso   1.00
O223   O     0.14491   0.28477   0.89946   0.00000  Uiso   1.00
O224   O     0.90418   0.78530   0.59445   0.00000  Uiso   1.00
N225   N     0.87650   0.28608   0.49817   0.00000  Uiso   1.00
N226   N     0.12674   0.33253   0.78621   0.00000  Uiso   1.00
N227   N     0.95521   0.68921   0.56887   0.00000  Uiso   1.00
N228   N     0.79941   0.27399   0.58877   0.00000  Uiso   1.00
N229   N     0.04965   0.32044   0.87680   0.00000  Uiso   1.00
N230   N     0.87812   0.67712   0.65947   0.00000  Uiso   1.00
C231   C     0.42178   0.33810   0.94421   0.00000  Uiso   1.00
C232   C     0.37912   0.29520   0.91822   0.00000  Uiso   1.00
C233   C     0.34224   0.24259   0.96050   0.00000  Uiso   1.00
C234   C     0.30651   0.20957   0.92660   0.00000  Uiso   1.00
C235   C     0.24008   0.14009   0.89744   0.00000  Uiso   1.00
C236   C     0.40283   0.41058   0.92244   0.00000  Uiso   1.00
C237   C     0.38589   0.45498   0.96826   0.00000  Uiso   1.00
C238   C     0.37013   0.51910   0.93790   0.00000  Uiso   1.00
C239   C     0.34055   0.62876   0.91528   0.00000  Uiso   1.00
C240   C     0.48484   0.33247   0.89920   0.00000  Uiso   1.00
C241   C     0.53686   0.31122   0.92548   0.00000  Uiso   1.00
C242   C     0.59015   0.30959   0.87555   0.00000  Uiso   1.00
C243   C     0.68790   0.29797   0.81684   0.00000  Uiso   1.00
C244   C     0.42392   0.37303   0.80881   0.00000  Uiso   1.00
C245   C     0.38029   0.31417   0.84468   0.00000  Uiso   1.00
C246   C     0.34461   0.28122   0.81070   0.00000  Uiso   1.00
C247   C     0.30768   0.22857   0.85293   0.00000  Uiso   1.00
C248   C     0.40399   0.42955   0.84890   0.00000  Uiso   1.00
C249   C     0.38826   0.49362   0.81846   0.00000  Uiso   1.00
C250   C     0.37130   0.53811   0.86423   0.00000  Uiso   1.00
C251   C     0.48601   0.35144   0.82565   0.00000  Uiso   1.00
C252   C     0.53923   0.34985   0.77567   0.00000  Uiso   1.00
C253   C     0.59132   0.32859   0.80188   0.00000  Uiso   1.00
H254   H     0.42087   0.32334   0.00147   0.00000  Uiso   1.00
H255   H     0.34135   0.22793   0.01742   0.00000  Uiso   1.00
H256   H     0.38500   0.44029   0.02517   0.00000  Uiso   1.00
H257   H     0.53594   0.29654   0.98239   0.00000  Uiso   1.00
H258   H     0.25367   0.13053   0.00267   0.00000  Uiso   1.00
H259   H     0.34574   0.57831   0.01902   0.00000  Uiso   1.00
H260   H     0.66403   0.27519   0.92881   0.00000  Uiso   1.00
H261   H     0.42483   0.38780   0.75156   0.00000  Uiso   1.00
H262   H     0.34552   0.29592   0.75379   0.00000  Uiso   1.00
H263   H     0.38917   0.50828   0.76155   0.00000  Uiso   1.00
H264   H     0.54011   0.36453   0.71877   0.00000  Uiso   1.00
H265   H     0.25706   0.18571   0.78870   0.00000  Uiso   1.00
H266   H     0.34913   0.63350   0.80505   0.00000  Uiso   1.00
H267   H     0.66742   0.33038   0.71484   0.00000  Uiso   1.00
O268   O     0.20311   0.09653   0.90167   0.00000  Uiso   1.00
O269   O     0.32391   0.68401   0.92312   0.00000  Uiso   1.00
O270   O     0.74150   0.28632   0.80477   0.00000  Uiso   1.00
N271   N     0.26536   0.15611   0.95200   0.00000  Uiso   1.00
N272   N     0.35143   0.57476   0.96729   0.00000  Uiso   1.00
N273   N     0.64901   0.29139   0.88296   0.00000  Uiso   1.00
N274   N     0.26718   0.18581   0.83687   0.00000  Uiso   1.00
N275   N     0.35325   0.60446   0.85215   0.00000  Uiso   1.00
N276   N     0.65083   0.32108   0.76782   0.00000  Uiso   1.00
C277   C     0.97206   0.94836   0.69636   0.00000  Uiso   1.00
C278   C     0.02376   0.98037   0.71983   0.00000  Uiso   1.00
C279   C     0.08022   0.00037   0.67747   0.00000  Uiso   1.00
C280   C     0.12130   0.02862   0.70886   0.00000  Uiso   1.00
C281   C     0.20383   0.07713   0.73447   0.00000  Uiso   1.00
C282   C     0.91706   0.99282   0.71012   0.00000  Uiso   1.00
C283   C     0.88381   0.02330   0.65959   0.00000  Uiso   1.00
C284   C     0.83506   0.06202   0.68281   0.00000  Uiso   1.00
C285   C     0.75191   0.12984   0.69335   0.00000  Uiso   1.00
C286   C     0.95655   0.88191   0.74897   0.00000  Uiso   1.00
C287   C     0.95649   0.81912   0.73111   0.00000  Uiso   1.00
C288   C     0.94099   0.76446   0.78705   0.00000  Uiso   1.00
C289   C     0.91916   0.66006   0.85791   0.00000  Uiso   1.00
C290   C     0.94461   0.96295   0.82747   0.00000  Uiso   1.00
C291   C     0.00885   0.98829   0.79104   0.00000  Uiso   1.00
C292   C     0.04986   0.01651   0.82252   0.00000  Uiso   1.00
C293   C     0.10637   0.03655   0.78020   0.00000  Uiso   1.00
C294   C     0.90215   0.00075   0.78133   0.00000  Uiso   1.00
C295   C     0.85344   0.03943   0.80464   0.00000  Uiso   1.00
C296   C     0.82013   0.06996   0.75415   0.00000  Uiso   1.00
C297   C     0.94165   0.88983   0.82019   0.00000  Uiso   1.00
C298   C     0.92613   0.83525   0.87616   0.00000  Uiso   1.00
C299   C     0.92605   0.77239   0.85839   0.00000  Uiso   1.00
H300   H     0.98366   0.94220   0.64092   0.00000  Uiso   1.00
H301   H     0.09174   0.99424   0.62236   0.00000  Uiso   1.00
H302   H     0.89535   0.01715   0.60449   0.00000  Uiso   1.00
H303   H     0.96803   0.81301   0.67600   0.00000  Uiso   1.00
H304   H     0.20498   0.05545   0.63317   0.00000  Uiso   1.00
H305   H     0.79087   0.10374   0.59549   0.00000  Uiso   1.00
H306   H     0.94413   0.67326   0.74629   0.00000  Uiso   1.00
H307   H     0.93300   0.96912   0.88291   0.00000  Uiso   1.00
H308   H     0.03830   0.02263   0.87762   0.00000  Uiso   1.00
H309   H     0.84191   0.04555   0.85975   0.00000  Uiso   1.00
H310   H     0.91460   0.84140   0.93126   0.00000  Uiso   1.00
H311   H     0.16161   0.07850   0.84035   0.00000  Uiso   1.00
H312   H     0.74750   0.12679   0.80267   0.00000  Uiso   1.00
H313   H     0.90076   0.69631   0.95347   0.00000  Uiso   1.00
O314   O     0.25347   0.10171   0.72891   0.00000  Uiso   1.00
O315   O     0.71017   0.16506   0.67948   0.00000  Uiso   1.00
O316   O     0.91125   0.60028   0.87732   0.00000  Uiso   1.00
N317   N     0.18033   0.05352   0.68266   0.00000  Uiso   1.00
N318   N     0.79317   0.09868   0.64743   0.00000  Uiso   1.00
N319   N     0.93643   0.69622   0.78841   0.00000  Uiso   1.00
N320   N     0.15699   0.06592   0.79414   0.00000  Uiso   1.00
N321   N     0.76983   0.11108   0.75891   0.00000  Uiso   1.00
N322   N     0.91310   0.70862   0.89990   0.00000  Uiso   1.00
C323   C     0.64759   0.85574   0.91163   0.00000  Uiso   1.00
C324   C     0.69013   0.86567   0.96135   0.00000  Uiso   1.00
C325   C     0.68587   0.91574   0.00121   0.00000  Uiso   1.00
C326   C     0.72918   0.91628   0.04344   0.00000  Uiso   1.00
C327   C     0.78824   0.93896   0.12033   0.00000  Uiso   1.00
C328   C     0.62241   0.78411   0.93775   0.00000  Uiso   1.00
C329   C     0.56122   0.76560   0.95777   0.00000  Uiso   1.00
C330   C     0.54753   0.69747   0.98013   0.00000  Uiso   1.00
C331   C     0.50145   0.59353   0.02034   0.00000  Uiso   1.00
C332   C     0.68812   0.85707   0.83861   0.00000  Uiso   1.00
C333   C     0.68217   0.89989   0.77525   0.00000  Uiso   1.00
C334   C     0.72379   0.89318   0.71414   0.00000  Uiso   1.00
C335   C     0.77974   0.90252   0.60041   0.00000  Uiso   1.00
C336   C     0.73208   0.76767   0.91574   0.00000  Uiso   1.00
C337   C     0.73602   0.81784   0.96358   0.00000  Uiso   1.00
C338   C     0.77935   0.81830   0.00576   0.00000  Uiso   1.00
C339   C     0.77516   0.86836   0.04568   0.00000  Uiso   1.00
C340   C     0.66830   0.73628   0.93999   0.00000  Uiso   1.00
C341   C     0.65470   0.66816   0.96232   0.00000  Uiso   1.00
C342   C     0.59350   0.64955   0.98237   0.00000  Uiso   1.00
C343   C     0.73402   0.80924   0.84084   0.00000  Uiso   1.00
C344   C     0.77565   0.80246   0.77981   0.00000  Uiso   1.00
C345   C     0.76977   0.84526   0.71637   0.00000  Uiso   1.00
H346   H     0.61186   0.89297   0.90989   0.00000  Uiso   1.00
H347   H     0.65034   0.95274   0.99947   0.00000  Uiso   1.00
H348   H     0.52571   0.80263   0.95603   0.00000  Uiso   1.00
H349   H     0.64665   0.93690   0.77354   0.00000  Uiso   1.00
H350   H     0.71324   0.99790   0.09979   0.00000  Uiso   1.00
H351   H     0.45045   0.68137   0.00817   0.00000  Uiso   1.00
H352   H     0.70546   0.96451   0.62337   0.00000  Uiso   1.00
H353   H     0.76781   0.73043   0.91748   0.00000  Uiso   1.00
H354   H     0.81486   0.78128   0.00748   0.00000  Uiso   1.00
H355   H     0.69023   0.63116   0.96404   0.00000  Uiso   1.00
H356   H     0.81116   0.76544   0.78156   0.00000  Uiso   1.00
H357   H     0.84677   0.85873   0.10630   0.00000  Uiso   1.00
H358   H     0.58397   0.54220   0.01467   0.00000  Uiso   1.00
H359   H     0.83899   0.82534   0.62987   0.00000  Uiso   1.00
O360   O     0.80813   0.96468   0.16213   0.00000  Uiso   1.00
O361   O     0.46335   0.54941   0.04191   0.00000  Uiso   1.00
O362   O     0.79793   0.92089   0.53706   0.00000  Uiso   1.00
N363   N     0.73822   0.95817   0.08896   0.00000  Uiso   1.00
N364   N     0.49252   0.66224   0.00331   0.00000  Uiso   1.00
N365   N     0.73093   0.92694   0.64355   0.00000  Uiso   1.00
N366   N     0.81007   0.88329   0.09246   0.00000  Uiso   1.00
N367   N     0.56437   0.58735   0.00681   0.00000  Uiso   1.00
N368   N     0.80278   0.85206   0.64705   0.00000  Uiso   1.00
C369   C     0.12886   0.50761   0.08973   0.00000  Uiso   1.00
C370   C     0.17412   0.54558   0.11752   0.00000  Uiso   1.00
C371   C     0.19763   0.52256   0.17877   0.00000  Uiso   1.00
C372   C     0.23847   0.56482   0.19505   0.00000  Uiso   1.00
C373   C     0.30623   0.61419   0.24479   0.00000  Uiso   1.00
C374   C     0.15885   0.50310   0.01341   0.00000  Uiso   1.00
C375   C     0.16950   0.44438   0.98712   0.00000  Uiso   1.00
C376   C     0.19747   0.45089   0.91577   0.00000  Uiso   1.00
C377   C     0.24148   0.43431   0.80386   0.00000  Uiso   1.00
C378   C     0.07468   0.55362   0.08343   0.00000  Uiso   1.00
C379   C     0.01456   0.53736   0.11601   0.00000  Uiso   1.00
C380   C     0.97167   0.58639   0.10359   0.00000  Uiso   1.00
C381   C     0.88499   0.64824   0.10042   0.00000  Uiso   1.00
C382   C     0.15958   0.62359   0.00973   0.00000  Uiso   1.00
C383   C     0.19081   0.60857   0.07407   0.00000  Uiso   1.00
C384   C     0.23162   0.65088   0.09027   0.00000  Uiso   1.00
C385   C     0.25518   0.62794   0.15153   0.00000  Uiso   1.00
C386   C     0.17553   0.56610   0.96996   0.00000  Uiso   1.00
C387   C     0.20349   0.57270   0.89862   0.00000  Uiso   1.00
C388   C     0.21419   0.51400   0.87224   0.00000  Uiso   1.00
C389   C     0.09136   0.61662   0.03999   0.00000  Uiso   1.00
C390   C     0.04855   0.66568   0.02751   0.00000  Uiso   1.00
C391   C     0.98838   0.64950   0.06007   0.00000  Uiso   1.00
H392   H     0.11587   0.45856   0.12355   0.00000  Uiso   1.00
H393   H     0.18471   0.47380   0.21237   0.00000  Uiso   1.00
H394   H     0.15658   0.39563   0.02076   0.00000  Uiso   1.00
H395   H     0.00167   0.48860   0.14963   0.00000  Uiso   1.00
H396   H     0.26840   0.51848   0.29168   0.00000  Uiso   1.00
H397   H     0.20907   0.35365   0.88764   0.00000  Uiso   1.00
H398   H     0.88240   0.54969   0.15938   0.00000  Uiso   1.00
H399   H     0.17257   0.67264   0.97591   0.00000  Uiso   1.00
H400   H     0.24452   0.69963   0.05663   0.00000  Uiso   1.00
H401   H     0.21639   0.62146   0.86502   0.00000  Uiso   1.00
H402   H     0.06148   0.71442   0.99389   0.00000  Uiso   1.00
H403   H     0.31695   0.70177   0.16527   0.00000  Uiso   1.00
H404   H     0.25762   0.53694   0.76123   0.00000  Uiso   1.00
H405   H     0.93095   0.73298   0.03298   0.00000  Uiso   1.00
O406   O     0.33900   0.62401   0.28423   0.00000  Uiso   1.00
O407   O     0.26115   0.40776   0.75415   0.00000  Uiso   1.00
O408   O     0.83257   0.66496   0.11067   0.00000  Uiso   1.00
N409   N     0.26994   0.55792   0.25086   0.00000  Uiso   1.00
N410   N     0.21448   0.40381   0.87311   0.00000  Uiso   1.00
N411   N     0.90907   0.58708   0.12715   0.00000  Uiso   1.00
N412   N     0.29607   0.65654   0.18284   0.00000  Uiso   1.00
N413   N     0.24061   0.50244   0.80509   0.00000  Uiso   1.00
N414   N     0.93520   0.68571   0.05913   0.00000  Uiso   1.00
C415   C     0.51859   0.01775   0.41742   0.00000  Uiso   1.00
C416   C     0.57323   0.04437   0.44043   0.00000  Uiso   1.00
C417   C     0.62858   0.01259   0.44188   0.00000  Uiso   1.00
C418   C     0.67281   0.04515   0.46461   0.00000  Uiso   1.00
C419   C     0.75928   0.07703   0.49725   0.00000  Uiso   1.00
C420   C     0.46539   0.01496   0.48029   0.00000  Uiso   1.00
C421   C     0.43007   0.95846   0.51524   0.00000  Uiso   1.00
C422   C     0.38352   0.96627   0.57152   0.00000  Uiso   1.00
C423   C     0.30255   0.95249   0.66601   0.00000  Uiso   1.00
C424   C     0.50353   0.07227   0.35746   0.00000  Uiso   1.00
C425   C     0.50025   0.06394   0.28914   0.00000  Uiso   1.00
C426   C     0.48579   0.12000   0.24201   0.00000  Uiso   1.00
C427   C     0.46403   0.19520   0.14578   0.00000  Uiso   1.00
C428   C     0.49872   0.13209   0.45521   0.00000  Uiso   1.00
C429   C     0.56243   0.10648   0.46095   0.00000  Uiso   1.00
C430   C     0.60659   0.13910   0.48369   0.00000  Uiso   1.00
C431   C     0.66200   0.10737   0.48517   0.00000  Uiso   1.00
C432   C     0.45460   0.07706   0.50081   0.00000  Uiso   1.00
C433   C     0.40808   0.08496   0.55705   0.00000  Uiso   1.00
C434   C     0.37270   0.02848   0.59209   0.00000  Uiso   1.00
C435   C     0.49273   0.13437   0.37798   0.00000  Uiso   1.00
C436   C     0.47827   0.19045   0.33095   0.00000  Uiso   1.00
C437   C     0.47498   0.18221   0.26257   0.00000  Uiso   1.00
H438   H     0.52699   0.96940   0.40144   0.00000  Uiso   1.00
H439   H     0.63691   0.96453   0.42600   0.00000  Uiso   1.00
H440   H     0.43843   0.91041   0.49934   0.00000  Uiso   1.00
H441   H     0.50861   0.01588   0.27328   0.00000  Uiso   1.00
H442   H     0.75401   0.98650   0.46229   0.00000  Uiso   1.00
H443   H     0.33550   0.87239   0.61693   0.00000  Uiso   1.00
H444   H     0.48347   0.09479   0.14022   0.00000  Uiso   1.00
H445   H     0.49031   0.18044   0.47119   0.00000  Uiso   1.00
H446   H     0.59822   0.18716   0.49957   0.00000  Uiso   1.00
H447   H     0.39974   0.13303   0.57292   0.00000  Uiso   1.00
H448   H     0.46992   0.23850   0.34685   0.00000  Uiso   1.00
H449   H     0.72261   0.16719   0.52201   0.00000  Uiso   1.00
H450   H     0.30409   0.05308   0.67665   0.00000  Uiso   1.00
H451   H     0.45207   0.27549   0.19994   0.00000  Uiso   1.00
O452   O     0.80995   0.07745   0.50959   0.00000  Uiso   1.00
O453   O     0.26087   0.92773   0.71245   0.00000  Uiso   1.00
O454   O     0.45501   0.21952   0.08703   0.00000  Uiso   1.00
N455   N     0.73182   0.02812   0.47244   0.00000  Uiso   1.00
N456   N     0.34053   0.92142   0.61703   0.00000  Uiso   1.00
N457   N     0.47886   0.12935   0.17135   0.00000  Uiso   1.00
N458   N     0.71492   0.12534   0.50457   0.00000  Uiso   1.00
N459   N     0.32364   0.01865   0.64916   0.00000  Uiso   1.00
N460   N     0.46197   0.22658   0.20348   0.00000  Uiso   1.00
C461   C     0.16808   0.52840   0.56463   0.00000  Uiso   1.00
C462   C     0.15742   0.56842   0.62433   0.00000  Uiso   1.00
C463   C     0.10684   0.56250   0.67938   0.00000  Uiso   1.00
C464   C     0.10567   0.60362   0.72872   0.00000  Uiso   1.00
C465   C     0.08185   0.65888   0.82225   0.00000  Uiso   1.00
C466   C     0.17806   0.58007   0.49473   0.00000  Uiso   1.00
C467   C     0.14484   0.58392   0.44081   0.00000  Uiso   1.00
C468   C     0.16106   0.63484   0.38105   0.00000  Uiso   1.00
C469   C     0.16931   0.70814   0.27334   0.00000  Uiso   1.00
C470   C     0.22895   0.49399   0.56780   0.00000  Uiso   1.00
C471   C     0.23852   0.42548   0.57530   0.00000  Uiso   1.00
C472   C     0.29758   0.40393   0.57704   0.00000  Uiso   1.00
C473   C     0.38485   0.34359   0.58279   0.00000  Uiso   1.00
C474   C     0.25593   0.61197   0.55438   0.00000  Uiso   1.00
C475   C     0.20514   0.61382   0.61876   0.00000  Uiso   1.00
C476   C     0.20405   0.65496   0.66803   0.00000  Uiso   1.00
C477   C     0.15347   0.64909   0.72315   0.00000  Uiso   1.00
C478   C     0.22578   0.62546   0.48916   0.00000  Uiso   1.00
C479   C     0.24205   0.67638   0.42946   0.00000  Uiso   1.00
C480   C     0.20886   0.68031   0.37546   0.00000  Uiso   1.00
C481   C     0.27667   0.53938   0.56223   0.00000  Uiso   1.00
C482   C     0.33573   0.51794   0.56396   0.00000  Uiso   1.00
C483   C     0.34539   0.44940   0.57146   0.00000  Uiso   1.00
H484   H     0.13092   0.49307   0.56897   0.00000  Uiso   1.00
H485   H     0.06992   0.52737   0.68367   0.00000  Uiso   1.00
H486   H     0.10792   0.54878   0.44513   0.00000  Uiso   1.00
H487   H     0.20158   0.39037   0.57961   0.00000  Uiso   1.00
H488   H     0.02332   0.58543   0.80837   0.00000  Uiso   1.00
H489   H     0.10346   0.63057   0.30538   0.00000  Uiso   1.00
H490   H     0.30097   0.29652   0.58896   0.00000  Uiso   1.00
H491   H     0.29309   0.64731   0.55004   0.00000  Uiso   1.00
H492   H     0.24098   0.69008   0.66371   0.00000  Uiso   1.00
H493   H     0.27898   0.71149   0.42517   0.00000  Uiso   1.00
H494   H     0.37264   0.55308   0.55965   0.00000  Uiso   1.00
H495   H     0.16216   0.71750   0.79216   0.00000  Uiso   1.00
H496   H     0.24230   0.76263   0.28918   0.00000  Uiso   1.00
H497   H     0.43981   0.42858   0.57275   0.00000  Uiso   1.00
O498   O     0.05552   0.67683   0.87537   0.00000  Uiso   1.00
O499   O     0.16068   0.73604   0.21547   0.00000  Uiso   1.00
O500   O     0.41980   0.29777   0.58751   0.00000  Uiso   1.00
N501   N     0.06315   0.61063   0.78896   0.00000  Uiso   1.00
N502   N     0.13807   0.65284   0.31871   0.00000  Uiso   1.00
N503   N     0.32273   0.34053   0.58381   0.00000  Uiso   1.00
N504   N     0.13786   0.68170   0.78024   0.00000  Uiso   1.00
N505   N     0.21278   0.72390   0.30999   0.00000  Uiso   1.00
N506   N     0.39744   0.41159   0.57509   0.00000  Uiso   1.00
C507   C     0.58952   0.40046   0.18491   0.00000  Uiso   1.00
C508   C     0.63469   0.43199   0.21892   0.00000  Uiso   1.00
C509   C     0.67238   0.48723   0.18614   0.00000  Uiso   1.00
C510   C     0.71047   0.50837   0.22627   0.00000  Uiso   1.00
C511   C     0.78057   0.56232   0.26835   0.00000  Uiso   1.00
C512   C     0.60662   0.32686   0.19032   0.00000  Uiso   1.00
C513   C     0.62071   0.29370   0.13348   0.00000  Uiso   1.00
C514   C     0.63516   0.22635   0.14954   0.00000  Uiso   1.00
C515   C     0.66165   0.11706   0.14723   0.00000  Uiso   1.00
C516   C     0.52768   0.40096   0.23429   0.00000  Uiso   1.00
C517   C     0.47538   0.43009   0.21443   0.00000  Uiso   1.00
C518   C     0.42337   0.42511   0.26751   0.00000  Uiso   1.00
C519   C     0.32729   0.43088   0.33347   0.00000  Uiso   1.00
C520   C     0.59014   0.33979   0.31448   0.00000  Uiso   1.00
C521   C     0.63503   0.39903   0.28930   0.00000  Uiso   1.00
C522   C     0.67307   0.42010   0.32949   0.00000  Uiso   1.00
C523   C     0.71080   0.47536   0.29677   0.00000  Uiso   1.00
C524   C     0.60696   0.29390   0.26069   0.00000  Uiso   1.00
C525   C     0.62139   0.22657   0.27684   0.00000  Uiso   1.00
C526   C     0.63550   0.19333   0.22004   0.00000  Uiso   1.00
C527   C     0.52802   0.36800   0.30467   0.00000  Uiso   1.00
C528   C     0.47607   0.36297   0.35779   0.00000  Uiso   1.00
C529   C     0.42371   0.39209   0.33801   0.00000  Uiso   1.00
H530   H     0.58926   0.42611   0.13012   0.00000  Uiso   1.00
H531   H     0.67211   0.51271   0.13167   0.00000  Uiso   1.00
H532   H     0.62044   0.31922   0.07903   0.00000  Uiso   1.00
H533   H     0.47514   0.45559   0.15996   0.00000  Uiso   1.00
H534   H     0.76412   0.59417   0.16441   0.00000  Uiso   1.00
H535   H     0.65515   0.18617   0.05342   0.00000  Uiso   1.00
H536   H     0.34876   0.47374   0.22409   0.00000  Uiso   1.00
H537   H     0.59041   0.31413   0.36928   0.00000  Uiso   1.00
H538   H     0.67332   0.39458   0.38395   0.00000  Uiso   1.00
H539   H     0.62165   0.20109   0.33131   0.00000  Uiso   1.00
H540   H     0.47635   0.33746   0.41224   0.00000  Uiso   1.00
H541   H     0.76511   0.49829   0.36917   0.00000  Uiso   1.00
H542   H     0.65614   0.09029   0.25818   0.00000  Uiso   1.00
H543   H     0.34975   0.37786   0.42885   0.00000  Uiso   1.00
O544   O     0.81915   0.60117   0.27212   0.00000  Uiso   1.00
O545   O     0.67617   0.06589   0.12650   0.00000  Uiso   1.00
O546   O     0.27420   0.44317   0.35042   0.00000  Uiso   1.00
N547   N     0.75297   0.56058   0.21059   0.00000  Uiso   1.00
N548   N     0.65110   0.17912   0.10682   0.00000  Uiso   1.00
N549   N     0.36464   0.44796   0.26638   0.00000  Uiso   1.00
N550   N     0.75350   0.50898   0.32077   0.00000  Uiso   1.00
N551   N     0.65163   0.12753   0.21700   0.00000  Uiso   1.00
N552   N     0.36517   0.39637   0.37656   0.00000  Uiso   1.00
