data_job_06996
_audit_creation_date              2018-12-19
_audit_creation_method            'Materials Studio'
_symmetry_space_group_name_H-M    'P1'
_symmetry_Int_Tables_number       1
_symmetry_cell_setting            triclinic
loop_
_symmetry_equiv_pos_as_xyz
  x,y,z
_cell_length_a                    22.8460
_cell_length_b                    21.0722
_cell_length_c                    20.0802
_cell_angle_alpha                 114.6000
_cell_angle_beta                  103.9390
_cell_angle_gamma                 97.5582
loop_
_atom_site_label
_atom_site_type_symbol
_atom_site_fract_x
_atom_site_fract_y
_atom_site_fract_z
_atom_site_U_iso_or_equiv
_atom_site_adp_type
_atom_site_occupancy
C1     C     0.76688   0.79431   0.09507   0.00000  Uiso   1.00
C2     C     0.77364   0.72733   0.10477   0.00000  Uiso   1.00
C3     C     0.73258   0.68912   0.12434   0.00000  Uiso   1.00
C4     C     0.74704   0.62934   0.13038   0.00000  Uiso   1.00
C5     C     0.74940   0.52852   0.14746   0.00000  Uiso   1.00
C6     C     0.82698   0.85307   0.15042   0.00000  Uiso   1.00
C7     C     0.83076   0.92057   0.20837   0.00000  Uiso   1.00
C8     C     0.89013   0.96664   0.25283   0.00000  Uiso   1.00
C9     C     0.97530   0.06104   0.34075   0.00000  Uiso   1.00
C10    C     0.76767   0.77636   0.01352   0.00000  Uiso   1.00
C11    C     0.72158   0.77939   0.95637   0.00000  Uiso   1.00
C12    C     0.73102   0.76090   0.88558   0.00000  Uiso   1.00
C13    C     0.72409   0.73621   0.76095   0.00000  Uiso   1.00
C14    C     0.86560   0.75611   0.07097   0.00000  Uiso   1.00
C15    C     0.82727   0.70659   0.09168   0.00000  Uiso   1.00
C16    C     0.84180   0.64685   0.09768   0.00000  Uiso   1.00
C17    C     0.80075   0.60856   0.11726   0.00000  Uiso   1.00
C18    C     0.88060   0.83232   0.13733   0.00000  Uiso   1.00
C19    C     0.93998   0.87831   0.18171   0.00000  Uiso   1.00
C20    C     0.94385   0.94586   0.23971   0.00000  Uiso   1.00
C21    C     0.82129   0.75562   0.00043   0.00000  Uiso   1.00
C22    C     0.83080   0.73713   0.92971   0.00000  Uiso   1.00
C23    C     0.78474   0.74012   0.87247   0.00000  Uiso   1.00
H24    H     0.72514   0.81047   0.10527   0.00000  Uiso   1.00
H25    H     0.69109   0.70519   0.13448   0.00000  Uiso   1.00
H26    H     0.78926   0.93661   0.21848   0.00000  Uiso   1.00
H27    H     0.68009   0.79545   0.96653   0.00000  Uiso   1.00
H28    H     0.67699   0.57934   0.16112   0.00000  Uiso   1.00
H29    H     0.88399   0.06731   0.33823   0.00000  Uiso   1.00
H30    H     0.65380   0.76965   0.80693   0.00000  Uiso   1.00
H31    H     0.90735   0.73996   0.06078   0.00000  Uiso   1.00
H32    H     0.88329   0.63081   0.08755   0.00000  Uiso   1.00
H33    H     0.98146   0.86223   0.17156   0.00000  Uiso   1.00
H34    H     0.87230   0.72108   0.91960   0.00000  Uiso   1.00
H35    H     0.83300   0.51898   0.12303   0.00000  Uiso   1.00
H36    H     0.03999   0.00694   0.30015   0.00000  Uiso   1.00
H37    H     0.80980   0.70928   0.76885   0.00000  Uiso   1.00
O38    O     0.73590   0.47864   0.16051   0.00000  Uiso   1.00
O39    O     0.00746   0.11884   0.39287   0.00000  Uiso   1.00
O40    O     0.70546   0.72832   0.69582   0.00000  Uiso   1.00
N41    N     0.71700   0.58011   0.14846   0.00000  Uiso   1.00
N42    N     0.91053   0.03632   0.31407   0.00000  Uiso   1.00
N43    N     0.69533   0.75805   0.81735   0.00000  Uiso   1.00
N44    N     0.80095   0.54762   0.12797   0.00000  Uiso   1.00
N45    N     0.99448   0.00384   0.29357   0.00000  Uiso   1.00
N46    N     0.77927   0.72557   0.79686   0.00000  Uiso   1.00
C47    C     0.11796   0.64581   0.72682   0.00000  Uiso   1.00
C48    C     0.07736   0.65187   0.65844   0.00000  Uiso   1.00
C49    C     0.07638   0.61621   0.58229   0.00000  Uiso   1.00
C50    C     0.03600   0.62896   0.52822   0.00000  Uiso   1.00
C51    C     0.97877   0.63130   0.41880   0.00000  Uiso   1.00
C52    C     0.15545   0.72276   0.78680   0.00000  Uiso   1.00
C53    C     0.22012   0.74669   0.81857   0.00000  Uiso   1.00
C54    C     0.24548   0.81912   0.87257   0.00000  Uiso   1.00
C55    C     0.30949   0.93150   0.96246   0.00000  Uiso   1.00
C56    C     0.07312   0.62179   0.76223   0.00000  Uiso   1.00
C57    C     0.06856   0.56083   0.77336   0.00000  Uiso   1.00
C58    C     0.02461   0.54825   0.80669   0.00000  Uiso   1.00
C59    C     0.96077   0.50385   0.85843   0.00000  Uiso   1.00
C60    C     0.04800   0.73189   0.76623   0.00000  Uiso   1.00
C61    C     0.03937   0.69863   0.67985   0.00000  Uiso   1.00
C62    C     0.99898   0.71145   0.62588   0.00000  Uiso   1.00
C63    C     0.99793   0.67580   0.54966   0.00000  Uiso   1.00
C64    C     0.11746   0.76952   0.80820   0.00000  Uiso   1.00
C65    C     0.14273   0.84193   0.86217   0.00000  Uiso   1.00
C66    C     0.20741   0.86597   0.89401   0.00000  Uiso   1.00
C67    C     0.03512   0.66854   0.78363   0.00000  Uiso   1.00
C68    C     0.99116   0.65607   0.81695   0.00000  Uiso   1.00
C69    C     0.98654   0.59510   0.82813   0.00000  Uiso   1.00
H70    H     0.14754   0.60941   0.71016   0.00000  Uiso   1.00
H71    H     0.10579   0.58003   0.56575   0.00000  Uiso   1.00
H72    H     0.24951   0.71049   0.80200   0.00000  Uiso   1.00
H73    H     0.09798   0.52466   0.75679   0.00000  Uiso   1.00
H74    H     0.04277   0.56810   0.41508   0.00000  Uiso   1.00
H75    H     0.34581   0.84318   0.91326   0.00000  Uiso   1.00
H76    H     0.02627   0.45131   0.81792   0.00000  Uiso   1.00
H77    H     0.01842   0.76829   0.78289   0.00000  Uiso   1.00
H78    H     0.96958   0.74763   0.64246   0.00000  Uiso   1.00
H79    H     0.11331   0.87810   0.87872   0.00000  Uiso   1.00
H80    H     0.96177   0.69226   0.83351   0.00000  Uiso   1.00
H81    H     0.93222   0.70413   0.47735   0.00000  Uiso   1.00
H82    H     0.23526   0.97922   0.97553   0.00000  Uiso   1.00
H83    H     0.91571   0.58734   0.88019   0.00000  Uiso   1.00
O84    O     0.95771   0.61968   0.35253   0.00000  Uiso   1.00
O85    O     0.35529   0.98057   0.00613   0.00000  Uiso   1.00
O86    O     0.93605   0.46644   0.88105   0.00000  Uiso   1.00
N87    N     0.02344   0.60294   0.44900   0.00000  Uiso   1.00
N88    N     0.30677   0.86013   0.91476   0.00000  Uiso   1.00
N89    N     0.00803   0.49377   0.82565   0.00000  Uiso   1.00
N90    N     0.96395   0.67614   0.48251   0.00000  Uiso   1.00
N91    N     0.24728   0.93333   0.94827   0.00000  Uiso   1.00
N92    N     0.94855   0.56697   0.85916   0.00000  Uiso   1.00
C93    C     0.78981   0.03938   0.65070   0.00000  Uiso   1.00
C94    C     0.73067   0.05628   0.66814   0.00000  Uiso   1.00
C95    C     0.67318   0.04025   0.61341   0.00000  Uiso   1.00
C96    C     0.62486   0.06015   0.64110   0.00000  Uiso   1.00
C97    C     0.53168   0.08114   0.65609   0.00000  Uiso   1.00
C98    C     0.83969   0.11136   0.69399   0.00000  Uiso   1.00
C99    C     0.87387   0.14164   0.66099   0.00000  Uiso   1.00
C100   C     0.91733   0.20792   0.71046   0.00000  Uiso   1.00
C101   C     0.99345   0.31440   0.76559   0.00000  Uiso   1.00
C102   C     0.81030   0.99427   0.69036   0.00000  Uiso   1.00
C103   C     0.81979   0.92610   0.65432   0.00000  Uiso   1.00
C104   C     0.83852   0.89380   0.70073   0.00000  Uiso   1.00
C105   C     0.86901   0.81848   0.75022   0.00000  Uiso   1.00
C106   C     0.80622   0.10323   0.79722   0.00000  Uiso   1.00
C107   C     0.73959   0.09096   0.74773   0.00000  Uiso   1.00
C108   C     0.69134   0.11089   0.77552   0.00000  Uiso   1.00
C109   C     0.63378   0.09489   0.72083   0.00000  Uiso   1.00
C110   C     0.84861   0.14605   0.77358   0.00000  Uiso   1.00
C111   C     0.89203   0.21229   0.82311   0.00000  Uiso   1.00
C112   C     0.92626   0.24266   0.79019   0.00000  Uiso   1.00
C113   C     0.81922   0.02895   0.76995   0.00000  Uiso   1.00
C114   C     0.83794   0.99675   0.81643   0.00000  Uiso   1.00
C115   C     0.84745   0.92854   0.78046   0.00000  Uiso   1.00
H116   H     0.78287   0.01239   0.58874   0.00000  Uiso   1.00
H117   H     0.66630   0.01341   0.55182   0.00000  Uiso   1.00
H118   H     0.86697   0.11479   0.59941   0.00000  Uiso   1.00
H119   H     0.81289   0.89928   0.59273   0.00000  Uiso   1.00
H120   H     0.54100   0.02987   0.54599   0.00000  Uiso   1.00
H121   H     0.96413   0.24362   0.64633   0.00000  Uiso   1.00
H122   H     0.85010   0.78918   0.63225   0.00000  Uiso   1.00
H123   H     0.81316   0.13024   0.85919   0.00000  Uiso   1.00
H124   H     0.69825   0.13773   0.83711   0.00000  Uiso   1.00
H125   H     0.89891   0.23911   0.88469   0.00000  Uiso   1.00
H126   H     0.84483   0.02360   0.87802   0.00000  Uiso   1.00
H127   H     0.56693   0.13077   0.77754   0.00000  Uiso   1.00
H128   H     0.99006   0.34452   0.87788   0.00000  Uiso   1.00
H129   H     0.87602   0.89008   0.86380   0.00000  Uiso   1.00
O130   O     0.47783   0.08314   0.64237   0.00000  Uiso   1.00
O131   O     0.03297   0.36356   0.77401   0.00000  Uiso   1.00
O132   O     0.88335   0.76735   0.75554   0.00000  Uiso   1.00
N133   N     0.56287   0.05257   0.60352   0.00000  Uiso   1.00
N134   N     0.95846   0.25242   0.69732   0.00000  Uiso   1.00
N135   N     0.85187   0.82757   0.68417   0.00000  Uiso   1.00
N136   N     0.57682   0.10687   0.72811   0.00000  Uiso   1.00
N137   N     0.97241   0.30672   0.82192   0.00000  Uiso   1.00
N138   N     0.86582   0.88186   0.80876   0.00000  Uiso   1.00
C139   C     0.23240   0.59832   0.15784   0.00000  Uiso   1.00
C140   C     0.24604   0.59153   0.08481   0.00000  Uiso   1.00
C141   C     0.20967   0.60454   0.02811   0.00000  Uiso   1.00
C142   C     0.23013   0.59533   0.96575   0.00000  Uiso   1.00
C143   C     0.24299   0.58808   0.85320   0.00000  Uiso   1.00
C144   C     0.29014   0.65135   0.22575   0.00000  Uiso   1.00
C145   C     0.29084   0.71465   0.28755   0.00000  Uiso   1.00
C146   C     0.34843   0.75579   0.34384   0.00000  Uiso   1.00
C147   C     0.42974   0.84140   0.45013   0.00000  Uiso   1.00
C148   C     0.23025   0.52502   0.15617   0.00000  Uiso   1.00
C149   C     0.18059   0.48211   0.15949   0.00000  Uiso   1.00
C150   C     0.18775   0.41689   0.15722   0.00000  Uiso   1.00
C151   C     0.17607   0.30635   0.15548   0.00000  Uiso   1.00
C152   C     0.33342   0.55883   0.14793   0.00000  Uiso   1.00
C153   C     0.30092   0.57008   0.07943   0.00000  Uiso   1.00
C154   C     0.32144   0.56085   0.01714   0.00000  Uiso   1.00
C155   C     0.28510   0.57384   0.96036   0.00000  Uiso   1.00
C156   C     0.34501   0.62991   0.22037   0.00000  Uiso   1.00
C157   C     0.40261   0.67096   0.27659   0.00000  Uiso   1.00
C158   C     0.40340   0.73431   0.33845   0.00000  Uiso   1.00
C159   C     0.28512   0.50357   0.15079   0.00000  Uiso   1.00
C160   C     0.29236   0.43842   0.14852   0.00000  Uiso   1.00
C161   C     0.24272   0.39541   0.15183   0.00000  Uiso   1.00
H162   H     0.18968   0.61502   0.16204   0.00000  Uiso   1.00
H163   H     0.16721   0.62114   0.03230   0.00000  Uiso   1.00
H164   H     0.24837   0.73123   0.29171   0.00000  Uiso   1.00
H165   H     0.13813   0.49872   0.16366   0.00000  Uiso   1.00
H166   H     0.16651   0.61849   0.88610   0.00000  Uiso   1.00
H167   H     0.33763   0.85061   0.43309   0.00000  Uiso   1.00
H168   H     0.10518   0.36032   0.16308   0.00000  Uiso   1.00
H169   H     0.37615   0.54213   0.14374   0.00000  Uiso   1.00
H170   H     0.36391   0.54425   0.01299   0.00000  Uiso   1.00
H171   H     0.44507   0.65435   0.27240   0.00000  Uiso   1.00
H172   H     0.33483   0.42184   0.14436   0.00000  Uiso   1.00
H173   H     0.32616   0.55609   0.87043   0.00000  Uiso   1.00
H174   H     0.49728   0.78821   0.41742   0.00000  Uiso   1.00
H175   H     0.26483   0.29792   0.14741   0.00000  Uiso   1.00
O176   O     0.23493   0.59002   0.79260   0.00000  Uiso   1.00
O177   O     0.45943   0.89455   0.51023   0.00000  Uiso   1.00
O178   O     0.15446   0.25130   0.15599   0.00000  Uiso   1.00
N179   N     0.20576   0.60350   0.90035   0.00000  Uiso   1.00
N180   N     0.36575   0.82053   0.41174   0.00000  Uiso   1.00
N181   N     0.14843   0.36215   0.15933   0.00000  Uiso   1.00
N182   N     0.29166   0.56992   0.89192   0.00000  Uiso   1.00
N183   N     0.45165   0.78695   0.40331   0.00000  Uiso   1.00
N184   N     0.23433   0.32858   0.15090   0.00000  Uiso   1.00
C185   C     0.57689   0.21822   0.08480   0.00000  Uiso   1.00
C186   C     0.54141   0.17670   0.11592   0.00000  Uiso   1.00
C187   C     0.54137   0.10702   0.10437   0.00000  Uiso   1.00
C188   C     0.50592   0.07859   0.13765   0.00000  Uiso   1.00
C189   C     0.45605   0.00808   0.17942   0.00000  Uiso   1.00
C190   C     0.61809   0.28842   0.15525   0.00000  Uiso   1.00
C191   C     0.68251   0.31268   0.17675   0.00000  Uiso   1.00
C192   C     0.71161   0.37831   0.24313   0.00000  Uiso   1.00
C193   C     0.78077   0.48127   0.34592   0.00000  Uiso   1.00
C194   C     0.52809   0.23985   0.03783   0.00000  Uiso   1.00
C195   C     0.51686   0.22328   0.96061   0.00000  Uiso   1.00
C196   C     0.47020   0.24803   0.92815   0.00000  Uiso   1.00
C197   C     0.39964   0.27557   0.84864   0.00000  Uiso   1.00
C198   C     0.51401   0.29165   0.16446   0.00000  Uiso   1.00
C199   C     0.50726   0.21659   0.15919   0.00000  Uiso   1.00
C200   C     0.47180   0.18826   0.19250   0.00000  Uiso   1.00
C201   C     0.47171   0.11855   0.18099   0.00000  Uiso   1.00
C202   C     0.58394   0.32831   0.19852   0.00000  Uiso   1.00
C203   C     0.61294   0.39392   0.26488   0.00000  Uiso   1.00
C204   C     0.67739   0.41827   0.28648   0.00000  Uiso   1.00
C205   C     0.49394   0.27974   0.08110   0.00000  Uiso   1.00
C206   C     0.44729   0.30452   0.04875   0.00000  Uiso   1.00
C207   C     0.43599   0.28799   0.97149   0.00000  Uiso   1.00
H208   H     0.60348   0.18717   0.05112   0.00000  Uiso   1.00
H209   H     0.56781   0.07617   0.07088   0.00000  Uiso   1.00
H210   H     0.70892   0.28180   0.14325   0.00000  Uiso   1.00
H211   H     0.54330   0.19241   0.92715   0.00000  Uiso   1.00
H212   H     0.51321   0.97071   0.11190   0.00000  Uiso   1.00
H213   H     0.81076   0.40431   0.26447   0.00000  Uiso   1.00
H214   H     0.46151   0.21581   0.80878   0.00000  Uiso   1.00
H215   H     0.48743   0.32271   0.19815   0.00000  Uiso   1.00
H216   H     0.44538   0.21915   0.22598   0.00000  Uiso   1.00
H217   H     0.58650   0.42478   0.29834   0.00000  Uiso   1.00
H218   H     0.42087   0.33539   0.08225   0.00000  Uiso   1.00
H219   H     0.41385   0.08675   0.23778   0.00000  Uiso   1.00
H220   H     0.71140   0.52036   0.39035   0.00000  Uiso   1.00
H221   H     0.36215   0.33186   0.93467   0.00000  Uiso   1.00
O222   O     0.43798   0.95817   0.19052   0.00000  Uiso   1.00
O223   O     0.82835   0.52704   0.39067   0.00000  Uiso   1.00
O224   O     0.37015   0.27973   0.79282   0.00000  Uiso   1.00
N225   N     0.49559   0.01223   0.13769   0.00000  Uiso   1.00
N226   N     0.77378   0.41761   0.28035   0.00000  Uiso   1.00
N227   N     0.44727   0.24140   0.85432   0.00000  Uiso   1.00
N228   N     0.44212   0.07467   0.20543   0.00000  Uiso   1.00
N229   N     0.72031   0.48005   0.34808   0.00000  Uiso   1.00
N230   N     0.39381   0.30384   0.92206   0.00000  Uiso   1.00
C231   C     0.29204   0.28828   0.57480   0.00000  Uiso   1.00
C232   C     0.22409   0.27538   0.57224   0.00000  Uiso   1.00
C233   C     0.18936   0.21508   0.57035   0.00000  Uiso   1.00
C234   C     0.12796   0.21350   0.56817   0.00000  Uiso   1.00
C235   C     0.02636   0.18486   0.56428   0.00000  Uiso   1.00
C236   C     0.32694   0.36043   0.64649   0.00000  Uiso   1.00
C237   C     0.37868   0.37163   0.70703   0.00000  Uiso   1.00
C238   C     0.40387   0.44164   0.76734   0.00000  Uiso   1.00
C239   C     0.46197   0.54505   0.87870   0.00000  Uiso   1.00
C240   C     0.29270   0.30059   0.50531   0.00000  Uiso   1.00
C241   C     0.31566   0.26150   0.44714   0.00000  Uiso   1.00
C242   C     0.31203   0.28115   0.38859   0.00000  Uiso   1.00
C243   C     0.31697   0.29166   0.28074   0.00000  Uiso   1.00
C244   C     0.24476   0.39270   0.57426   0.00000  Uiso   1.00
C245   C     0.19841   0.33210   0.57195   0.00000  Uiso   1.00
C246   C     0.13705   0.33061   0.56976   0.00000  Uiso   1.00
C247   C     0.10223   0.27031   0.56787   0.00000  Uiso   1.00
C248   C     0.30126   0.41714   0.64620   0.00000  Uiso   1.00
C249   C     0.32638   0.48716   0.70644   0.00000  Uiso   1.00
C250   C     0.37814   0.49846   0.76705   0.00000  Uiso   1.00
C251   C     0.26702   0.35731   0.50501   0.00000  Uiso   1.00
C252   C     0.26335   0.37703   0.44655   0.00000  Uiso   1.00
C253   C     0.28630   0.33797   0.38830   0.00000  Uiso   1.00
H254   H     0.31204   0.24413   0.57503   0.00000  Uiso   1.00
H255   H     0.20925   0.17120   0.57058   0.00000  Uiso   1.00
H256   H     0.39855   0.32773   0.70723   0.00000  Uiso   1.00
H257   H     0.33553   0.21762   0.44738   0.00000  Uiso   1.00
H258   H     0.08397   0.11537   0.56556   0.00000  Uiso   1.00
H259   H     0.48313   0.44543   0.85367   0.00000  Uiso   1.00
H260   H     0.35026   0.21323   0.30573   0.00000  Uiso   1.00
H261   H     0.22477   0.43686   0.57404   0.00000  Uiso   1.00
H262   H     0.11719   0.37451   0.56954   0.00000  Uiso   1.00
H263   H     0.30649   0.53103   0.70619   0.00000  Uiso   1.00
H264   H     0.24348   0.42092   0.44634   0.00000  Uiso   1.00
H265   H     0.00925   0.28039   0.56472   0.00000  Uiso   1.00
H266   H     0.40842   0.61044   0.85283   0.00000  Uiso   1.00
H267   H     0.27554   0.37824   0.30489   0.00000  Uiso   1.00
O268   O     0.97742   0.15340   0.56222   0.00000  Uiso   1.00
O269   O     0.50112   0.58641   0.94021   0.00000  Uiso   1.00
O270   O     0.32678   0.28178   0.22132   0.00000  Uiso   1.00
N271   N     0.08115   0.16276   0.56596   0.00000  Uiso   1.00
N272   N     0.45434   0.47134   0.83534   0.00000  Uiso   1.00
N273   N     0.33012   0.25427   0.32307   0.00000  Uiso   1.00
N274   N     0.04094   0.25155   0.56551   0.00000  Uiso   1.00
N275   N     0.41413   0.56013   0.83489   0.00000  Uiso   1.00
N276   N     0.28991   0.34306   0.32262   0.00000  Uiso   1.00
C277   C     0.19825   0.09592   0.79358   0.00000  Uiso   1.00
C278   C     0.19283   0.16801   0.79560   0.00000  Uiso   1.00
C279   C     0.22907   0.20681   0.77166   0.00000  Uiso   1.00
C280   C     0.21686   0.27159   0.77814   0.00000  Uiso   1.00
C281   C     0.21554   0.37971   0.77676   0.00000  Uiso   1.00
C282   C     0.13358   0.04363   0.74587   0.00000  Uiso   1.00
C283   C     0.12001   0.97785   0.68014   0.00000  Uiso   1.00
C284   C     0.05792   0.93792   0.64478   0.00000  Uiso   1.00
C285   C     0.96463   0.85291   0.56624   0.00000  Uiso   1.00
C286   C     0.20930   0.10766   0.87633   0.00000  Uiso   1.00
C287   C     0.25938   0.09570   0.92029   0.00000  Uiso   1.00
C288   C     0.26102   0.10966   0.99476   0.00000  Uiso   1.00
C289   C     0.28529   0.12406   0.11877   0.00000  Uiso   1.00
C290   C     0.11211   0.14196   0.84767   0.00000  Uiso   1.00
C291   C     0.14604   0.19301   0.82497   0.00000  Uiso   1.00
C292   C     0.13377   0.25775   0.83150   0.00000  Uiso   1.00
C293   C     0.16999   0.29664   0.80758   0.00000  Uiso   1.00
C294   C     0.08680   0.06863   0.77525   0.00000  Uiso   1.00
C295   C     0.02471   0.02879   0.73998   0.00000  Uiso   1.00
C296   C     0.01105   0.96297   0.67421   0.00000  Uiso   1.00
C297   C     0.16251   0.13267   0.90571   0.00000  Uiso   1.00
C298   C     0.16408   0.14664   0.98012   0.00000  Uiso   1.00
C299   C     0.21415   0.13471   0.02419   0.00000  Uiso   1.00
H300   H     0.23467   0.07645   0.77071   0.00000  Uiso   1.00
H301   H     0.26527   0.18744   0.74892   0.00000  Uiso   1.00
H302   H     0.15623   0.95852   0.65743   0.00000  Uiso   1.00
H303   H     0.29557   0.07635   0.89753   0.00000  Uiso   1.00
H304   H     0.27855   0.32151   0.73769   0.00000  Uiso   1.00
H305   H     0.04863   0.83880   0.54479   0.00000  Uiso   1.00
H306   H     0.34246   0.08727   0.05110   0.00000  Uiso   1.00
H307   H     0.07568   0.16142   0.87054   0.00000  Uiso   1.00
H308   H     0.09756   0.27708   0.85423   0.00000  Uiso   1.00
H309   H     0.98852   0.04815   0.76273   0.00000  Uiso   1.00
H310   H     0.12786   0.16599   0.00284   0.00000  Uiso   1.00
H311   H     0.14243   0.39427   0.82316   0.00000  Uiso   1.00
H312   H     0.91251   0.91155   0.63025   0.00000  Uiso   1.00
H313   H     0.20635   0.16002   0.13657   0.00000  Uiso   1.00
O314   O     0.22774   0.43243   0.76788   0.00000  Uiso   1.00
O315   O     0.92609   0.79912   0.51480   0.00000  Uiso   1.00
O316   O     0.31160   0.12511   0.17907   0.00000  Uiso   1.00
N317   N     0.24352   0.32277   0.76006   0.00000  Uiso   1.00
N318   N     0.02856   0.87146   0.57970   0.00000  Uiso   1.00
N319   N     0.30326   0.10375   0.05305   0.00000  Uiso   1.00
N320   N     0.17028   0.36192   0.80605   0.00000  Uiso   1.00
N321   N     0.95531   0.91061   0.62569   0.00000  Uiso   1.00
N322   N     0.23002   0.14290   0.09904   0.00000  Uiso   1.00
C323   C     0.82776   0.22003   0.12129   0.00000  Uiso   1.00
C324   C     0.86029   0.22571   0.20014   0.00000  Uiso   1.00
C325   C     0.85010   0.26696   0.26892   0.00000  Uiso   1.00
C326   C     0.88452   0.26490   0.33483   0.00000  Uiso   1.00
C327   C     0.92847   0.28005   0.45768   0.00000  Uiso   1.00
C328   C     0.79762   0.13970   0.06678   0.00000  Uiso   1.00
C329   C     0.73473   0.10864   0.02342   0.00000  Uiso   1.00
C330   C     0.71639   0.03417   0.97706   0.00000  Uiso   1.00
C331   C     0.66304   0.91579   0.89283   0.00000  Uiso   1.00
C332   C     0.87967   0.24189   0.09336   0.00000  Uiso   1.00
C333   C     0.88577   0.29674   0.07233   0.00000  Uiso   1.00
C334   C     0.93651   0.30829   0.04833   0.00000  Uiso   1.00
C335   C     0.01056   0.34858   0.00537   0.00000  Uiso   1.00
C336   C     0.90701   0.14299   0.11604   0.00000  Uiso   1.00
C337   C     0.90334   0.18386   0.19729   0.00000  Uiso   1.00
C338   C     0.93779   0.18173   0.26311   0.00000  Uiso   1.00
C339   C     0.92765   0.22298   0.33198   0.00000  Uiso   1.00
C340   C     0.84066   0.09785   0.06393   0.00000  Uiso   1.00
C341   C     0.82242   0.02341   0.01762   0.00000  Uiso   1.00
C342   C     0.75952   0.99225   0.97421   0.00000  Uiso   1.00
C343   C     0.92272   0.20005   0.09051   0.00000  Uiso   1.00
C344   C     0.97346   0.21151   0.06653   0.00000  Uiso   1.00
C345   C     0.97964   0.26637   0.04547   0.00000  Uiso   1.00
H346   H     0.79424   0.25260   0.12351   0.00000  Uiso   1.00
H347   H     0.81678   0.29933   0.27110   0.00000  Uiso   1.00
H348   H     0.70143   0.14104   0.02564   0.00000  Uiso   1.00
H349   H     0.85245   0.32911   0.07454   0.00000  Uiso   1.00
H350   H     0.86073   0.33267   0.43347   0.00000  Uiso   1.00
H351   H     0.61751   0.99889   0.91588   0.00000  Uiso   1.00
H352   H     0.93597   0.39548   0.01900   0.00000  Uiso   1.00
H353   H     0.94053   0.11041   0.11382   0.00000  Uiso   1.00
H354   H     0.97110   0.14935   0.26089   0.00000  Uiso   1.00
H355   H     0.85574   0.99105   0.01542   0.00000  Uiso   1.00
H356   H     0.00676   0.17912   0.06433   0.00000  Uiso   1.00
H357   H     0.98598   0.21093   0.42518   0.00000  Uiso   1.00
H358   H     0.74276   0.87715   0.90758   0.00000  Uiso   1.00
H359   H     0.06122   0.27374   0.01072   0.00000  Uiso   1.00
O360   O     0.94081   0.29996   0.52623   0.00000  Uiso   1.00
O361   O     0.62172   0.86206   0.84716   0.00000  Uiso   1.00
O362   O     0.03952   0.38237   0.98247   0.00000  Uiso   1.00
N363   N     0.88603   0.29869   0.41134   0.00000  Uiso   1.00
N364   N     0.65863   0.98662   0.92743   0.00000  Uiso   1.00
N365   N     0.95634   0.35739   0.02383   0.00000  Uiso   1.00
N366   N     0.95342   0.23318   0.40688   0.00000  Uiso   1.00
N367   N     0.72602   0.92112   0.92297   0.00000  Uiso   1.00
N368   N     0.02374   0.29188   0.01937   0.00000  Uiso   1.00
C369   C     0.18737   0.98891   0.34386   0.00000  Uiso   1.00
C370   C     0.25551   0.99196   0.34929   0.00000  Uiso   1.00
C371   C     0.30242   0.99854   0.41218   0.00000  Uiso   1.00
C372   C     0.36173   0.00033   0.40581   0.00000  Uiso   1.00
C373   C     0.46572   0.00572   0.42440   0.00000  Uiso   1.00
C374   C     0.14875   0.91884   0.27141   0.00000  Uiso   1.00
C375   C     0.10591   0.86396   0.26882   0.00000  Uiso   1.00
C376   C     0.07534   0.80421   0.19689   0.00000  Uiso   1.00
C377   C     0.01356   0.69612   0.09456   0.00000  Uiso   1.00
C378   C     0.17285   0.05010   0.32649   0.00000  Uiso   1.00
C379   C     0.15025   0.10556   0.37019   0.00000  Uiso   1.00
C380   C     0.13995   0.15631   0.34462   0.00000  Uiso   1.00
C381   C     0.11558   0.25201   0.32780   0.00000  Uiso   1.00
C382   C     0.20927   0.98040   0.22071   0.00000  Uiso   1.00
C383   C     0.26740   0.98733   0.28240   0.00000  Uiso   1.00
C384   C     0.32665   0.98912   0.27593   0.00000  Uiso   1.00
C385   C     0.37365   0.99570   0.33881   0.00000  Uiso   1.00
C386   C     0.16065   0.91422   0.20452   0.00000  Uiso   1.00
C387   C     0.13013   0.85454   0.13257   0.00000  Uiso   1.00
C388   C     0.08726   0.79958   0.12988   0.00000  Uiso   1.00
C389   C     0.18474   0.04548   0.25960   0.00000  Uiso   1.00
C390   C     0.17448   0.09615   0.23395   0.00000  Uiso   1.00
C391   C     0.15187   0.15168   0.27761   0.00000  Uiso   1.00
H392   H     0.17811   0.99251   0.39593   0.00000  Uiso   1.00
H393   H     0.29320   0.00211   0.46393   0.00000  Uiso   1.00
H394   H     0.09671   0.86756   0.32059   0.00000  Uiso   1.00
H395   H     0.14105   0.10912   0.42195   0.00000  Uiso   1.00
H396   H     0.42604   0.01068   0.50982   0.00000  Uiso   1.00
H397   H     0.01172   0.72699   0.20757   0.00000  Uiso   1.00
H398   H     0.10521   0.23637   0.42130   0.00000  Uiso   1.00
H399   H     0.21852   0.97680   0.16863   0.00000  Uiso   1.00
H400   H     0.33584   0.98554   0.22416   0.00000  Uiso   1.00
H401   H     0.13935   0.85099   0.08082   0.00000  Uiso   1.00
H402   H     0.18369   0.09255   0.18218   0.00000  Uiso   1.00
H403   H     0.46065   0.99723   0.31521   0.00000  Uiso   1.00
H404   H     0.04632   0.71354   0.01296   0.00000  Uiso   1.00
H405   H     0.13982   0.22292   0.22670   0.00000  Uiso   1.00
O406   O     0.51978   0.00997   0.45313   0.00000  Uiso   1.00
O407   O     0.97620   0.63777   0.05660   0.00000  Uiso   1.00
O408   O     0.09886   0.30608   0.33701   0.00000  Uiso   1.00
N409   N     0.41809   0.00633   0.45640   0.00000  Uiso   1.00
N410   N     0.03073   0.74109   0.17382   0.00000  Uiso   1.00
N411   N     0.11812   0.21731   0.37363   0.00000  Uiso   1.00
N412   N     0.43671   0.99910   0.35168   0.00000  Uiso   1.00
N413   N     0.04935   0.73385   0.06911   0.00000  Uiso   1.00
N414   N     0.13674   0.21007   0.26892   0.00000  Uiso   1.00
C415   C     0.72919   0.37094   0.58576   0.00000  Uiso   1.00
C416   C     0.74224   0.38366   0.66909   0.00000  Uiso   1.00
C417   C     0.78311   0.35582   0.70560   0.00000  Uiso   1.00
C418   C     0.78849   0.37374   0.78204   0.00000  Uiso   1.00
C419   C     0.81395   0.38674   0.90555   0.00000  Uiso   1.00
C420   C     0.65877   0.33915   0.54628   0.00000  Uiso   1.00
C421   C     0.62946   0.27390   0.47955   0.00000  Uiso   1.00
C422   C     0.56456   0.25437   0.45260   0.00000  Uiso   1.00
C423   C     0.46043   0.19830   0.38543   0.00000  Uiso   1.00
C424   C     0.74329   0.44573   0.59043   0.00000  Uiso   1.00
C425   C     0.78504   0.47009   0.56079   0.00000  Uiso   1.00
C426   C     0.79129   0.54027   0.57100   0.00000  Uiso   1.00
C427   C     0.81840   0.64968   0.57238   0.00000  Uiso   1.00
C428   C     0.66606   0.45227   0.65656   0.00000  Uiso   1.00
C429   C     0.70795   0.42783   0.70754   0.00000  Uiso   1.00
C430   C     0.71327   0.44580   0.78394   0.00000  Uiso   1.00
C431   C     0.75414   0.41800   0.82056   0.00000  Uiso   1.00
C432   C     0.62448   0.38332   0.58474   0.00000  Uiso   1.00
C433   C     0.55961   0.36388   0.55788   0.00000  Uiso   1.00
C434   C     0.53021   0.29862   0.49112   0.00000  Uiso   1.00
C435   C     0.70900   0.48990   0.62889   0.00000  Uiso   1.00
C436   C     0.71519   0.56007   0.63913   0.00000  Uiso   1.00
C437   C     0.75694   0.58453   0.60952   0.00000  Uiso   1.00
H438   H     0.75588   0.33655   0.55582   0.00000  Uiso   1.00
H439   H     0.80964   0.32163   0.67582   0.00000  Uiso   1.00
H440   H     0.65600   0.23974   0.44980   0.00000  Uiso   1.00
H441   H     0.81156   0.43589   0.53104   0.00000  Uiso   1.00
H442   H     0.85409   0.32456   0.82582   0.00000  Uiso   1.00
H443   H     0.53015   0.15188   0.34922   0.00000  Uiso   1.00
H444   H     0.85818   0.56551   0.52053   0.00000  Uiso   1.00
H445   H     0.63936   0.48666   0.68650   0.00000  Uiso   1.00
H446   H     0.68673   0.47999   0.81368   0.00000  Uiso   1.00
H447   H     0.53309   0.39808   0.58765   0.00000  Uiso   1.00
H448   H     0.68865   0.59423   0.66889   0.00000  Uiso   1.00
H449   H     0.75433   0.45308   0.93771   0.00000  Uiso   1.00
H450   H     0.43039   0.28040   0.46110   0.00000  Uiso   1.00
H451   H     0.75842   0.69403   0.63241   0.00000  Uiso   1.00
O452   O     0.83746   0.38170   0.96306   0.00000  Uiso   1.00
O453   O     0.41246   0.15516   0.33776   0.00000  Uiso   1.00
O454   O     0.84282   0.69783   0.56253   0.00000  Uiso   1.00
N455   N     0.82412   0.35574   0.83470   0.00000  Uiso   1.00
N456   N     0.52126   0.19429   0.38911   0.00000  Uiso   1.00
N457   N     0.82792   0.58098   0.54926   0.00000  Uiso   1.00
N458   N     0.77044   0.42489   0.89491   0.00000  Uiso   1.00
N459   N     0.46758   0.26344   0.44932   0.00000  Uiso   1.00
N460   N     0.77424   0.65014   0.60946   0.00000  Uiso   1.00
C461   C     0.33194   0.69804   0.65695   0.00000  Uiso   1.00
C462   C     0.34366   0.77647   0.67186   0.00000  Uiso   1.00
C463   C     0.32771   0.83135   0.72666   0.00000  Uiso   1.00
C464   C     0.34240   0.89945   0.73128   0.00000  Uiso   1.00
C465   C     0.35606   0.01929   0.76178   0.00000  Uiso   1.00
C466   C     0.29395   0.65223   0.57120   0.00000  Uiso   1.00
C467   C     0.23622   0.60264   0.54138   0.00000  Uiso   1.00
C468   C     0.20907   0.56614   0.46126   0.00000  Uiso   1.00
C469   C     0.14559   0.49306   0.33550   0.00000  Uiso   1.00
C470   C     0.39553   0.68142   0.66661   0.00000  Uiso   1.00
C471   C     0.42319   0.65636   0.71699   0.00000  Uiso   1.00
C472   C     0.48156   0.64442   0.71719   0.00000  Uiso   1.00
C473   C     0.57578   0.61666   0.73956   0.00000  Uiso   1.00
C474   C     0.38640   0.72137   0.56770   0.00000  Uiso   1.00
C475   C     0.37324   0.78914   0.62338   0.00000  Uiso   1.00
C476   C     0.38796   0.85717   0.62792   0.00000  Uiso   1.00
C477   C     0.37203   0.91215   0.68272   0.00000  Uiso   1.00
C478   C     0.32353   0.66490   0.52273   0.00000  Uiso   1.00
C479   C     0.29647   0.62846   0.44264   0.00000  Uiso   1.00
C480   C     0.23870   0.57884   0.41270   0.00000  Uiso   1.00
C481   C     0.42511   0.69409   0.61814   0.00000  Uiso   1.00
C482   C     0.48344   0.68218   0.61826   0.00000  Uiso   1.00
C483   C     0.51119   0.65712   0.66863   0.00000  Uiso   1.00
H484   H     0.30891   0.68817   0.69468   0.00000  Uiso   1.00
H485   H     0.30481   0.82152   0.76416   0.00000  Uiso   1.00
H486   H     0.21334   0.59284   0.57890   0.00000  Uiso   1.00
H487   H     0.40029   0.64656   0.75449   0.00000  Uiso   1.00
H488   H     0.31329   0.97495   0.81979   0.00000  Uiso   1.00
H489   H     0.12043   0.49275   0.42917   0.00000  Uiso   1.00
H490   H     0.51464   0.60602   0.79944   0.00000  Uiso   1.00
H491   H     0.40943   0.73124   0.52996   0.00000  Uiso   1.00
H492   H     0.41085   0.86696   0.59040   0.00000  Uiso   1.00
H493   H     0.31937   0.63828   0.40515   0.00000  Uiso   1.00
H494   H     0.50632   0.69199   0.58074   0.00000  Uiso   1.00
H495   H     0.39935   0.01183   0.67876   0.00000  Uiso   1.00
H496   H     0.20648   0.52962   0.28814   0.00000  Uiso   1.00
H497   H     0.60069   0.64289   0.65841   0.00000  Uiso   1.00
O498   O     0.35542   0.08189   0.79199   0.00000  Uiso   1.00
O499   O     0.10240   0.44925   0.27952   0.00000  Uiso   1.00
O500   O     0.61959   0.59786   0.76530   0.00000  Uiso   1.00
N501   N     0.33336   0.96501   0.77832   0.00000  Uiso   1.00
N502   N     0.15304   0.51419   0.41311   0.00000  Uiso   1.00
N503   N     0.52158   0.62007   0.75926   0.00000  Uiso   1.00
N504   N     0.37967   0.98485   0.70243   0.00000  Uiso   1.00
N505   N     0.19935   0.53403   0.33722   0.00000  Uiso   1.00
N506   N     0.56789   0.63991   0.68338   0.00000  Uiso   1.00
C507   C     0.67489   0.76499   0.32629   0.00000  Uiso   1.00
C508   C     0.74004   0.75580   0.32655   0.00000  Uiso   1.00
C509   C     0.78359   0.79733   0.31311   0.00000  Uiso   1.00
C510   C     0.84053   0.78035   0.31587   0.00000  Uiso   1.00
C511   C     0.93972   0.77465   0.31385   0.00000  Uiso   1.00
C512   C     0.62945   0.69190   0.26695   0.00000  Uiso   1.00
C513   C     0.58002   0.67971   0.20340   0.00000  Uiso   1.00
C514   C     0.54386   0.60893   0.15599   0.00000  Uiso   1.00
C515   C     0.47132   0.50403   0.06148   0.00000  Uiso   1.00
C516   C     0.67142   0.77599   0.40511   0.00000  Uiso   1.00
C517   C     0.65726   0.83450   0.45773   0.00000  Uiso   1.00
C518   C     0.65642   0.83452   0.52665   0.00000  Uiso   1.00
C519   C     0.64904   0.86019   0.64666   0.00000  Uiso   1.00
C520   C     0.69857   0.66098   0.35511   0.00000  Uiso   1.00
C521   C     0.75289   0.69930   0.34220   0.00000  Uiso   1.00
C522   C     0.80978   0.68226   0.34499   0.00000  Uiso   1.00
C523   C     0.85342   0.72376   0.33155   0.00000  Uiso   1.00
C524   C     0.64230   0.63541   0.28260   0.00000  Uiso   1.00
C525   C     0.60621   0.56464   0.23528   0.00000  Uiso   1.00
C526   C     0.55674   0.55234   0.17167   0.00000  Uiso   1.00
C527   C     0.68428   0.71950   0.42077   0.00000  Uiso   1.00
C528   C     0.68345   0.71943   0.48962   0.00000  Uiso   1.00
C529   C     0.66930   0.77793   0.54233   0.00000  Uiso   1.00
H530   H     0.66488   0.80897   0.31410   0.00000  Uiso   1.00
H531   H     0.77362   0.84104   0.30099   0.00000  Uiso   1.00
H532   H     0.57007   0.72344   0.19130   0.00000  Uiso   1.00
H533   H     0.64731   0.87821   0.44560   0.00000  Uiso   1.00
H534   H     0.89985   0.85167   0.29333   0.00000  Uiso   1.00
H535   H     0.47064   0.60370   0.06206   0.00000  Uiso   1.00
H536   H     0.63350   0.93006   0.59830   0.00000  Uiso   1.00
H537   H     0.70858   0.61700   0.36729   0.00000  Uiso   1.00
H538   H     0.81972   0.63854   0.35710   0.00000  Uiso   1.00
H539   H     0.61617   0.52093   0.24741   0.00000  Uiso   1.00
H540   H     0.69340   0.67570   0.50171   0.00000  Uiso   1.00
H541   H     0.93726   0.68731   0.33887   0.00000  Uiso   1.00
H542   H     0.50805   0.43933   0.10760   0.00000  Uiso   1.00
H543   H     0.67091   0.76570   0.64384   0.00000  Uiso   1.00
O544   O     0.99087   0.78710   0.30841   0.00000  Uiso   1.00
O545   O     0.42776   0.46178   0.00501   0.00000  Uiso   1.00
O546   O     0.64143   0.88996   0.70853   0.00000  Uiso   1.00
N547   N     0.89340   0.81004   0.30546   0.00000  Uiso   1.00
N548   N     0.49213   0.57820   0.08923   0.00000  Uiso   1.00
N549   N     0.64437   0.88331   0.59056   0.00000  Uiso   1.00
N550   N     0.91354   0.72160   0.32996   0.00000  Uiso   1.00
N551   N     0.51226   0.48976   0.11374   0.00000  Uiso   1.00
N552   N     0.66450   0.79487   0.61506   0.00000  Uiso   1.00
