data_job_03235
_audit_creation_date              2018-12-19
_audit_creation_method            'Materials Studio'
_symmetry_space_group_name_H-M    'P1'
_symmetry_Int_Tables_number       1
_symmetry_cell_setting            triclinic
loop_
_symmetry_equiv_pos_as_xyz
  x,y,z
_cell_length_a                    10.8520
_cell_length_b                    10.8520
_cell_length_c                    50.0602
_cell_angle_alpha                 90.0000
_cell_angle_beta                  90.0000
_cell_angle_gamma                 90.0000
loop_
_atom_site_label
_atom_site_type_symbol
_atom_site_fract_x
_atom_site_fract_y
_atom_site_fract_z
_atom_site_U_iso_or_equiv
_atom_site_adp_type
_atom_site_occupancy
C1     C     0.81042   0.02495   0.66652   0.00000  Uiso   1.00
C2     C     0.81687   0.93872   0.69053   0.00000  Uiso   1.00
C3     C     0.71787   0.90281   0.70626   0.00000  Uiso   1.00
C4     C     0.74288   0.82338   0.72731   0.00000  Uiso   1.00
C5     C     0.73468   0.69591   0.76383   0.00000  Uiso   1.00
C6     C     0.90025   0.12959   0.67237   0.00000  Uiso   1.00
C7     C     0.87135   0.25416   0.67283   0.00000  Uiso   1.00
C8     C     0.96656   0.33539   0.67859   0.00000  Uiso   1.00
C9     C     0.08783   0.50426   0.68689   0.00000  Uiso   1.00
C10    C     0.86522   0.95365   0.64311   0.00000  Uiso   1.00
C11    C     0.80690   0.93030   0.61897   0.00000  Uiso   1.00
C12    C     0.87263   0.86342   0.60010   0.00000  Uiso   1.00
C13    C     0.93952   0.75910   0.56297   0.00000  Uiso   1.00
C14    C     0.03087   0.94774   0.67594   0.00000  Uiso   1.00
C15    C     0.93661   0.89679   0.69565   0.00000  Uiso   1.00
C16    C     0.96177   0.81738   0.71668   0.00000  Uiso   1.00
C17    C     0.86283   0.78136   0.73244   0.00000  Uiso   1.00
C18    C     0.01998   0.08766   0.67749   0.00000  Uiso   1.00
C19    C     0.11525   0.16873   0.68325   0.00000  Uiso   1.00
C20    C     0.08651   0.29338   0.68372   0.00000  Uiso   1.00
C21    C     0.98496   0.91170   0.64823   0.00000  Uiso   1.00
C22    C     0.05079   0.84486   0.62939   0.00000  Uiso   1.00
C23    C     0.99258   0.82141   0.60522   0.00000  Uiso   1.00
H24    H     0.71721   0.05762   0.66253   0.00000  Uiso   1.00
H25    H     0.62522   0.93530   0.70229   0.00000  Uiso   1.00
H26    H     0.77869   0.28658   0.66886   0.00000  Uiso   1.00
H27    H     0.71424   0.96277   0.61501   0.00000  Uiso   1.00
H28    H     0.57606   0.78123   0.74863   0.00000  Uiso   1.00
H29    H     0.89965   0.52194   0.67814   0.00000  Uiso   1.00
H30    H     0.76375   0.83911   0.56459   0.00000  Uiso   1.00
H31    H     0.12409   0.91509   0.67993   0.00000  Uiso   1.00
H32    H     0.05444   0.78494   0.72064   0.00000  Uiso   1.00
H33    H     0.20790   0.13624   0.68721   0.00000  Uiso   1.00
H34    H     0.14345   0.81242   0.63336   0.00000  Uiso   1.00
H35    H     0.92442   0.65920   0.76353   0.00000  Uiso   1.00
H36    H     0.24802   0.39992   0.69303   0.00000  Uiso   1.00
H37    H     0.11212   0.71708   0.57948   0.00000  Uiso   1.00
O38    O     0.69708   0.63721   0.78255   0.00000  Uiso   1.00
O39    O     0.12163   0.60899   0.69006   0.00000  Uiso   1.00
O40    O     0.94333   0.71313   0.54108   0.00000  Uiso   1.00
N41    N     0.66760   0.77035   0.74655   0.00000  Uiso   1.00
N42    N     0.97014   0.46287   0.68064   0.00000  Uiso   1.00
N43    N     0.84309   0.82451   0.57448   0.00000  Uiso   1.00
N44    N     0.85505   0.70469   0.75456   0.00000  Uiso   1.00
N45    N     0.15759   0.39721   0.68865   0.00000  Uiso   1.00
N46    N     0.03055   0.75885   0.58249   0.00000  Uiso   1.00
C47    C     0.18958   0.97505   0.16652   0.00000  Uiso   1.00
C48    C     0.18313   0.06128   0.19053   0.00000  Uiso   1.00
C49    C     0.28213   0.09719   0.20626   0.00000  Uiso   1.00
C50    C     0.25712   0.17662   0.22731   0.00000  Uiso   1.00
C51    C     0.26532   0.30409   0.26383   0.00000  Uiso   1.00
C52    C     0.09975   0.87041   0.17237   0.00000  Uiso   1.00
C53    C     0.12865   0.74584   0.17283   0.00000  Uiso   1.00
C54    C     0.03344   0.66461   0.17859   0.00000  Uiso   1.00
C55    C     0.91217   0.49574   0.18689   0.00000  Uiso   1.00
C56    C     0.13478   0.04635   0.14311   0.00000  Uiso   1.00
C57    C     0.19310   0.06970   0.11897   0.00000  Uiso   1.00
C58    C     0.12737   0.13658   0.10010   0.00000  Uiso   1.00
C59    C     0.06048   0.24090   0.06297   0.00000  Uiso   1.00
C60    C     0.96913   0.05226   0.17594   0.00000  Uiso   1.00
C61    C     0.06339   0.10321   0.19565   0.00000  Uiso   1.00
C62    C     0.03823   0.18262   0.21668   0.00000  Uiso   1.00
C63    C     0.13717   0.21864   0.23244   0.00000  Uiso   1.00
C64    C     0.98002   0.91234   0.17749   0.00000  Uiso   1.00
C65    C     0.88475   0.83127   0.18325   0.00000  Uiso   1.00
C66    C     0.91349   0.70662   0.18372   0.00000  Uiso   1.00
C67    C     0.01504   0.08830   0.14823   0.00000  Uiso   1.00
C68    C     0.94921   0.15514   0.12939   0.00000  Uiso   1.00
C69    C     0.00742   0.17859   0.10522   0.00000  Uiso   1.00
H70    H     0.28279   0.94238   0.16253   0.00000  Uiso   1.00
H71    H     0.37478   0.06470   0.20229   0.00000  Uiso   1.00
H72    H     0.22131   0.71342   0.16886   0.00000  Uiso   1.00
H73    H     0.28576   0.03723   0.11501   0.00000  Uiso   1.00
H74    H     0.42394   0.21877   0.24863   0.00000  Uiso   1.00
H75    H     0.10035   0.47806   0.17814   0.00000  Uiso   1.00
H76    H     0.23625   0.16089   0.06459   0.00000  Uiso   1.00
H77    H     0.87591   0.08491   0.17993   0.00000  Uiso   1.00
H78    H     0.94556   0.21506   0.22064   0.00000  Uiso   1.00
H79    H     0.79210   0.86376   0.18721   0.00000  Uiso   1.00
H80    H     0.85655   0.18758   0.13336   0.00000  Uiso   1.00
H81    H     0.07558   0.34080   0.26353   0.00000  Uiso   1.00
H82    H     0.75198   0.60008   0.19303   0.00000  Uiso   1.00
H83    H     0.88788   0.28292   0.07948   0.00000  Uiso   1.00
O84    O     0.30292   0.36279   0.28255   0.00000  Uiso   1.00
O85    O     0.87837   0.39101   0.19006   0.00000  Uiso   1.00
O86    O     0.05667   0.28687   0.04108   0.00000  Uiso   1.00
N87    N     0.33240   0.22965   0.24655   0.00000  Uiso   1.00
N88    N     0.02986   0.53713   0.18064   0.00000  Uiso   1.00
N89    N     0.15691   0.17549   0.07448   0.00000  Uiso   1.00
N90    N     0.14495   0.29531   0.25456   0.00000  Uiso   1.00
N91    N     0.84241   0.60279   0.18865   0.00000  Uiso   1.00
N92    N     0.96945   0.24115   0.08249   0.00000  Uiso   1.00
C93    C     0.47505   0.31042   0.41652   0.00000  Uiso   1.00
C94    C     0.56128   0.31687   0.44053   0.00000  Uiso   1.00
C95    C     0.59719   0.21787   0.45626   0.00000  Uiso   1.00
C96    C     0.67662   0.24288   0.47731   0.00000  Uiso   1.00
C97    C     0.80409   0.23468   0.51383   0.00000  Uiso   1.00
C98    C     0.37041   0.40025   0.42237   0.00000  Uiso   1.00
C99    C     0.24584   0.37135   0.42283   0.00000  Uiso   1.00
C100   C     0.16461   0.46656   0.42859   0.00000  Uiso   1.00
C101   C     0.99574   0.58783   0.43689   0.00000  Uiso   1.00
C102   C     0.54635   0.36522   0.39311   0.00000  Uiso   1.00
C103   C     0.56970   0.30690   0.36897   0.00000  Uiso   1.00
C104   C     0.63658   0.37263   0.35010   0.00000  Uiso   1.00
C105   C     0.74090   0.43952   0.31297   0.00000  Uiso   1.00
C106   C     0.55226   0.53087   0.42594   0.00000  Uiso   1.00
C107   C     0.60321   0.43661   0.44565   0.00000  Uiso   1.00
C108   C     0.68262   0.46177   0.46668   0.00000  Uiso   1.00
C109   C     0.71864   0.36283   0.48244   0.00000  Uiso   1.00
C110   C     0.41234   0.51998   0.42749   0.00000  Uiso   1.00
C111   C     0.33127   0.61525   0.43325   0.00000  Uiso   1.00
C112   C     0.20662   0.58651   0.43372   0.00000  Uiso   1.00
C113   C     0.58830   0.48496   0.39823   0.00000  Uiso   1.00
C114   C     0.65514   0.55079   0.37939   0.00000  Uiso   1.00
C115   C     0.67859   0.49258   0.35522   0.00000  Uiso   1.00
H116   H     0.44238   0.21721   0.41253   0.00000  Uiso   1.00
H117   H     0.56470   0.12522   0.45229   0.00000  Uiso   1.00
H118   H     0.21342   0.27869   0.41886   0.00000  Uiso   1.00
H119   H     0.53723   0.21424   0.36501   0.00000  Uiso   1.00
H120   H     0.71877   0.07606   0.49863   0.00000  Uiso   1.00
H121   H     0.97806   0.39965   0.42814   0.00000  Uiso   1.00
H122   H     0.66089   0.26375   0.31459   0.00000  Uiso   1.00
H123   H     0.58491   0.62409   0.42993   0.00000  Uiso   1.00
H124   H     0.71506   0.55444   0.47064   0.00000  Uiso   1.00
H125   H     0.36376   0.70790   0.43721   0.00000  Uiso   1.00
H126   H     0.68758   0.64345   0.38336   0.00000  Uiso   1.00
H127   H     0.84080   0.42442   0.51353   0.00000  Uiso   1.00
H128   H     0.10008   0.74802   0.44303   0.00000  Uiso   1.00
H129   H     0.78292   0.61212   0.32948   0.00000  Uiso   1.00
O130   O     0.86279   0.19708   0.53255   0.00000  Uiso   1.00
O131   O     0.89101   0.62163   0.44006   0.00000  Uiso   1.00
O132   O     0.78687   0.44333   0.29108   0.00000  Uiso   1.00
N133   N     0.72965   0.16760   0.49655   0.00000  Uiso   1.00
N134   N     0.03713   0.47014   0.43064   0.00000  Uiso   1.00
N135   N     0.67549   0.34309   0.32448   0.00000  Uiso   1.00
N136   N     0.79531   0.35505   0.50456   0.00000  Uiso   1.00
N137   N     0.10279   0.65759   0.43865   0.00000  Uiso   1.00
N138   N     0.74115   0.53055   0.33249   0.00000  Uiso   1.00
C139   C     0.52495   0.68958   0.91652   0.00000  Uiso   1.00
C140   C     0.43872   0.68313   0.94053   0.00000  Uiso   1.00
C141   C     0.40281   0.78213   0.95626   0.00000  Uiso   1.00
C142   C     0.32338   0.75712   0.97731   0.00000  Uiso   1.00
C143   C     0.19591   0.76532   0.01383   0.00000  Uiso   1.00
C144   C     0.62959   0.59975   0.92237   0.00000  Uiso   1.00
C145   C     0.75416   0.62865   0.92283   0.00000  Uiso   1.00
C146   C     0.83539   0.53344   0.92859   0.00000  Uiso   1.00
C147   C     0.00426   0.41217   0.93689   0.00000  Uiso   1.00
C148   C     0.45365   0.63478   0.89311   0.00000  Uiso   1.00
C149   C     0.43030   0.69310   0.86897   0.00000  Uiso   1.00
C150   C     0.36342   0.62737   0.85010   0.00000  Uiso   1.00
C151   C     0.25910   0.56048   0.81297   0.00000  Uiso   1.00
C152   C     0.44774   0.46913   0.92594   0.00000  Uiso   1.00
C153   C     0.39679   0.56339   0.94565   0.00000  Uiso   1.00
C154   C     0.31738   0.53823   0.96668   0.00000  Uiso   1.00
C155   C     0.28136   0.63717   0.98244   0.00000  Uiso   1.00
C156   C     0.58766   0.48002   0.92749   0.00000  Uiso   1.00
C157   C     0.66873   0.38475   0.93325   0.00000  Uiso   1.00
C158   C     0.79338   0.41349   0.93372   0.00000  Uiso   1.00
C159   C     0.41170   0.51504   0.89823   0.00000  Uiso   1.00
C160   C     0.34486   0.44921   0.87939   0.00000  Uiso   1.00
C161   C     0.32141   0.50742   0.85522   0.00000  Uiso   1.00
H162   H     0.55762   0.78279   0.91253   0.00000  Uiso   1.00
H163   H     0.43530   0.87478   0.95229   0.00000  Uiso   1.00
H164   H     0.78658   0.72131   0.91886   0.00000  Uiso   1.00
H165   H     0.46277   0.78576   0.86501   0.00000  Uiso   1.00
H166   H     0.28123   0.92394   0.99863   0.00000  Uiso   1.00
H167   H     0.02194   0.60035   0.92814   0.00000  Uiso   1.00
H168   H     0.33911   0.73625   0.81459   0.00000  Uiso   1.00
H169   H     0.41509   0.37591   0.92993   0.00000  Uiso   1.00
H170   H     0.28494   0.44556   0.97064   0.00000  Uiso   1.00
H171   H     0.63624   0.29210   0.93721   0.00000  Uiso   1.00
H172   H     0.31242   0.35655   0.88336   0.00000  Uiso   1.00
H173   H     0.15920   0.57558   0.01353   0.00000  Uiso   1.00
H174   H     0.89992   0.25198   0.94303   0.00000  Uiso   1.00
H175   H     0.21708   0.38788   0.82948   0.00000  Uiso   1.00
O176   O     0.13721   0.80292   0.03255   0.00000  Uiso   1.00
O177   O     0.10899   0.37837   0.94006   0.00000  Uiso   1.00
O178   O     0.21313   0.55667   0.79108   0.00000  Uiso   1.00
N179   N     0.27035   0.83240   0.99655   0.00000  Uiso   1.00
N180   N     0.96287   0.52986   0.93064   0.00000  Uiso   1.00
N181   N     0.32451   0.65691   0.82448   0.00000  Uiso   1.00
N182   N     0.20469   0.64495   0.00456   0.00000  Uiso   1.00
N183   N     0.89721   0.34241   0.93865   0.00000  Uiso   1.00
N184   N     0.25885   0.46945   0.83249   0.00000  Uiso   1.00
C185   C     0.68958   0.52495   0.08348   0.00000  Uiso   1.00
C186   C     0.68313   0.43872   0.05947   0.00000  Uiso   1.00
C187   C     0.78213   0.40281   0.04374   0.00000  Uiso   1.00
C188   C     0.75712   0.32338   0.02269   0.00000  Uiso   1.00
C189   C     0.76532   0.19591   0.98617   0.00000  Uiso   1.00
C190   C     0.59975   0.62959   0.07763   0.00000  Uiso   1.00
C191   C     0.62865   0.75416   0.07717   0.00000  Uiso   1.00
C192   C     0.53344   0.83539   0.07141   0.00000  Uiso   1.00
C193   C     0.41217   0.00426   0.06311   0.00000  Uiso   1.00
C194   C     0.63478   0.45365   0.10689   0.00000  Uiso   1.00
C195   C     0.69310   0.43030   0.13103   0.00000  Uiso   1.00
C196   C     0.62737   0.36342   0.14990   0.00000  Uiso   1.00
C197   C     0.56048   0.25910   0.18703   0.00000  Uiso   1.00
C198   C     0.46913   0.44774   0.07406   0.00000  Uiso   1.00
C199   C     0.56339   0.39679   0.05435   0.00000  Uiso   1.00
C200   C     0.53823   0.31738   0.03332   0.00000  Uiso   1.00
C201   C     0.63717   0.28136   0.01756   0.00000  Uiso   1.00
C202   C     0.48002   0.58766   0.07251   0.00000  Uiso   1.00
C203   C     0.38475   0.66873   0.06675   0.00000  Uiso   1.00
C204   C     0.41349   0.79338   0.06628   0.00000  Uiso   1.00
C205   C     0.51504   0.41170   0.10177   0.00000  Uiso   1.00
C206   C     0.44921   0.34486   0.12061   0.00000  Uiso   1.00
C207   C     0.50742   0.32141   0.14478   0.00000  Uiso   1.00
H208   H     0.78279   0.55762   0.08747   0.00000  Uiso   1.00
H209   H     0.87478   0.43530   0.04771   0.00000  Uiso   1.00
H210   H     0.72131   0.78658   0.08114   0.00000  Uiso   1.00
H211   H     0.78576   0.46277   0.13499   0.00000  Uiso   1.00
H212   H     0.92394   0.28123   0.00137   0.00000  Uiso   1.00
H213   H     0.60035   0.02194   0.07186   0.00000  Uiso   1.00
H214   H     0.73625   0.33911   0.18541   0.00000  Uiso   1.00
H215   H     0.37591   0.41509   0.07007   0.00000  Uiso   1.00
H216   H     0.44556   0.28494   0.02936   0.00000  Uiso   1.00
H217   H     0.29210   0.63624   0.06279   0.00000  Uiso   1.00
H218   H     0.35655   0.31242   0.11664   0.00000  Uiso   1.00
H219   H     0.57558   0.15920   0.98647   0.00000  Uiso   1.00
H220   H     0.25198   0.89992   0.05697   0.00000  Uiso   1.00
H221   H     0.38788   0.21708   0.17052   0.00000  Uiso   1.00
O222   O     0.80292   0.13721   0.96745   0.00000  Uiso   1.00
O223   O     0.37837   0.10899   0.05994   0.00000  Uiso   1.00
O224   O     0.55667   0.21313   0.20892   0.00000  Uiso   1.00
N225   N     0.83240   0.27035   0.00345   0.00000  Uiso   1.00
N226   N     0.52986   0.96287   0.06936   0.00000  Uiso   1.00
N227   N     0.65691   0.32451   0.17552   0.00000  Uiso   1.00
N228   N     0.64495   0.20469   0.99544   0.00000  Uiso   1.00
N229   N     0.34241   0.89721   0.06135   0.00000  Uiso   1.00
N230   N     0.46945   0.25885   0.16751   0.00000  Uiso   1.00
C231   C     0.31042   0.47505   0.58348   0.00000  Uiso   1.00
C232   C     0.31687   0.56128   0.55947   0.00000  Uiso   1.00
C233   C     0.21787   0.59719   0.54374   0.00000  Uiso   1.00
C234   C     0.24288   0.67662   0.52269   0.00000  Uiso   1.00
C235   C     0.23468   0.80409   0.48617   0.00000  Uiso   1.00
C236   C     0.40025   0.37041   0.57763   0.00000  Uiso   1.00
C237   C     0.37135   0.24584   0.57717   0.00000  Uiso   1.00
C238   C     0.46656   0.16461   0.57141   0.00000  Uiso   1.00
C239   C     0.58783   0.99574   0.56311   0.00000  Uiso   1.00
C240   C     0.36522   0.54635   0.60689   0.00000  Uiso   1.00
C241   C     0.30690   0.56970   0.63103   0.00000  Uiso   1.00
C242   C     0.37263   0.63658   0.64990   0.00000  Uiso   1.00
C243   C     0.43952   0.74090   0.68703   0.00000  Uiso   1.00
C244   C     0.53087   0.55226   0.57406   0.00000  Uiso   1.00
C245   C     0.43661   0.60321   0.55435   0.00000  Uiso   1.00
C246   C     0.46177   0.68262   0.53332   0.00000  Uiso   1.00
C247   C     0.36283   0.71864   0.51756   0.00000  Uiso   1.00
C248   C     0.51998   0.41234   0.57251   0.00000  Uiso   1.00
C249   C     0.61525   0.33127   0.56675   0.00000  Uiso   1.00
C250   C     0.58651   0.20662   0.56628   0.00000  Uiso   1.00
C251   C     0.48496   0.58830   0.60177   0.00000  Uiso   1.00
C252   C     0.55079   0.65514   0.62061   0.00000  Uiso   1.00
C253   C     0.49258   0.67859   0.64478   0.00000  Uiso   1.00
H254   H     0.21721   0.44238   0.58747   0.00000  Uiso   1.00
H255   H     0.12522   0.56470   0.54771   0.00000  Uiso   1.00
H256   H     0.27869   0.21342   0.58114   0.00000  Uiso   1.00
H257   H     0.21424   0.53723   0.63499   0.00000  Uiso   1.00
H258   H     0.07606   0.71877   0.50137   0.00000  Uiso   1.00
H259   H     0.39965   0.97806   0.57186   0.00000  Uiso   1.00
H260   H     0.26375   0.66089   0.68541   0.00000  Uiso   1.00
H261   H     0.62409   0.58491   0.57007   0.00000  Uiso   1.00
H262   H     0.55444   0.71506   0.52936   0.00000  Uiso   1.00
H263   H     0.70790   0.36376   0.56279   0.00000  Uiso   1.00
H264   H     0.64345   0.68758   0.61664   0.00000  Uiso   1.00
H265   H     0.42442   0.84080   0.48647   0.00000  Uiso   1.00
H266   H     0.74802   0.10008   0.55697   0.00000  Uiso   1.00
H267   H     0.61212   0.78292   0.67052   0.00000  Uiso   1.00
O268   O     0.19708   0.86279   0.46745   0.00000  Uiso   1.00
O269   O     0.62163   0.89101   0.55994   0.00000  Uiso   1.00
O270   O     0.44333   0.78687   0.70892   0.00000  Uiso   1.00
N271   N     0.16760   0.72965   0.50345   0.00000  Uiso   1.00
N272   N     0.47014   0.03713   0.56936   0.00000  Uiso   1.00
N273   N     0.34309   0.67549   0.67552   0.00000  Uiso   1.00
N274   N     0.35505   0.79531   0.49544   0.00000  Uiso   1.00
N275   N     0.65759   0.10279   0.56135   0.00000  Uiso   1.00
N276   N     0.53055   0.74115   0.66751   0.00000  Uiso   1.00
C277   C     0.02495   0.81042   0.33348   0.00000  Uiso   1.00
C278   C     0.93872   0.81687   0.30947   0.00000  Uiso   1.00
C279   C     0.90281   0.71787   0.29374   0.00000  Uiso   1.00
C280   C     0.82338   0.74288   0.27269   0.00000  Uiso   1.00
C281   C     0.69591   0.73468   0.23617   0.00000  Uiso   1.00
C282   C     0.12959   0.90025   0.32763   0.00000  Uiso   1.00
C283   C     0.25416   0.87135   0.32717   0.00000  Uiso   1.00
C284   C     0.33539   0.96656   0.32141   0.00000  Uiso   1.00
C285   C     0.50426   0.08783   0.31311   0.00000  Uiso   1.00
C286   C     0.95365   0.86522   0.35689   0.00000  Uiso   1.00
C287   C     0.93030   0.80690   0.38103   0.00000  Uiso   1.00
C288   C     0.86342   0.87263   0.39990   0.00000  Uiso   1.00
C289   C     0.75910   0.93952   0.43703   0.00000  Uiso   1.00
C290   C     0.94774   0.03087   0.32406   0.00000  Uiso   1.00
C291   C     0.89679   0.93661   0.30435   0.00000  Uiso   1.00
C292   C     0.81738   0.96177   0.28332   0.00000  Uiso   1.00
C293   C     0.78136   0.86283   0.26756   0.00000  Uiso   1.00
C294   C     0.08766   0.01998   0.32251   0.00000  Uiso   1.00
C295   C     0.16873   0.11525   0.31675   0.00000  Uiso   1.00
C296   C     0.29338   0.08651   0.31628   0.00000  Uiso   1.00
C297   C     0.91170   0.98496   0.35177   0.00000  Uiso   1.00
C298   C     0.84486   0.05079   0.37061   0.00000  Uiso   1.00
C299   C     0.82141   0.99258   0.39478   0.00000  Uiso   1.00
H300   H     0.05762   0.71721   0.33747   0.00000  Uiso   1.00
H301   H     0.93530   0.62522   0.29771   0.00000  Uiso   1.00
H302   H     0.28658   0.77869   0.33114   0.00000  Uiso   1.00
H303   H     0.96277   0.71424   0.38499   0.00000  Uiso   1.00
H304   H     0.78123   0.57606   0.25137   0.00000  Uiso   1.00
H305   H     0.52194   0.89965   0.32186   0.00000  Uiso   1.00
H306   H     0.83911   0.76375   0.43541   0.00000  Uiso   1.00
H307   H     0.91509   0.12409   0.32007   0.00000  Uiso   1.00
H308   H     0.78494   0.05444   0.27936   0.00000  Uiso   1.00
H309   H     0.13624   0.20790   0.31279   0.00000  Uiso   1.00
H310   H     0.81242   0.14345   0.36664   0.00000  Uiso   1.00
H311   H     0.65920   0.92442   0.23647   0.00000  Uiso   1.00
H312   H     0.39992   0.24802   0.30697   0.00000  Uiso   1.00
H313   H     0.71708   0.11212   0.42052   0.00000  Uiso   1.00
O314   O     0.63721   0.69708   0.21745   0.00000  Uiso   1.00
O315   O     0.60899   0.12163   0.30994   0.00000  Uiso   1.00
O316   O     0.71313   0.94333   0.45892   0.00000  Uiso   1.00
N317   N     0.77035   0.66760   0.25345   0.00000  Uiso   1.00
N318   N     0.46287   0.97014   0.31936   0.00000  Uiso   1.00
N319   N     0.82451   0.84309   0.42552   0.00000  Uiso   1.00
N320   N     0.70469   0.85505   0.24544   0.00000  Uiso   1.00
N321   N     0.39721   0.15759   0.31135   0.00000  Uiso   1.00
N322   N     0.75885   0.03055   0.41751   0.00000  Uiso   1.00
C323   C     0.97505   0.18958   0.83348   0.00000  Uiso   1.00
C324   C     0.06128   0.18313   0.80947   0.00000  Uiso   1.00
C325   C     0.09719   0.28213   0.79374   0.00000  Uiso   1.00
C326   C     0.17662   0.25712   0.77269   0.00000  Uiso   1.00
C327   C     0.30409   0.26532   0.73617   0.00000  Uiso   1.00
C328   C     0.87041   0.09975   0.82763   0.00000  Uiso   1.00
C329   C     0.74584   0.12865   0.82717   0.00000  Uiso   1.00
C330   C     0.66461   0.03344   0.82141   0.00000  Uiso   1.00
C331   C     0.49574   0.91217   0.81311   0.00000  Uiso   1.00
C332   C     0.04635   0.13478   0.85689   0.00000  Uiso   1.00
C333   C     0.06970   0.19310   0.88103   0.00000  Uiso   1.00
C334   C     0.13658   0.12737   0.89990   0.00000  Uiso   1.00
C335   C     0.24090   0.06048   0.93703   0.00000  Uiso   1.00
C336   C     0.05226   0.96913   0.82406   0.00000  Uiso   1.00
C337   C     0.10321   0.06339   0.80435   0.00000  Uiso   1.00
C338   C     0.18262   0.03823   0.78332   0.00000  Uiso   1.00
C339   C     0.21864   0.13717   0.76756   0.00000  Uiso   1.00
C340   C     0.91234   0.98002   0.82251   0.00000  Uiso   1.00
C341   C     0.83127   0.88475   0.81675   0.00000  Uiso   1.00
C342   C     0.70662   0.91349   0.81628   0.00000  Uiso   1.00
C343   C     0.08830   0.01504   0.85177   0.00000  Uiso   1.00
C344   C     0.15514   0.94921   0.87061   0.00000  Uiso   1.00
C345   C     0.17859   0.00742   0.89478   0.00000  Uiso   1.00
H346   H     0.94238   0.28279   0.83747   0.00000  Uiso   1.00
H347   H     0.06470   0.37478   0.79771   0.00000  Uiso   1.00
H348   H     0.71342   0.22131   0.83114   0.00000  Uiso   1.00
H349   H     0.03723   0.28576   0.88499   0.00000  Uiso   1.00
H350   H     0.21877   0.42394   0.75137   0.00000  Uiso   1.00
H351   H     0.47806   0.10035   0.82186   0.00000  Uiso   1.00
H352   H     0.16089   0.23625   0.93541   0.00000  Uiso   1.00
H353   H     0.08491   0.87591   0.82007   0.00000  Uiso   1.00
H354   H     0.21506   0.94556   0.77936   0.00000  Uiso   1.00
H355   H     0.86376   0.79210   0.81279   0.00000  Uiso   1.00
H356   H     0.18758   0.85655   0.86664   0.00000  Uiso   1.00
H357   H     0.34080   0.07558   0.73647   0.00000  Uiso   1.00
H358   H     0.60008   0.75198   0.80697   0.00000  Uiso   1.00
H359   H     0.28292   0.88788   0.92052   0.00000  Uiso   1.00
O360   O     0.36279   0.30292   0.71745   0.00000  Uiso   1.00
O361   O     0.39101   0.87837   0.80994   0.00000  Uiso   1.00
O362   O     0.28687   0.05667   0.95892   0.00000  Uiso   1.00
N363   N     0.22965   0.33240   0.75345   0.00000  Uiso   1.00
N364   N     0.53713   0.02986   0.81936   0.00000  Uiso   1.00
N365   N     0.17549   0.15691   0.92552   0.00000  Uiso   1.00
N366   N     0.29531   0.14495   0.74544   0.00000  Uiso   1.00
N367   N     0.60279   0.84241   0.81135   0.00000  Uiso   1.00
N368   N     0.24115   0.96945   0.91751   0.00000  Uiso   1.00
