data_job_01824
_audit_creation_date              2018-12-19
_audit_creation_method            'Materials Studio'
_symmetry_space_group_name_H-M    'P1'
_symmetry_Int_Tables_number       1
_symmetry_cell_setting            triclinic
loop_
_symmetry_equiv_pos_as_xyz
  x,y,z
_cell_length_a                    19.8893
_cell_length_b                    19.6117
_cell_length_c                    12.4727
_cell_angle_alpha                 90.0000
_cell_angle_beta                  90.0000
_cell_angle_gamma                 90.0000
loop_
_atom_site_label
_atom_site_type_symbol
_atom_site_fract_x
_atom_site_fract_y
_atom_site_fract_z
_atom_site_U_iso_or_equiv
_atom_site_adp_type
_atom_site_occupancy
C1     C     0.77552   0.78049   0.56998   0.00000  Uiso   1.00
C2     C     0.81216   0.76376   0.46586   0.00000  Uiso   1.00
C3     C     0.80319   0.70533   0.40475   0.00000  Uiso   1.00
C4     C     0.84150   0.69955   0.31214   0.00000  Uiso   1.00
C5     C     0.89148   0.66582   0.15510   0.00000  Uiso   1.00
C6     C     0.83012   0.79248   0.65372   0.00000  Uiso   1.00
C7     C     0.83625   0.75820   0.75058   0.00000  Uiso   1.00
C8     C     0.88967   0.77661   0.81612   0.00000  Uiso   1.00
C9     C     0.96750   0.78750   0.95078   0.00000  Uiso   1.00
C10    C     0.74184   0.84941   0.55213   0.00000  Uiso   1.00
C11    C     0.67374   0.86301   0.56360   0.00000  Uiso   1.00
C12    C     0.65284   0.92936   0.54363   0.00000  Uiso   1.00
C13    C     0.59360   0.02864   0.52056   0.00000  Uiso   1.00
C14    C     0.85950   0.87415   0.51418   0.00000  Uiso   1.00
C15    C     0.85777   0.81463   0.43555   0.00000  Uiso   1.00
C16    C     0.89611   0.80894   0.34301   0.00000  Uiso   1.00
C17    C     0.88720   0.75051   0.28177   0.00000  Uiso   1.00
C18    C     0.87573   0.84335   0.62341   0.00000  Uiso   1.00
C19    C     0.92916   0.86182   0.68883   0.00000  Uiso   1.00
C20    C     0.93537   0.82757   0.78575   0.00000  Uiso   1.00
C21    C     0.78745   0.90028   0.52182   0.00000  Uiso   1.00
C22    C     0.76665   0.96662   0.50184   0.00000  Uiso   1.00
C23    C     0.69854   0.98032   0.51327   0.00000  Uiso   1.00
H24    H     0.74001   0.74089   0.59359   0.00000  Uiso   1.00
H25    H     0.76789   0.66597   0.42824   0.00000  Uiso   1.00
H26    H     0.80094   0.71885   0.77402   0.00000  Uiso   1.00
H27    H     0.63846   0.82363   0.58706   0.00000  Uiso   1.00
H28    H     0.81894   0.60533   0.23158   0.00000  Uiso   1.00
H29    H     0.88860   0.71683   0.96068   0.00000  Uiso   1.00
H30    H     0.54598   0.93780   0.56644   0.00000  Uiso   1.00
H31    H     0.89501   0.91375   0.49058   0.00000  Uiso   1.00
H32    H     0.93140   0.84832   0.31957   0.00000  Uiso   1.00
H33    H     0.96444   0.90119   0.66535   0.00000  Uiso   1.00
H34    H     0.80196   0.00597   0.47839   0.00000  Uiso   1.00
H35    H     0.95165   0.75332   0.14338   0.00000  Uiso   1.00
H36    H     0.02131   0.86483   0.87248   0.00000  Uiso   1.00
H37    H     0.67869   0.08579   0.47824   0.00000  Uiso   1.00
O38    O     0.90645   0.63315   0.07686   0.00000  Uiso   1.00
O39    O     0.99783   0.77945   0.03342   0.00000  Uiso   1.00
O40    O     0.54832   0.06935   0.51619   0.00000  Uiso   1.00
N41    N     0.84517   0.64915   0.23428   0.00000  Uiso   1.00
N42    N     0.91030   0.75339   0.91593   0.00000  Uiso   1.00
N43    N     0.58998   0.95998   0.54739   0.00000  Uiso   1.00
N44    N     0.91658   0.72878   0.18682   0.00000  Uiso   1.00
N45    N     0.98171   0.83302   0.86847   0.00000  Uiso   1.00
N46    N     0.66139   0.03961   0.49993   0.00000  Uiso   1.00
C47    C     0.77552   0.28049   0.06998   0.00000  Uiso   1.00
C48    C     0.81216   0.26376   0.96586   0.00000  Uiso   1.00
C49    C     0.80319   0.20533   0.90475   0.00000  Uiso   1.00
C50    C     0.84150   0.19955   0.81214   0.00000  Uiso   1.00
C51    C     0.89148   0.16582   0.65510   0.00000  Uiso   1.00
C52    C     0.83012   0.29248   0.15372   0.00000  Uiso   1.00
C53    C     0.83625   0.25820   0.25058   0.00000  Uiso   1.00
C54    C     0.88967   0.27661   0.31612   0.00000  Uiso   1.00
C55    C     0.96750   0.28750   0.45078   0.00000  Uiso   1.00
C56    C     0.74184   0.34941   0.05213   0.00000  Uiso   1.00
C57    C     0.67374   0.36301   0.06360   0.00000  Uiso   1.00
C58    C     0.65284   0.42936   0.04363   0.00000  Uiso   1.00
C59    C     0.59360   0.52864   0.02056   0.00000  Uiso   1.00
C60    C     0.85950   0.37415   0.01418   0.00000  Uiso   1.00
C61    C     0.85777   0.31463   0.93555   0.00000  Uiso   1.00
C62    C     0.89611   0.30894   0.84301   0.00000  Uiso   1.00
C63    C     0.88720   0.25051   0.78177   0.00000  Uiso   1.00
C64    C     0.87573   0.34335   0.12341   0.00000  Uiso   1.00
C65    C     0.92916   0.36182   0.18883   0.00000  Uiso   1.00
C66    C     0.93537   0.32757   0.28575   0.00000  Uiso   1.00
C67    C     0.78745   0.40028   0.02182   0.00000  Uiso   1.00
C68    C     0.76665   0.46662   0.00184   0.00000  Uiso   1.00
C69    C     0.69854   0.48032   0.01327   0.00000  Uiso   1.00
H70    H     0.74001   0.24089   0.09359   0.00000  Uiso   1.00
H71    H     0.76789   0.16597   0.92824   0.00000  Uiso   1.00
H72    H     0.80094   0.21885   0.27402   0.00000  Uiso   1.00
H73    H     0.63846   0.32363   0.08706   0.00000  Uiso   1.00
H74    H     0.81894   0.10533   0.73158   0.00000  Uiso   1.00
H75    H     0.88860   0.21683   0.46068   0.00000  Uiso   1.00
H76    H     0.54598   0.43780   0.06644   0.00000  Uiso   1.00
H77    H     0.89501   0.41375   0.99058   0.00000  Uiso   1.00
H78    H     0.93140   0.34832   0.81957   0.00000  Uiso   1.00
H79    H     0.96444   0.40119   0.16535   0.00000  Uiso   1.00
H80    H     0.80196   0.50597   0.97839   0.00000  Uiso   1.00
H81    H     0.95165   0.25332   0.64338   0.00000  Uiso   1.00
H82    H     0.02131   0.36483   0.37248   0.00000  Uiso   1.00
H83    H     0.67869   0.58579   0.97824   0.00000  Uiso   1.00
O84    O     0.90645   0.13315   0.57686   0.00000  Uiso   1.00
O85    O     0.99783   0.27945   0.53342   0.00000  Uiso   1.00
O86    O     0.54832   0.56935   0.01619   0.00000  Uiso   1.00
N87    N     0.84517   0.14915   0.73428   0.00000  Uiso   1.00
N88    N     0.91030   0.25339   0.41593   0.00000  Uiso   1.00
N89    N     0.58998   0.45998   0.04739   0.00000  Uiso   1.00
N90    N     0.91658   0.22878   0.68682   0.00000  Uiso   1.00
N91    N     0.98171   0.33302   0.36847   0.00000  Uiso   1.00
N92    N     0.66139   0.53961   0.99993   0.00000  Uiso   1.00
C93    C     0.22448   0.21951   0.56998   0.00000  Uiso   1.00
C94    C     0.18784   0.23624   0.46586   0.00000  Uiso   1.00
C95    C     0.19681   0.29467   0.40475   0.00000  Uiso   1.00
C96    C     0.15850   0.30045   0.31214   0.00000  Uiso   1.00
C97    C     0.10852   0.33418   0.15510   0.00000  Uiso   1.00
C98    C     0.16988   0.20752   0.65372   0.00000  Uiso   1.00
C99    C     0.16375   0.24180   0.75058   0.00000  Uiso   1.00
C100   C     0.11033   0.22339   0.81612   0.00000  Uiso   1.00
C101   C     0.03250   0.21250   0.95078   0.00000  Uiso   1.00
C102   C     0.25816   0.15059   0.55213   0.00000  Uiso   1.00
C103   C     0.32626   0.13699   0.56360   0.00000  Uiso   1.00
C104   C     0.34716   0.07064   0.54363   0.00000  Uiso   1.00
C105   C     0.40640   0.97136   0.52056   0.00000  Uiso   1.00
C106   C     0.14050   0.12585   0.51418   0.00000  Uiso   1.00
C107   C     0.14223   0.18537   0.43555   0.00000  Uiso   1.00
C108   C     0.10389   0.19106   0.34301   0.00000  Uiso   1.00
C109   C     0.11280   0.24949   0.28177   0.00000  Uiso   1.00
C110   C     0.12427   0.15665   0.62341   0.00000  Uiso   1.00
C111   C     0.07084   0.13818   0.68883   0.00000  Uiso   1.00
C112   C     0.06463   0.17243   0.78575   0.00000  Uiso   1.00
C113   C     0.21255   0.09972   0.52182   0.00000  Uiso   1.00
C114   C     0.23335   0.03338   0.50184   0.00000  Uiso   1.00
C115   C     0.30146   0.01968   0.51327   0.00000  Uiso   1.00
H116   H     0.25999   0.25911   0.59359   0.00000  Uiso   1.00
H117   H     0.23211   0.33403   0.42824   0.00000  Uiso   1.00
H118   H     0.19906   0.28115   0.77402   0.00000  Uiso   1.00
H119   H     0.36154   0.17637   0.58706   0.00000  Uiso   1.00
H120   H     0.18106   0.39467   0.23158   0.00000  Uiso   1.00
H121   H     0.11140   0.28317   0.96068   0.00000  Uiso   1.00
H122   H     0.45402   0.06220   0.56644   0.00000  Uiso   1.00
H123   H     0.10499   0.08625   0.49058   0.00000  Uiso   1.00
H124   H     0.06860   0.15168   0.31957   0.00000  Uiso   1.00
H125   H     0.03556   0.09881   0.66535   0.00000  Uiso   1.00
H126   H     0.19804   0.99403   0.47839   0.00000  Uiso   1.00
H127   H     0.04835   0.24668   0.14338   0.00000  Uiso   1.00
H128   H     0.97869   0.13517   0.87248   0.00000  Uiso   1.00
H129   H     0.32131   0.91421   0.47824   0.00000  Uiso   1.00
O130   O     0.09355   0.36685   0.07686   0.00000  Uiso   1.00
O131   O     0.00217   0.22055   0.03342   0.00000  Uiso   1.00
O132   O     0.45168   0.93065   0.51619   0.00000  Uiso   1.00
N133   N     0.15483   0.35085   0.23428   0.00000  Uiso   1.00
N134   N     0.08970   0.24661   0.91593   0.00000  Uiso   1.00
N135   N     0.41002   0.04002   0.54739   0.00000  Uiso   1.00
N136   N     0.08342   0.27122   0.18682   0.00000  Uiso   1.00
N137   N     0.01829   0.16698   0.86847   0.00000  Uiso   1.00
N138   N     0.33861   0.96039   0.49993   0.00000  Uiso   1.00
C139   C     0.22448   0.71951   0.06998   0.00000  Uiso   1.00
C140   C     0.18784   0.73624   0.96586   0.00000  Uiso   1.00
C141   C     0.19681   0.79467   0.90475   0.00000  Uiso   1.00
C142   C     0.15850   0.80045   0.81214   0.00000  Uiso   1.00
C143   C     0.10852   0.83418   0.65510   0.00000  Uiso   1.00
C144   C     0.16988   0.70752   0.15372   0.00000  Uiso   1.00
C145   C     0.16375   0.74180   0.25058   0.00000  Uiso   1.00
C146   C     0.11033   0.72339   0.31612   0.00000  Uiso   1.00
C147   C     0.03250   0.71250   0.45078   0.00000  Uiso   1.00
C148   C     0.25816   0.65059   0.05213   0.00000  Uiso   1.00
C149   C     0.32626   0.63699   0.06360   0.00000  Uiso   1.00
C150   C     0.34716   0.57064   0.04363   0.00000  Uiso   1.00
C151   C     0.40640   0.47136   0.02056   0.00000  Uiso   1.00
C152   C     0.14050   0.62585   0.01418   0.00000  Uiso   1.00
C153   C     0.14223   0.68537   0.93555   0.00000  Uiso   1.00
C154   C     0.10389   0.69106   0.84301   0.00000  Uiso   1.00
C155   C     0.11280   0.74949   0.78177   0.00000  Uiso   1.00
C156   C     0.12427   0.65665   0.12341   0.00000  Uiso   1.00
C157   C     0.07084   0.63818   0.18883   0.00000  Uiso   1.00
C158   C     0.06463   0.67243   0.28575   0.00000  Uiso   1.00
C159   C     0.21255   0.59972   0.02182   0.00000  Uiso   1.00
C160   C     0.23335   0.53338   0.00184   0.00000  Uiso   1.00
C161   C     0.30146   0.51968   0.01327   0.00000  Uiso   1.00
H162   H     0.25999   0.75911   0.09359   0.00000  Uiso   1.00
H163   H     0.23211   0.83403   0.92824   0.00000  Uiso   1.00
H164   H     0.19906   0.78115   0.27402   0.00000  Uiso   1.00
H165   H     0.36154   0.67637   0.08706   0.00000  Uiso   1.00
H166   H     0.18106   0.89467   0.73158   0.00000  Uiso   1.00
H167   H     0.11140   0.78317   0.46068   0.00000  Uiso   1.00
H168   H     0.45402   0.56220   0.06644   0.00000  Uiso   1.00
H169   H     0.10499   0.58625   0.99058   0.00000  Uiso   1.00
H170   H     0.06860   0.65168   0.81957   0.00000  Uiso   1.00
H171   H     0.03556   0.59881   0.16535   0.00000  Uiso   1.00
H172   H     0.19804   0.49403   0.97839   0.00000  Uiso   1.00
H173   H     0.04835   0.74668   0.64338   0.00000  Uiso   1.00
H174   H     0.97869   0.63517   0.37248   0.00000  Uiso   1.00
H175   H     0.32131   0.41421   0.97824   0.00000  Uiso   1.00
O176   O     0.09355   0.86685   0.57686   0.00000  Uiso   1.00
O177   O     0.00217   0.72055   0.53342   0.00000  Uiso   1.00
O178   O     0.45168   0.43065   0.01619   0.00000  Uiso   1.00
N179   N     0.15483   0.85085   0.73428   0.00000  Uiso   1.00
N180   N     0.08970   0.74661   0.41593   0.00000  Uiso   1.00
N181   N     0.41002   0.54002   0.04739   0.00000  Uiso   1.00
N182   N     0.08342   0.77122   0.68682   0.00000  Uiso   1.00
N183   N     0.01829   0.66698   0.36847   0.00000  Uiso   1.00
N184   N     0.33861   0.46039   0.99993   0.00000  Uiso   1.00
C185   C     0.27552   0.71951   0.56998   0.00000  Uiso   1.00
C186   C     0.31216   0.73624   0.46586   0.00000  Uiso   1.00
C187   C     0.30319   0.79467   0.40475   0.00000  Uiso   1.00
C188   C     0.34150   0.80045   0.31214   0.00000  Uiso   1.00
C189   C     0.39148   0.83418   0.15510   0.00000  Uiso   1.00
C190   C     0.33012   0.70752   0.65372   0.00000  Uiso   1.00
C191   C     0.33625   0.74180   0.75058   0.00000  Uiso   1.00
C192   C     0.38967   0.72339   0.81612   0.00000  Uiso   1.00
C193   C     0.46750   0.71250   0.95078   0.00000  Uiso   1.00
C194   C     0.24184   0.65059   0.55213   0.00000  Uiso   1.00
C195   C     0.17374   0.63699   0.56360   0.00000  Uiso   1.00
C196   C     0.15284   0.57064   0.54363   0.00000  Uiso   1.00
C197   C     0.09360   0.47136   0.52056   0.00000  Uiso   1.00
C198   C     0.35950   0.62585   0.51418   0.00000  Uiso   1.00
C199   C     0.35777   0.68537   0.43555   0.00000  Uiso   1.00
C200   C     0.39611   0.69106   0.34301   0.00000  Uiso   1.00
C201   C     0.38720   0.74949   0.28177   0.00000  Uiso   1.00
C202   C     0.37573   0.65665   0.62341   0.00000  Uiso   1.00
C203   C     0.42916   0.63818   0.68883   0.00000  Uiso   1.00
C204   C     0.43537   0.67243   0.78575   0.00000  Uiso   1.00
C205   C     0.28745   0.59972   0.52182   0.00000  Uiso   1.00
C206   C     0.26665   0.53338   0.50184   0.00000  Uiso   1.00
C207   C     0.19854   0.51968   0.51327   0.00000  Uiso   1.00
H208   H     0.24001   0.75911   0.59359   0.00000  Uiso   1.00
H209   H     0.26789   0.83403   0.42824   0.00000  Uiso   1.00
H210   H     0.30094   0.78115   0.77402   0.00000  Uiso   1.00
H211   H     0.13846   0.67637   0.58706   0.00000  Uiso   1.00
H212   H     0.31894   0.89467   0.23158   0.00000  Uiso   1.00
H213   H     0.38860   0.78317   0.96068   0.00000  Uiso   1.00
H214   H     0.04598   0.56220   0.56644   0.00000  Uiso   1.00
H215   H     0.39501   0.58625   0.49058   0.00000  Uiso   1.00
H216   H     0.43140   0.65168   0.31957   0.00000  Uiso   1.00
H217   H     0.46444   0.59881   0.66535   0.00000  Uiso   1.00
H218   H     0.30196   0.49403   0.47839   0.00000  Uiso   1.00
H219   H     0.45165   0.74668   0.14338   0.00000  Uiso   1.00
H220   H     0.52131   0.63517   0.87248   0.00000  Uiso   1.00
H221   H     0.17869   0.41421   0.47824   0.00000  Uiso   1.00
O222   O     0.40645   0.86685   0.07686   0.00000  Uiso   1.00
O223   O     0.49783   0.72055   0.03342   0.00000  Uiso   1.00
O224   O     0.04832   0.43065   0.51619   0.00000  Uiso   1.00
N225   N     0.34517   0.85085   0.23428   0.00000  Uiso   1.00
N226   N     0.41030   0.74661   0.91593   0.00000  Uiso   1.00
N227   N     0.08998   0.54002   0.54739   0.00000  Uiso   1.00
N228   N     0.41658   0.77122   0.18682   0.00000  Uiso   1.00
N229   N     0.48171   0.66698   0.86847   0.00000  Uiso   1.00
N230   N     0.16139   0.46039   0.49993   0.00000  Uiso   1.00
C231   C     0.27552   0.21951   0.06998   0.00000  Uiso   1.00
C232   C     0.31216   0.23624   0.96586   0.00000  Uiso   1.00
C233   C     0.30319   0.29467   0.90475   0.00000  Uiso   1.00
C234   C     0.34150   0.30045   0.81214   0.00000  Uiso   1.00
C235   C     0.39148   0.33418   0.65510   0.00000  Uiso   1.00
C236   C     0.33012   0.20752   0.15372   0.00000  Uiso   1.00
C237   C     0.33625   0.24180   0.25058   0.00000  Uiso   1.00
C238   C     0.38967   0.22339   0.31612   0.00000  Uiso   1.00
C239   C     0.46750   0.21250   0.45078   0.00000  Uiso   1.00
C240   C     0.24184   0.15059   0.05213   0.00000  Uiso   1.00
C241   C     0.17374   0.13699   0.06360   0.00000  Uiso   1.00
C242   C     0.15284   0.07064   0.04363   0.00000  Uiso   1.00
C243   C     0.09360   0.97136   0.02056   0.00000  Uiso   1.00
C244   C     0.35950   0.12585   0.01418   0.00000  Uiso   1.00
C245   C     0.35777   0.18537   0.93555   0.00000  Uiso   1.00
C246   C     0.39611   0.19106   0.84301   0.00000  Uiso   1.00
C247   C     0.38720   0.24949   0.78177   0.00000  Uiso   1.00
C248   C     0.37573   0.15665   0.12341   0.00000  Uiso   1.00
C249   C     0.42916   0.13818   0.18883   0.00000  Uiso   1.00
C250   C     0.43537   0.17243   0.28575   0.00000  Uiso   1.00
C251   C     0.28745   0.09972   0.02182   0.00000  Uiso   1.00
C252   C     0.26665   0.03338   0.00184   0.00000  Uiso   1.00
C253   C     0.19854   0.01968   0.01327   0.00000  Uiso   1.00
H254   H     0.24001   0.25911   0.09359   0.00000  Uiso   1.00
H255   H     0.26789   0.33403   0.92824   0.00000  Uiso   1.00
H256   H     0.30094   0.28115   0.27402   0.00000  Uiso   1.00
H257   H     0.13846   0.17637   0.08706   0.00000  Uiso   1.00
H258   H     0.31894   0.39467   0.73158   0.00000  Uiso   1.00
H259   H     0.38860   0.28317   0.46068   0.00000  Uiso   1.00
H260   H     0.04598   0.06220   0.06644   0.00000  Uiso   1.00
H261   H     0.39501   0.08625   0.99058   0.00000  Uiso   1.00
H262   H     0.43140   0.15168   0.81957   0.00000  Uiso   1.00
H263   H     0.46444   0.09881   0.16535   0.00000  Uiso   1.00
H264   H     0.30196   0.99403   0.97839   0.00000  Uiso   1.00
H265   H     0.45165   0.24668   0.64338   0.00000  Uiso   1.00
H266   H     0.52131   0.13517   0.37248   0.00000  Uiso   1.00
H267   H     0.17869   0.91421   0.97824   0.00000  Uiso   1.00
O268   O     0.40645   0.36685   0.57686   0.00000  Uiso   1.00
O269   O     0.49783   0.22055   0.53342   0.00000  Uiso   1.00
O270   O     0.04832   0.93065   0.01619   0.00000  Uiso   1.00
N271   N     0.34517   0.35085   0.73428   0.00000  Uiso   1.00
N272   N     0.41030   0.24661   0.41593   0.00000  Uiso   1.00
N273   N     0.08998   0.04002   0.04739   0.00000  Uiso   1.00
N274   N     0.41658   0.27122   0.68682   0.00000  Uiso   1.00
N275   N     0.48171   0.16698   0.36847   0.00000  Uiso   1.00
N276   N     0.16139   0.96039   0.99993   0.00000  Uiso   1.00
C277   C     0.72448   0.28049   0.56998   0.00000  Uiso   1.00
C278   C     0.68784   0.26376   0.46586   0.00000  Uiso   1.00
C279   C     0.69681   0.20533   0.40475   0.00000  Uiso   1.00
C280   C     0.65850   0.19955   0.31214   0.00000  Uiso   1.00
C281   C     0.60852   0.16582   0.15510   0.00000  Uiso   1.00
C282   C     0.66988   0.29248   0.65372   0.00000  Uiso   1.00
C283   C     0.66375   0.25820   0.75058   0.00000  Uiso   1.00
C284   C     0.61033   0.27661   0.81612   0.00000  Uiso   1.00
C285   C     0.53250   0.28750   0.95078   0.00000  Uiso   1.00
C286   C     0.75816   0.34941   0.55213   0.00000  Uiso   1.00
C287   C     0.82626   0.36301   0.56360   0.00000  Uiso   1.00
C288   C     0.84716   0.42936   0.54363   0.00000  Uiso   1.00
C289   C     0.90640   0.52864   0.52056   0.00000  Uiso   1.00
C290   C     0.64050   0.37415   0.51418   0.00000  Uiso   1.00
C291   C     0.64223   0.31463   0.43555   0.00000  Uiso   1.00
C292   C     0.60389   0.30894   0.34301   0.00000  Uiso   1.00
C293   C     0.61280   0.25051   0.28177   0.00000  Uiso   1.00
C294   C     0.62427   0.34335   0.62341   0.00000  Uiso   1.00
C295   C     0.57084   0.36182   0.68883   0.00000  Uiso   1.00
C296   C     0.56463   0.32757   0.78575   0.00000  Uiso   1.00
C297   C     0.71255   0.40028   0.52182   0.00000  Uiso   1.00
C298   C     0.73335   0.46662   0.50184   0.00000  Uiso   1.00
C299   C     0.80146   0.48032   0.51327   0.00000  Uiso   1.00
H300   H     0.75999   0.24089   0.59359   0.00000  Uiso   1.00
H301   H     0.73211   0.16597   0.42824   0.00000  Uiso   1.00
H302   H     0.69906   0.21885   0.77402   0.00000  Uiso   1.00
H303   H     0.86154   0.32363   0.58706   0.00000  Uiso   1.00
H304   H     0.68106   0.10533   0.23158   0.00000  Uiso   1.00
H305   H     0.61140   0.21683   0.96068   0.00000  Uiso   1.00
H306   H     0.95402   0.43780   0.56644   0.00000  Uiso   1.00
H307   H     0.60499   0.41375   0.49058   0.00000  Uiso   1.00
H308   H     0.56860   0.34832   0.31957   0.00000  Uiso   1.00
H309   H     0.53556   0.40119   0.66535   0.00000  Uiso   1.00
H310   H     0.69804   0.50597   0.47839   0.00000  Uiso   1.00
H311   H     0.54835   0.25332   0.14338   0.00000  Uiso   1.00
H312   H     0.47869   0.36483   0.87248   0.00000  Uiso   1.00
H313   H     0.82131   0.58579   0.47824   0.00000  Uiso   1.00
O314   O     0.59355   0.13315   0.07686   0.00000  Uiso   1.00
O315   O     0.50217   0.27945   0.03342   0.00000  Uiso   1.00
O316   O     0.95168   0.56935   0.51619   0.00000  Uiso   1.00
N317   N     0.65483   0.14915   0.23428   0.00000  Uiso   1.00
N318   N     0.58970   0.25339   0.91593   0.00000  Uiso   1.00
N319   N     0.91002   0.45998   0.54739   0.00000  Uiso   1.00
N320   N     0.58342   0.22878   0.18682   0.00000  Uiso   1.00
N321   N     0.51829   0.33302   0.86847   0.00000  Uiso   1.00
N322   N     0.83861   0.53961   0.49993   0.00000  Uiso   1.00
C323   C     0.72448   0.78049   0.06998   0.00000  Uiso   1.00
C324   C     0.68784   0.76376   0.96586   0.00000  Uiso   1.00
C325   C     0.69681   0.70533   0.90475   0.00000  Uiso   1.00
C326   C     0.65850   0.69955   0.81214   0.00000  Uiso   1.00
C327   C     0.60852   0.66582   0.65510   0.00000  Uiso   1.00
C328   C     0.66988   0.79248   0.15372   0.00000  Uiso   1.00
C329   C     0.66375   0.75820   0.25058   0.00000  Uiso   1.00
C330   C     0.61033   0.77661   0.31612   0.00000  Uiso   1.00
C331   C     0.53250   0.78750   0.45078   0.00000  Uiso   1.00
C332   C     0.75816   0.84941   0.05213   0.00000  Uiso   1.00
C333   C     0.82626   0.86301   0.06360   0.00000  Uiso   1.00
C334   C     0.84716   0.92936   0.04363   0.00000  Uiso   1.00
C335   C     0.90640   0.02864   0.02056   0.00000  Uiso   1.00
C336   C     0.64050   0.87415   0.01418   0.00000  Uiso   1.00
C337   C     0.64223   0.81463   0.93555   0.00000  Uiso   1.00
C338   C     0.60389   0.80894   0.84301   0.00000  Uiso   1.00
C339   C     0.61280   0.75051   0.78177   0.00000  Uiso   1.00
C340   C     0.62427   0.84335   0.12341   0.00000  Uiso   1.00
C341   C     0.57084   0.86182   0.18883   0.00000  Uiso   1.00
C342   C     0.56463   0.82757   0.28575   0.00000  Uiso   1.00
C343   C     0.71255   0.90028   0.02182   0.00000  Uiso   1.00
C344   C     0.73335   0.96662   0.00184   0.00000  Uiso   1.00
C345   C     0.80146   0.98032   0.01327   0.00000  Uiso   1.00
H346   H     0.75999   0.74089   0.09359   0.00000  Uiso   1.00
H347   H     0.73211   0.66597   0.92824   0.00000  Uiso   1.00
H348   H     0.69906   0.71885   0.27402   0.00000  Uiso   1.00
H349   H     0.86154   0.82363   0.08706   0.00000  Uiso   1.00
H350   H     0.68106   0.60533   0.73158   0.00000  Uiso   1.00
H351   H     0.61140   0.71683   0.46068   0.00000  Uiso   1.00
H352   H     0.95402   0.93780   0.06644   0.00000  Uiso   1.00
H353   H     0.60499   0.91375   0.99058   0.00000  Uiso   1.00
H354   H     0.56860   0.84832   0.81957   0.00000  Uiso   1.00
H355   H     0.53556   0.90119   0.16535   0.00000  Uiso   1.00
H356   H     0.69804   0.00597   0.97839   0.00000  Uiso   1.00
H357   H     0.54835   0.75332   0.64338   0.00000  Uiso   1.00
H358   H     0.47869   0.86483   0.37248   0.00000  Uiso   1.00
H359   H     0.82131   0.08579   0.97824   0.00000  Uiso   1.00
O360   O     0.59355   0.63315   0.57686   0.00000  Uiso   1.00
O361   O     0.50217   0.77945   0.53342   0.00000  Uiso   1.00
O362   O     0.95168   0.06935   0.01619   0.00000  Uiso   1.00
N363   N     0.65483   0.64915   0.73428   0.00000  Uiso   1.00
N364   N     0.58970   0.75339   0.41593   0.00000  Uiso   1.00
N365   N     0.91002   0.95998   0.04739   0.00000  Uiso   1.00
N366   N     0.58342   0.72878   0.68682   0.00000  Uiso   1.00
N367   N     0.51829   0.83302   0.36847   0.00000  Uiso   1.00
N368   N     0.83861   0.03961   0.99993   0.00000  Uiso   1.00
