data_job_03482
_audit_creation_date              2018-12-19
_audit_creation_method            'Materials Studio'
_symmetry_space_group_name_H-M    'P1'
_symmetry_Int_Tables_number       1
_symmetry_cell_setting            triclinic
loop_
_symmetry_equiv_pos_as_xyz
  x,y,z
_cell_length_a                    16.8592
_cell_length_b                    12.1030
_cell_length_c                    24.6335
_cell_angle_alpha                 90.0000
_cell_angle_beta                  135.2114
_cell_angle_gamma                 90.0000
loop_
_atom_site_label
_atom_site_type_symbol
_atom_site_fract_x
_atom_site_fract_y
_atom_site_fract_z
_atom_site_U_iso_or_equiv
_atom_site_adp_type
_atom_site_occupancy
C1     C     0.23777   0.45199   0.03322   0.00000  Uiso   1.00
C2     C     0.28693   0.35612   0.02467   0.00000  Uiso   1.00
C3     C     0.30200   0.24910   0.05086   0.00000  Uiso   1.00
C4     C     0.34833   0.17335   0.03742   0.00000  Uiso   1.00
C5     C     0.42013   0.01989   0.03000   0.00000  Uiso   1.00
C6     C     0.32620   0.54330   0.07480   0.00000  Uiso   1.00
C7     C     0.37426   0.59367   0.14315   0.00000  Uiso   1.00
C8     C     0.45363   0.67550   0.17190   0.00000  Uiso   1.00
C9     C     0.58632   0.81270   0.24229   0.00000  Uiso   1.00
C10    C     0.13823   0.49477   0.95191   0.00000  Uiso   1.00
C11    C     0.02824   0.50437   0.91692   0.00000  Uiso   1.00
C12    C     0.94936   0.54536   0.84220   0.00000  Uiso   1.00
C13    C     0.79020   0.60722   0.72177   0.00000  Uiso   1.00
C14    C     0.29326   0.50776   0.96276   0.00000  Uiso   1.00
C15    C     0.31708   0.38642   0.98640   0.00000  Uiso   1.00
C16    C     0.36339   0.31081   0.97291   0.00000  Uiso   1.00
C17    C     0.37852   0.20369   0.99908   0.00000  Uiso   1.00
C18    C     0.35634   0.57360   0.03654   0.00000  Uiso   1.00
C19    C     0.43565   0.65537   0.06520   0.00000  Uiso   1.00
C20    C     0.48382   0.70585   0.13356   0.00000  Uiso   1.00
C21    C     0.16836   0.52506   0.91363   0.00000  Uiso   1.00
C22    C     0.08964   0.56606   0.83896   0.00000  Uiso   1.00
C23    C     0.97956   0.57571   0.80387   0.00000  Uiso   1.00
H24    H     0.21431   0.42841   0.06301   0.00000  Uiso   1.00
H25    H     0.27867   0.22570   0.08048   0.00000  Uiso   1.00
H26    H     0.35091   0.57022   0.17274   0.00000  Uiso   1.00
H27    H     0.00495   0.48092   0.94655   0.00000  Uiso   1.00
H28    H     0.36336   0.01431   0.08299   0.00000  Uiso   1.00
H29    H     0.51565   0.74078   0.27752   0.00000  Uiso   1.00
H30    H     0.78612   0.55249   0.80055   0.00000  Uiso   1.00
H31    H     0.31673   0.53135   0.93297   0.00000  Uiso   1.00
H32    H     0.38671   0.33427   0.94329   0.00000  Uiso   1.00
H33    H     0.45895   0.67880   0.03556   0.00000  Uiso   1.00
H34    H     0.11299   0.58950   0.80937   0.00000  Uiso   1.00
H35    H     0.45105   0.10244   0.97165   0.00000  Uiso   1.00
H36    H     0.60333   0.82891   0.16618   0.00000  Uiso   1.00
H37    H     0.87381   0.64061   0.68921   0.00000  Uiso   1.00
O38    O     0.45143   0.92689   0.03649   0.00000  Uiso   1.00
O39    O     0.65120   0.88000   0.29169   0.00000  Uiso   1.00
O40    O     0.69409   0.63295   0.66591   0.00000  Uiso   1.00
N41    N     0.37437   0.06210   0.05536   0.00000  Uiso   1.00
N42    N     0.51676   0.74129   0.23724   0.00000  Uiso   1.00
N43    N     0.83473   0.56527   0.79131   0.00000  Uiso   1.00
N44    N     0.42156   0.10951   0.99544   0.00000  Uiso   1.00
N45    N     0.56395   0.78871   0.17733   0.00000  Uiso   1.00
N46    N     0.88191   0.61269   0.73140   0.00000  Uiso   1.00
C47    C     0.76223   0.95199   0.46678   0.00000  Uiso   1.00
C48    C     0.71307   0.85612   0.47533   0.00000  Uiso   1.00
C49    C     0.69800   0.74910   0.44914   0.00000  Uiso   1.00
C50    C     0.65167   0.67335   0.46258   0.00000  Uiso   1.00
C51    C     0.57987   0.51989   0.47000   0.00000  Uiso   1.00
C52    C     0.67380   0.04330   0.42520   0.00000  Uiso   1.00
C53    C     0.62574   0.09367   0.35685   0.00000  Uiso   1.00
C54    C     0.54637   0.17550   0.32810   0.00000  Uiso   1.00
C55    C     0.41368   0.31270   0.25771   0.00000  Uiso   1.00
C56    C     0.86177   0.99477   0.54809   0.00000  Uiso   1.00
C57    C     0.97176   0.00437   0.58308   0.00000  Uiso   1.00
C58    C     0.05064   0.04536   0.65780   0.00000  Uiso   1.00
C59    C     0.20980   0.10722   0.77823   0.00000  Uiso   1.00
C60    C     0.70674   0.00776   0.53724   0.00000  Uiso   1.00
C61    C     0.68292   0.88642   0.51360   0.00000  Uiso   1.00
C62    C     0.63661   0.81081   0.52709   0.00000  Uiso   1.00
C63    C     0.62148   0.70369   0.50092   0.00000  Uiso   1.00
C64    C     0.64366   0.07360   0.46346   0.00000  Uiso   1.00
C65    C     0.56435   0.15537   0.43480   0.00000  Uiso   1.00
C66    C     0.51618   0.20585   0.36644   0.00000  Uiso   1.00
C67    C     0.83164   0.02506   0.58637   0.00000  Uiso   1.00
C68    C     0.91036   0.06606   0.66104   0.00000  Uiso   1.00
C69    C     0.02044   0.07571   0.69613   0.00000  Uiso   1.00
H70    H     0.78569   0.92841   0.43699   0.00000  Uiso   1.00
H71    H     0.72133   0.72570   0.41952   0.00000  Uiso   1.00
H72    H     0.64909   0.07022   0.32726   0.00000  Uiso   1.00
H73    H     0.99505   0.98092   0.55345   0.00000  Uiso   1.00
H74    H     0.63664   0.51431   0.41701   0.00000  Uiso   1.00
H75    H     0.48435   0.24078   0.22248   0.00000  Uiso   1.00
H76    H     0.21388   0.05249   0.69945   0.00000  Uiso   1.00
H77    H     0.68327   0.03135   0.56703   0.00000  Uiso   1.00
H78    H     0.61329   0.83427   0.55671   0.00000  Uiso   1.00
H79    H     0.54105   0.17880   0.46444   0.00000  Uiso   1.00
H80    H     0.88701   0.08950   0.69063   0.00000  Uiso   1.00
H81    H     0.54895   0.60244   0.52835   0.00000  Uiso   1.00
H82    H     0.39667   0.32891   0.33382   0.00000  Uiso   1.00
H83    H     0.12619   0.14061   0.81079   0.00000  Uiso   1.00
O84    O     0.54857   0.42689   0.46351   0.00000  Uiso   1.00
O85    O     0.34880   0.38000   0.20831   0.00000  Uiso   1.00
O86    O     0.30591   0.13295   0.83409   0.00000  Uiso   1.00
N87    N     0.62563   0.56210   0.44464   0.00000  Uiso   1.00
N88    N     0.48324   0.24129   0.26276   0.00000  Uiso   1.00
N89    N     0.16527   0.06527   0.70869   0.00000  Uiso   1.00
N90    N     0.57844   0.60951   0.50456   0.00000  Uiso   1.00
N91    N     0.43605   0.28871   0.32267   0.00000  Uiso   1.00
N92    N     0.11809   0.11269   0.76860   0.00000  Uiso   1.00
C93    C     0.76223   0.54801   0.96678   0.00000  Uiso   1.00
C94    C     0.71307   0.64388   0.97533   0.00000  Uiso   1.00
C95    C     0.69800   0.75090   0.94914   0.00000  Uiso   1.00
C96    C     0.65167   0.82665   0.96258   0.00000  Uiso   1.00
C97    C     0.57987   0.98011   0.97000   0.00000  Uiso   1.00
C98    C     0.67380   0.45670   0.92520   0.00000  Uiso   1.00
C99    C     0.62574   0.40633   0.85685   0.00000  Uiso   1.00
C100   C     0.54637   0.32450   0.82810   0.00000  Uiso   1.00
C101   C     0.41368   0.18730   0.75771   0.00000  Uiso   1.00
C102   C     0.86177   0.50523   0.04809   0.00000  Uiso   1.00
C103   C     0.97176   0.49563   0.08308   0.00000  Uiso   1.00
C104   C     0.05064   0.45464   0.15780   0.00000  Uiso   1.00
C105   C     0.20980   0.39278   0.27823   0.00000  Uiso   1.00
C106   C     0.70674   0.49224   0.03724   0.00000  Uiso   1.00
C107   C     0.68292   0.61358   0.01360   0.00000  Uiso   1.00
C108   C     0.63661   0.68919   0.02709   0.00000  Uiso   1.00
C109   C     0.62148   0.79631   0.00092   0.00000  Uiso   1.00
C110   C     0.64366   0.42640   0.96346   0.00000  Uiso   1.00
C111   C     0.56435   0.34463   0.93480   0.00000  Uiso   1.00
C112   C     0.51618   0.29415   0.86644   0.00000  Uiso   1.00
C113   C     0.83164   0.47494   0.08637   0.00000  Uiso   1.00
C114   C     0.91036   0.43394   0.16104   0.00000  Uiso   1.00
C115   C     0.02044   0.42429   0.19613   0.00000  Uiso   1.00
H116   H     0.78569   0.57159   0.93699   0.00000  Uiso   1.00
H117   H     0.72133   0.77430   0.91952   0.00000  Uiso   1.00
H118   H     0.64909   0.42978   0.82726   0.00000  Uiso   1.00
H119   H     0.99505   0.51908   0.05345   0.00000  Uiso   1.00
H120   H     0.63664   0.98569   0.91701   0.00000  Uiso   1.00
H121   H     0.48435   0.25922   0.72248   0.00000  Uiso   1.00
H122   H     0.21388   0.44751   0.19945   0.00000  Uiso   1.00
H123   H     0.68327   0.46865   0.06703   0.00000  Uiso   1.00
H124   H     0.61329   0.66573   0.05671   0.00000  Uiso   1.00
H125   H     0.54105   0.32120   0.96444   0.00000  Uiso   1.00
H126   H     0.88701   0.41050   0.19063   0.00000  Uiso   1.00
H127   H     0.54895   0.89756   0.02835   0.00000  Uiso   1.00
H128   H     0.39667   0.17109   0.83382   0.00000  Uiso   1.00
H129   H     0.12619   0.35939   0.31079   0.00000  Uiso   1.00
O130   O     0.54857   0.07311   0.96351   0.00000  Uiso   1.00
O131   O     0.34880   0.12000   0.70831   0.00000  Uiso   1.00
O132   O     0.30591   0.36705   0.33409   0.00000  Uiso   1.00
N133   N     0.62563   0.93790   0.94464   0.00000  Uiso   1.00
N134   N     0.48324   0.25871   0.76276   0.00000  Uiso   1.00
N135   N     0.16527   0.43473   0.20869   0.00000  Uiso   1.00
N136   N     0.57844   0.89049   0.00456   0.00000  Uiso   1.00
N137   N     0.43605   0.21129   0.82267   0.00000  Uiso   1.00
N138   N     0.11809   0.38731   0.26860   0.00000  Uiso   1.00
C139   C     0.23777   0.04801   0.53322   0.00000  Uiso   1.00
C140   C     0.28693   0.14388   0.52467   0.00000  Uiso   1.00
C141   C     0.30200   0.25090   0.55086   0.00000  Uiso   1.00
C142   C     0.34833   0.32665   0.53742   0.00000  Uiso   1.00
C143   C     0.42013   0.48011   0.53000   0.00000  Uiso   1.00
C144   C     0.32620   0.95670   0.57480   0.00000  Uiso   1.00
C145   C     0.37426   0.90633   0.64315   0.00000  Uiso   1.00
C146   C     0.45363   0.82450   0.67190   0.00000  Uiso   1.00
C147   C     0.58632   0.68730   0.74229   0.00000  Uiso   1.00
C148   C     0.13823   0.00523   0.45191   0.00000  Uiso   1.00
C149   C     0.02824   0.99563   0.41692   0.00000  Uiso   1.00
C150   C     0.94936   0.95464   0.34220   0.00000  Uiso   1.00
C151   C     0.79020   0.89278   0.22177   0.00000  Uiso   1.00
C152   C     0.29326   0.99224   0.46276   0.00000  Uiso   1.00
C153   C     0.31708   0.11358   0.48640   0.00000  Uiso   1.00
C154   C     0.36339   0.18919   0.47291   0.00000  Uiso   1.00
C155   C     0.37852   0.29631   0.49908   0.00000  Uiso   1.00
C156   C     0.35634   0.92640   0.53654   0.00000  Uiso   1.00
C157   C     0.43565   0.84463   0.56520   0.00000  Uiso   1.00
C158   C     0.48382   0.79415   0.63356   0.00000  Uiso   1.00
C159   C     0.16836   0.97494   0.41363   0.00000  Uiso   1.00
C160   C     0.08964   0.93394   0.33896   0.00000  Uiso   1.00
C161   C     0.97956   0.92429   0.30387   0.00000  Uiso   1.00
H162   H     0.21431   0.07159   0.56301   0.00000  Uiso   1.00
H163   H     0.27867   0.27430   0.58048   0.00000  Uiso   1.00
H164   H     0.35091   0.92978   0.67274   0.00000  Uiso   1.00
H165   H     0.00495   0.01908   0.44655   0.00000  Uiso   1.00
H166   H     0.36336   0.48569   0.58299   0.00000  Uiso   1.00
H167   H     0.51565   0.75922   0.77752   0.00000  Uiso   1.00
H168   H     0.78612   0.94751   0.30055   0.00000  Uiso   1.00
H169   H     0.31673   0.96865   0.43297   0.00000  Uiso   1.00
H170   H     0.38671   0.16573   0.44329   0.00000  Uiso   1.00
H171   H     0.45895   0.82120   0.53556   0.00000  Uiso   1.00
H172   H     0.11299   0.91050   0.30937   0.00000  Uiso   1.00
H173   H     0.45105   0.39756   0.47165   0.00000  Uiso   1.00
H174   H     0.60333   0.67109   0.66618   0.00000  Uiso   1.00
H175   H     0.87381   0.85939   0.18921   0.00000  Uiso   1.00
O176   O     0.45143   0.57311   0.53649   0.00000  Uiso   1.00
O177   O     0.65120   0.62000   0.79169   0.00000  Uiso   1.00
O178   O     0.69409   0.86705   0.16591   0.00000  Uiso   1.00
N179   N     0.37437   0.43790   0.55536   0.00000  Uiso   1.00
N180   N     0.51676   0.75871   0.73724   0.00000  Uiso   1.00
N181   N     0.83473   0.93473   0.29131   0.00000  Uiso   1.00
N182   N     0.42156   0.39049   0.49544   0.00000  Uiso   1.00
N183   N     0.56395   0.71129   0.67733   0.00000  Uiso   1.00
N184   N     0.88191   0.88731   0.23140   0.00000  Uiso   1.00
