data_job_01487
_audit_creation_date              2018-12-19
_audit_creation_method            'Materials Studio'
_symmetry_space_group_name_H-M    'P1'
_symmetry_Int_Tables_number       1
_symmetry_cell_setting            triclinic
loop_
_symmetry_equiv_pos_as_xyz
  x,y,z
_cell_length_a                    26.4372
_cell_length_b                    8.7768
_cell_length_c                    35.8381
_cell_angle_alpha                 90.0000
_cell_angle_beta                  140.8470
_cell_angle_gamma                 90.0000
loop_
_atom_site_label
_atom_site_type_symbol
_atom_site_fract_x
_atom_site_fract_y
_atom_site_fract_z
_atom_site_U_iso_or_equiv
_atom_site_adp_type
_atom_site_occupancy
C1     C     0.03916   0.18820   0.40711   0.00000  Uiso   1.00
C2     C     0.08711   0.14317   0.40004   0.00000  Uiso   1.00
C3     C     0.15603   0.21475   0.42675   0.00000  Uiso   1.00
C4     C     0.19103   0.15635   0.41467   0.00000  Uiso   1.00
C5     C     0.27045   0.10557   0.40936   0.00000  Uiso   1.00
C6     C     0.95385   0.21704   0.34482   0.00000  Uiso   1.00
C7     C     0.91073   0.35072   0.32512   0.00000  Uiso   1.00
C8     C     0.83355   0.35449   0.26656   0.00000  Uiso   1.00
C9     C     0.70606   0.41836   0.17554   0.00000  Uiso   1.00
C10    C     0.03511   0.04609   0.42920   0.00000  Uiso   1.00
C11    C     0.06030   0.03602   0.48043   0.00000  Uiso   1.00
C12    C     0.05151   0.89587   0.49290   0.00000  Uiso   1.00
C13    C     0.05020   0.69430   0.53289   0.00000  Uiso   1.00
C14    C     0.97875   0.95720   0.33814   0.00000  Uiso   1.00
C15    C     0.05429   0.01771   0.36258   0.00000  Uiso   1.00
C16    C     0.08919   0.95918   0.35045   0.00000  Uiso   1.00
C17    C     0.15816   0.03065   0.37714   0.00000  Uiso   1.00
C18    C     0.92104   0.09158   0.30737   0.00000  Uiso   1.00
C19    C     0.84389   0.09515   0.24882   0.00000  Uiso   1.00
C20    C     0.80067   0.22880   0.22903   0.00000  Uiso   1.00
C21    C     0.00230   0.92061   0.39174   0.00000  Uiso   1.00
C22    C     0.99346   0.78045   0.40413   0.00000  Uiso   1.00
C23    C     0.01864   0.77017   0.45537   0.00000  Uiso   1.00
H24    H     0.06470   0.28588   0.43627   0.00000  Uiso   1.00
H25    H     0.18141   0.31185   0.45573   0.00000  Uiso   1.00
H26    H     0.93614   0.44779   0.35412   0.00000  Uiso   1.00
H27    H     0.08569   0.13314   0.50941   0.00000  Uiso   1.00
H28    H     0.29631   0.28535   0.46078   0.00000  Uiso   1.00
H29    H     0.77914   0.57196   0.24652   0.00000  Uiso   1.00
H30    H     0.09449   0.90847   0.57398   0.00000  Uiso   1.00
H31    H     0.95319   0.85951   0.30898   0.00000  Uiso   1.00
H32    H     0.06378   0.86208   0.32146   0.00000  Uiso   1.00
H33    H     0.81852   0.99803   0.21985   0.00000  Uiso   1.00
H34    H     0.96807   0.68338   0.37513   0.00000  Uiso   1.00
H35    H     0.20084   0.92030   0.35180   0.00000  Uiso   1.00
H36    H     0.68367   0.20692   0.13754   0.00000  Uiso   1.00
H37    H     0.99902   0.54342   0.46499   0.00000  Uiso   1.00
O38    O     0.32332   0.11224   0.41678   0.00000  Uiso   1.00
O39    O     0.64481   0.48826   0.13569   0.00000  Uiso   1.00
O40    O     0.05855   0.61777   0.56530   0.00000  Uiso   1.00
N41    N     0.25867   0.19906   0.43343   0.00000  Uiso   1.00
N42    N     0.77516   0.46704   0.23311   0.00000  Uiso   1.00
N43    N     0.06996   0.84674   0.53924   0.00000  Uiso   1.00
N44    N     0.20730   0.00263   0.37478   0.00000  Uiso   1.00
N45    N     0.72379   0.27061   0.17447   0.00000  Uiso   1.00
N46    N     0.01859   0.65031   0.48060   0.00000  Uiso   1.00
C47    C     0.53916   0.68820   0.40711   0.00000  Uiso   1.00
C48    C     0.58711   0.64317   0.40004   0.00000  Uiso   1.00
C49    C     0.65603   0.71475   0.42675   0.00000  Uiso   1.00
C50    C     0.69103   0.65635   0.41467   0.00000  Uiso   1.00
C51    C     0.77045   0.60557   0.40936   0.00000  Uiso   1.00
C52    C     0.45385   0.71704   0.34482   0.00000  Uiso   1.00
C53    C     0.41073   0.85072   0.32512   0.00000  Uiso   1.00
C54    C     0.33355   0.85449   0.26656   0.00000  Uiso   1.00
C55    C     0.20606   0.91836   0.17554   0.00000  Uiso   1.00
C56    C     0.53511   0.54609   0.42920   0.00000  Uiso   1.00
C57    C     0.56030   0.53602   0.48043   0.00000  Uiso   1.00
C58    C     0.55151   0.39587   0.49290   0.00000  Uiso   1.00
C59    C     0.55020   0.19430   0.53289   0.00000  Uiso   1.00
C60    C     0.47875   0.45720   0.33814   0.00000  Uiso   1.00
C61    C     0.55429   0.51771   0.36258   0.00000  Uiso   1.00
C62    C     0.58919   0.45918   0.35045   0.00000  Uiso   1.00
C63    C     0.65816   0.53065   0.37714   0.00000  Uiso   1.00
C64    C     0.42104   0.59158   0.30737   0.00000  Uiso   1.00
C65    C     0.34389   0.59515   0.24882   0.00000  Uiso   1.00
C66    C     0.30067   0.72880   0.22903   0.00000  Uiso   1.00
C67    C     0.50230   0.42061   0.39174   0.00000  Uiso   1.00
C68    C     0.49346   0.28045   0.40413   0.00000  Uiso   1.00
C69    C     0.51864   0.27017   0.45537   0.00000  Uiso   1.00
H70    H     0.56470   0.78588   0.43627   0.00000  Uiso   1.00
H71    H     0.68141   0.81185   0.45573   0.00000  Uiso   1.00
H72    H     0.43614   0.94779   0.35412   0.00000  Uiso   1.00
H73    H     0.58569   0.63314   0.50941   0.00000  Uiso   1.00
H74    H     0.79631   0.78535   0.46078   0.00000  Uiso   1.00
H75    H     0.27914   0.07196   0.24652   0.00000  Uiso   1.00
H76    H     0.59449   0.40847   0.57398   0.00000  Uiso   1.00
H77    H     0.45319   0.35951   0.30898   0.00000  Uiso   1.00
H78    H     0.56378   0.36208   0.32146   0.00000  Uiso   1.00
H79    H     0.31852   0.49803   0.21985   0.00000  Uiso   1.00
H80    H     0.46807   0.18338   0.37513   0.00000  Uiso   1.00
H81    H     0.70084   0.42030   0.35180   0.00000  Uiso   1.00
H82    H     0.18367   0.70692   0.13754   0.00000  Uiso   1.00
H83    H     0.49902   0.04342   0.46499   0.00000  Uiso   1.00
O84    O     0.82332   0.61224   0.41678   0.00000  Uiso   1.00
O85    O     0.14481   0.98826   0.13569   0.00000  Uiso   1.00
O86    O     0.55855   0.11777   0.56530   0.00000  Uiso   1.00
N87    N     0.75867   0.69906   0.43343   0.00000  Uiso   1.00
N88    N     0.27516   0.96704   0.23311   0.00000  Uiso   1.00
N89    N     0.56996   0.34674   0.53924   0.00000  Uiso   1.00
N90    N     0.70730   0.50263   0.37478   0.00000  Uiso   1.00
N91    N     0.22379   0.77061   0.17447   0.00000  Uiso   1.00
N92    N     0.51859   0.15031   0.48060   0.00000  Uiso   1.00
C93    C     0.96084   0.18820   0.09289   0.00000  Uiso   1.00
C94    C     0.91289   0.14317   0.09996   0.00000  Uiso   1.00
C95    C     0.84397   0.21475   0.07325   0.00000  Uiso   1.00
C96    C     0.80897   0.15635   0.08533   0.00000  Uiso   1.00
C97    C     0.72955   0.10557   0.09064   0.00000  Uiso   1.00
C98    C     0.04615   0.21704   0.15518   0.00000  Uiso   1.00
C99    C     0.08927   0.35072   0.17488   0.00000  Uiso   1.00
C100   C     0.16645   0.35449   0.23344   0.00000  Uiso   1.00
C101   C     0.29394   0.41836   0.32446   0.00000  Uiso   1.00
C102   C     0.96489   0.04609   0.07080   0.00000  Uiso   1.00
C103   C     0.93970   0.03602   0.01957   0.00000  Uiso   1.00
C104   C     0.94849   0.89587   0.00710   0.00000  Uiso   1.00
C105   C     0.94980   0.69430   0.96711   0.00000  Uiso   1.00
C106   C     0.02125   0.95720   0.16186   0.00000  Uiso   1.00
C107   C     0.94571   0.01771   0.13742   0.00000  Uiso   1.00
C108   C     0.91081   0.95918   0.14955   0.00000  Uiso   1.00
C109   C     0.84184   0.03065   0.12286   0.00000  Uiso   1.00
C110   C     0.07896   0.09158   0.19263   0.00000  Uiso   1.00
C111   C     0.15611   0.09515   0.25118   0.00000  Uiso   1.00
C112   C     0.19933   0.22880   0.27097   0.00000  Uiso   1.00
C113   C     0.99770   0.92061   0.10826   0.00000  Uiso   1.00
C114   C     0.00654   0.78045   0.09587   0.00000  Uiso   1.00
C115   C     0.98136   0.77017   0.04463   0.00000  Uiso   1.00
H116   H     0.93530   0.28588   0.06373   0.00000  Uiso   1.00
H117   H     0.81859   0.31185   0.04427   0.00000  Uiso   1.00
H118   H     0.06386   0.44779   0.14588   0.00000  Uiso   1.00
H119   H     0.91431   0.13314   0.99059   0.00000  Uiso   1.00
H120   H     0.70369   0.28535   0.03922   0.00000  Uiso   1.00
H121   H     0.22086   0.57196   0.25348   0.00000  Uiso   1.00
H122   H     0.90551   0.90847   0.92602   0.00000  Uiso   1.00
H123   H     0.04681   0.85951   0.19102   0.00000  Uiso   1.00
H124   H     0.93622   0.86208   0.17854   0.00000  Uiso   1.00
H125   H     0.18148   0.99803   0.28015   0.00000  Uiso   1.00
H126   H     0.03193   0.68338   0.12487   0.00000  Uiso   1.00
H127   H     0.79916   0.92030   0.14820   0.00000  Uiso   1.00
H128   H     0.31633   0.20692   0.36246   0.00000  Uiso   1.00
H129   H     0.00098   0.54342   0.03501   0.00000  Uiso   1.00
O130   O     0.67668   0.11224   0.08322   0.00000  Uiso   1.00
O131   O     0.35519   0.48826   0.36431   0.00000  Uiso   1.00
O132   O     0.94145   0.61777   0.93470   0.00000  Uiso   1.00
N133   N     0.74133   0.19906   0.06657   0.00000  Uiso   1.00
N134   N     0.22484   0.46704   0.26689   0.00000  Uiso   1.00
N135   N     0.93004   0.84674   0.96076   0.00000  Uiso   1.00
N136   N     0.79270   0.00263   0.12522   0.00000  Uiso   1.00
N137   N     0.27621   0.27061   0.32553   0.00000  Uiso   1.00
N138   N     0.98141   0.65031   0.01940   0.00000  Uiso   1.00
C139   C     0.46084   0.68820   0.09289   0.00000  Uiso   1.00
C140   C     0.41289   0.64317   0.09996   0.00000  Uiso   1.00
C141   C     0.34397   0.71475   0.07325   0.00000  Uiso   1.00
C142   C     0.30897   0.65635   0.08533   0.00000  Uiso   1.00
C143   C     0.22955   0.60557   0.09064   0.00000  Uiso   1.00
C144   C     0.54615   0.71704   0.15518   0.00000  Uiso   1.00
C145   C     0.58927   0.85072   0.17488   0.00000  Uiso   1.00
C146   C     0.66645   0.85449   0.23344   0.00000  Uiso   1.00
C147   C     0.79394   0.91836   0.32446   0.00000  Uiso   1.00
C148   C     0.46489   0.54609   0.07080   0.00000  Uiso   1.00
C149   C     0.43970   0.53602   0.01957   0.00000  Uiso   1.00
C150   C     0.44849   0.39587   0.00710   0.00000  Uiso   1.00
C151   C     0.44980   0.19430   0.96711   0.00000  Uiso   1.00
C152   C     0.52125   0.45720   0.16186   0.00000  Uiso   1.00
C153   C     0.44571   0.51771   0.13742   0.00000  Uiso   1.00
C154   C     0.41081   0.45918   0.14955   0.00000  Uiso   1.00
C155   C     0.34184   0.53065   0.12286   0.00000  Uiso   1.00
C156   C     0.57896   0.59158   0.19263   0.00000  Uiso   1.00
C157   C     0.65611   0.59515   0.25118   0.00000  Uiso   1.00
C158   C     0.69933   0.72880   0.27097   0.00000  Uiso   1.00
C159   C     0.49770   0.42061   0.10826   0.00000  Uiso   1.00
C160   C     0.50654   0.28045   0.09587   0.00000  Uiso   1.00
C161   C     0.48136   0.27017   0.04463   0.00000  Uiso   1.00
H162   H     0.43530   0.78588   0.06373   0.00000  Uiso   1.00
H163   H     0.31859   0.81185   0.04427   0.00000  Uiso   1.00
H164   H     0.56386   0.94779   0.14588   0.00000  Uiso   1.00
H165   H     0.41431   0.63314   0.99059   0.00000  Uiso   1.00
H166   H     0.20369   0.78535   0.03922   0.00000  Uiso   1.00
H167   H     0.72086   0.07196   0.25348   0.00000  Uiso   1.00
H168   H     0.40551   0.40847   0.92602   0.00000  Uiso   1.00
H169   H     0.54681   0.35951   0.19102   0.00000  Uiso   1.00
H170   H     0.43622   0.36208   0.17854   0.00000  Uiso   1.00
H171   H     0.68148   0.49803   0.28015   0.00000  Uiso   1.00
H172   H     0.53193   0.18338   0.12487   0.00000  Uiso   1.00
H173   H     0.29916   0.42030   0.14820   0.00000  Uiso   1.00
H174   H     0.81633   0.70692   0.36246   0.00000  Uiso   1.00
H175   H     0.50098   0.04342   0.03501   0.00000  Uiso   1.00
O176   O     0.17668   0.61224   0.08322   0.00000  Uiso   1.00
O177   O     0.85519   0.98826   0.36431   0.00000  Uiso   1.00
O178   O     0.44145   0.11777   0.93470   0.00000  Uiso   1.00
N179   N     0.24133   0.69906   0.06657   0.00000  Uiso   1.00
N180   N     0.72484   0.96704   0.26689   0.00000  Uiso   1.00
N181   N     0.43004   0.34674   0.96076   0.00000  Uiso   1.00
N182   N     0.29270   0.50263   0.12522   0.00000  Uiso   1.00
N183   N     0.77621   0.77061   0.32553   0.00000  Uiso   1.00
N184   N     0.48141   0.15031   0.01940   0.00000  Uiso   1.00
C185   C     0.96084   0.81180   0.59289   0.00000  Uiso   1.00
C186   C     0.91289   0.85683   0.59996   0.00000  Uiso   1.00
C187   C     0.84397   0.78525   0.57325   0.00000  Uiso   1.00
C188   C     0.80897   0.84365   0.58533   0.00000  Uiso   1.00
C189   C     0.72955   0.89443   0.59064   0.00000  Uiso   1.00
C190   C     0.04615   0.78296   0.65518   0.00000  Uiso   1.00
C191   C     0.08927   0.64928   0.67488   0.00000  Uiso   1.00
C192   C     0.16645   0.64551   0.73344   0.00000  Uiso   1.00
C193   C     0.29394   0.58164   0.82446   0.00000  Uiso   1.00
C194   C     0.96489   0.95391   0.57080   0.00000  Uiso   1.00
C195   C     0.93970   0.96398   0.51957   0.00000  Uiso   1.00
C196   C     0.94849   0.10413   0.50710   0.00000  Uiso   1.00
C197   C     0.94980   0.30570   0.46711   0.00000  Uiso   1.00
C198   C     0.02125   0.04280   0.66186   0.00000  Uiso   1.00
C199   C     0.94571   0.98229   0.63742   0.00000  Uiso   1.00
C200   C     0.91081   0.04082   0.64955   0.00000  Uiso   1.00
C201   C     0.84184   0.96935   0.62286   0.00000  Uiso   1.00
C202   C     0.07896   0.90842   0.69263   0.00000  Uiso   1.00
C203   C     0.15611   0.90485   0.75118   0.00000  Uiso   1.00
C204   C     0.19933   0.77120   0.77097   0.00000  Uiso   1.00
C205   C     0.99770   0.07939   0.60826   0.00000  Uiso   1.00
C206   C     0.00654   0.21955   0.59587   0.00000  Uiso   1.00
C207   C     0.98136   0.22983   0.54463   0.00000  Uiso   1.00
H208   H     0.93530   0.71412   0.56373   0.00000  Uiso   1.00
H209   H     0.81859   0.68815   0.54427   0.00000  Uiso   1.00
H210   H     0.06386   0.55221   0.64588   0.00000  Uiso   1.00
H211   H     0.91431   0.86686   0.49059   0.00000  Uiso   1.00
H212   H     0.70369   0.71465   0.53922   0.00000  Uiso   1.00
H213   H     0.22086   0.42804   0.75348   0.00000  Uiso   1.00
H214   H     0.90551   0.09153   0.42602   0.00000  Uiso   1.00
H215   H     0.04681   0.14049   0.69102   0.00000  Uiso   1.00
H216   H     0.93622   0.13792   0.67854   0.00000  Uiso   1.00
H217   H     0.18148   0.00197   0.78015   0.00000  Uiso   1.00
H218   H     0.03193   0.31662   0.62487   0.00000  Uiso   1.00
H219   H     0.79916   0.07970   0.64820   0.00000  Uiso   1.00
H220   H     0.31633   0.79308   0.86246   0.00000  Uiso   1.00
H221   H     0.00098   0.45658   0.53501   0.00000  Uiso   1.00
O222   O     0.67668   0.88776   0.58322   0.00000  Uiso   1.00
O223   O     0.35519   0.51174   0.86431   0.00000  Uiso   1.00
O224   O     0.94145   0.38223   0.43470   0.00000  Uiso   1.00
N225   N     0.74133   0.80094   0.56657   0.00000  Uiso   1.00
N226   N     0.22484   0.53296   0.76689   0.00000  Uiso   1.00
N227   N     0.93004   0.15326   0.46076   0.00000  Uiso   1.00
N228   N     0.79270   0.99737   0.62522   0.00000  Uiso   1.00
N229   N     0.27621   0.72939   0.82553   0.00000  Uiso   1.00
N230   N     0.98141   0.34969   0.51940   0.00000  Uiso   1.00
C231   C     0.46084   0.31180   0.59289   0.00000  Uiso   1.00
C232   C     0.41289   0.35683   0.59996   0.00000  Uiso   1.00
C233   C     0.34397   0.28525   0.57325   0.00000  Uiso   1.00
C234   C     0.30897   0.34365   0.58533   0.00000  Uiso   1.00
C235   C     0.22955   0.39443   0.59064   0.00000  Uiso   1.00
C236   C     0.54615   0.28296   0.65518   0.00000  Uiso   1.00
C237   C     0.58927   0.14928   0.67488   0.00000  Uiso   1.00
C238   C     0.66645   0.14551   0.73344   0.00000  Uiso   1.00
C239   C     0.79394   0.08164   0.82446   0.00000  Uiso   1.00
C240   C     0.46489   0.45391   0.57080   0.00000  Uiso   1.00
C241   C     0.43970   0.46398   0.51957   0.00000  Uiso   1.00
C242   C     0.44849   0.60413   0.50710   0.00000  Uiso   1.00
C243   C     0.44980   0.80570   0.46711   0.00000  Uiso   1.00
C244   C     0.52125   0.54280   0.66186   0.00000  Uiso   1.00
C245   C     0.44571   0.48229   0.63742   0.00000  Uiso   1.00
C246   C     0.41081   0.54082   0.64955   0.00000  Uiso   1.00
C247   C     0.34184   0.46935   0.62286   0.00000  Uiso   1.00
C248   C     0.57896   0.40842   0.69263   0.00000  Uiso   1.00
C249   C     0.65611   0.40485   0.75118   0.00000  Uiso   1.00
C250   C     0.69933   0.27120   0.77097   0.00000  Uiso   1.00
C251   C     0.49770   0.57939   0.60826   0.00000  Uiso   1.00
C252   C     0.50654   0.71955   0.59587   0.00000  Uiso   1.00
C253   C     0.48136   0.72983   0.54463   0.00000  Uiso   1.00
H254   H     0.43530   0.21412   0.56373   0.00000  Uiso   1.00
H255   H     0.31859   0.18815   0.54427   0.00000  Uiso   1.00
H256   H     0.56386   0.05221   0.64588   0.00000  Uiso   1.00
H257   H     0.41431   0.36686   0.49059   0.00000  Uiso   1.00
H258   H     0.20369   0.21465   0.53922   0.00000  Uiso   1.00
H259   H     0.72086   0.92804   0.75348   0.00000  Uiso   1.00
H260   H     0.40551   0.59153   0.42602   0.00000  Uiso   1.00
H261   H     0.54681   0.64049   0.69102   0.00000  Uiso   1.00
H262   H     0.43622   0.63792   0.67854   0.00000  Uiso   1.00
H263   H     0.68148   0.50197   0.78015   0.00000  Uiso   1.00
H264   H     0.53193   0.81662   0.62487   0.00000  Uiso   1.00
H265   H     0.29916   0.57970   0.64820   0.00000  Uiso   1.00
H266   H     0.81633   0.29308   0.86246   0.00000  Uiso   1.00
H267   H     0.50098   0.95658   0.53501   0.00000  Uiso   1.00
O268   O     0.17668   0.38776   0.58322   0.00000  Uiso   1.00
O269   O     0.85519   0.01174   0.86431   0.00000  Uiso   1.00
O270   O     0.44145   0.88223   0.43470   0.00000  Uiso   1.00
N271   N     0.24133   0.30094   0.56657   0.00000  Uiso   1.00
N272   N     0.72484   0.03296   0.76689   0.00000  Uiso   1.00
N273   N     0.43004   0.65326   0.46076   0.00000  Uiso   1.00
N274   N     0.29270   0.49737   0.62522   0.00000  Uiso   1.00
N275   N     0.77621   0.22939   0.82553   0.00000  Uiso   1.00
N276   N     0.48141   0.84969   0.51940   0.00000  Uiso   1.00
C277   C     0.03916   0.81180   0.90711   0.00000  Uiso   1.00
C278   C     0.08711   0.85683   0.90004   0.00000  Uiso   1.00
C279   C     0.15603   0.78525   0.92675   0.00000  Uiso   1.00
C280   C     0.19103   0.84365   0.91467   0.00000  Uiso   1.00
C281   C     0.27045   0.89443   0.90936   0.00000  Uiso   1.00
C282   C     0.95385   0.78296   0.84482   0.00000  Uiso   1.00
C283   C     0.91073   0.64928   0.82512   0.00000  Uiso   1.00
C284   C     0.83355   0.64551   0.76656   0.00000  Uiso   1.00
C285   C     0.70606   0.58164   0.67554   0.00000  Uiso   1.00
C286   C     0.03511   0.95391   0.92920   0.00000  Uiso   1.00
C287   C     0.06030   0.96398   0.98043   0.00000  Uiso   1.00
C288   C     0.05151   0.10413   0.99290   0.00000  Uiso   1.00
C289   C     0.05020   0.30570   0.03289   0.00000  Uiso   1.00
C290   C     0.97875   0.04280   0.83814   0.00000  Uiso   1.00
C291   C     0.05429   0.98229   0.86258   0.00000  Uiso   1.00
C292   C     0.08919   0.04082   0.85045   0.00000  Uiso   1.00
C293   C     0.15816   0.96935   0.87714   0.00000  Uiso   1.00
C294   C     0.92104   0.90842   0.80737   0.00000  Uiso   1.00
C295   C     0.84389   0.90485   0.74882   0.00000  Uiso   1.00
C296   C     0.80067   0.77120   0.72903   0.00000  Uiso   1.00
C297   C     0.00230   0.07939   0.89174   0.00000  Uiso   1.00
C298   C     0.99346   0.21955   0.90413   0.00000  Uiso   1.00
C299   C     0.01864   0.22983   0.95537   0.00000  Uiso   1.00
H300   H     0.06470   0.71412   0.93627   0.00000  Uiso   1.00
H301   H     0.18141   0.68815   0.95573   0.00000  Uiso   1.00
H302   H     0.93614   0.55221   0.85412   0.00000  Uiso   1.00
H303   H     0.08569   0.86686   0.00941   0.00000  Uiso   1.00
H304   H     0.29631   0.71465   0.96078   0.00000  Uiso   1.00
H305   H     0.77914   0.42804   0.74652   0.00000  Uiso   1.00
H306   H     0.09449   0.09153   0.07398   0.00000  Uiso   1.00
H307   H     0.95319   0.14049   0.80898   0.00000  Uiso   1.00
H308   H     0.06378   0.13792   0.82146   0.00000  Uiso   1.00
H309   H     0.81852   0.00197   0.71985   0.00000  Uiso   1.00
H310   H     0.96807   0.31662   0.87513   0.00000  Uiso   1.00
H311   H     0.20084   0.07970   0.85180   0.00000  Uiso   1.00
H312   H     0.68367   0.79308   0.63754   0.00000  Uiso   1.00
H313   H     0.99902   0.45658   0.96499   0.00000  Uiso   1.00
O314   O     0.32332   0.88776   0.91678   0.00000  Uiso   1.00
O315   O     0.64481   0.51174   0.63569   0.00000  Uiso   1.00
O316   O     0.05855   0.38223   0.06530   0.00000  Uiso   1.00
N317   N     0.25867   0.80094   0.93343   0.00000  Uiso   1.00
N318   N     0.77516   0.53296   0.73311   0.00000  Uiso   1.00
N319   N     0.06996   0.15326   0.03924   0.00000  Uiso   1.00
N320   N     0.20730   0.99737   0.87478   0.00000  Uiso   1.00
N321   N     0.72379   0.72939   0.67447   0.00000  Uiso   1.00
N322   N     0.01859   0.34969   0.98060   0.00000  Uiso   1.00
C323   C     0.53916   0.31180   0.90711   0.00000  Uiso   1.00
C324   C     0.58711   0.35683   0.90004   0.00000  Uiso   1.00
C325   C     0.65603   0.28525   0.92675   0.00000  Uiso   1.00
C326   C     0.69103   0.34365   0.91467   0.00000  Uiso   1.00
C327   C     0.77045   0.39443   0.90936   0.00000  Uiso   1.00
C328   C     0.45385   0.28296   0.84482   0.00000  Uiso   1.00
C329   C     0.41073   0.14928   0.82512   0.00000  Uiso   1.00
C330   C     0.33355   0.14551   0.76656   0.00000  Uiso   1.00
C331   C     0.20606   0.08164   0.67554   0.00000  Uiso   1.00
C332   C     0.53511   0.45391   0.92920   0.00000  Uiso   1.00
C333   C     0.56030   0.46398   0.98043   0.00000  Uiso   1.00
C334   C     0.55151   0.60413   0.99290   0.00000  Uiso   1.00
C335   C     0.55020   0.80570   0.03289   0.00000  Uiso   1.00
C336   C     0.47875   0.54280   0.83814   0.00000  Uiso   1.00
C337   C     0.55429   0.48229   0.86258   0.00000  Uiso   1.00
C338   C     0.58919   0.54082   0.85045   0.00000  Uiso   1.00
C339   C     0.65816   0.46935   0.87714   0.00000  Uiso   1.00
C340   C     0.42104   0.40842   0.80737   0.00000  Uiso   1.00
C341   C     0.34389   0.40485   0.74882   0.00000  Uiso   1.00
C342   C     0.30067   0.27120   0.72903   0.00000  Uiso   1.00
C343   C     0.50230   0.57939   0.89174   0.00000  Uiso   1.00
C344   C     0.49346   0.71955   0.90413   0.00000  Uiso   1.00
C345   C     0.51864   0.72983   0.95537   0.00000  Uiso   1.00
H346   H     0.56470   0.21412   0.93627   0.00000  Uiso   1.00
H347   H     0.68141   0.18815   0.95573   0.00000  Uiso   1.00
H348   H     0.43614   0.05221   0.85412   0.00000  Uiso   1.00
H349   H     0.58569   0.36686   0.00941   0.00000  Uiso   1.00
H350   H     0.79631   0.21465   0.96078   0.00000  Uiso   1.00
H351   H     0.27914   0.92804   0.74652   0.00000  Uiso   1.00
H352   H     0.59449   0.59153   0.07398   0.00000  Uiso   1.00
H353   H     0.45319   0.64049   0.80898   0.00000  Uiso   1.00
H354   H     0.56378   0.63792   0.82146   0.00000  Uiso   1.00
H355   H     0.31852   0.50197   0.71985   0.00000  Uiso   1.00
H356   H     0.46807   0.81662   0.87513   0.00000  Uiso   1.00
H357   H     0.70084   0.57970   0.85180   0.00000  Uiso   1.00
H358   H     0.18367   0.29308   0.63754   0.00000  Uiso   1.00
H359   H     0.49902   0.95658   0.96499   0.00000  Uiso   1.00
O360   O     0.82332   0.38776   0.91678   0.00000  Uiso   1.00
O361   O     0.14481   0.01174   0.63569   0.00000  Uiso   1.00
O362   O     0.55855   0.88223   0.06530   0.00000  Uiso   1.00
N363   N     0.75867   0.30094   0.93343   0.00000  Uiso   1.00
N364   N     0.27516   0.03296   0.73311   0.00000  Uiso   1.00
N365   N     0.56996   0.65326   0.03924   0.00000  Uiso   1.00
N366   N     0.70730   0.49737   0.87478   0.00000  Uiso   1.00
N367   N     0.22379   0.22939   0.67447   0.00000  Uiso   1.00
N368   N     0.51859   0.84969   0.98060   0.00000  Uiso   1.00
