data_job_03106
_audit_creation_date              2018-12-19
_audit_creation_method            'Materials Studio'
_symmetry_space_group_name_H-M    'P1'
_symmetry_Int_Tables_number       1
_symmetry_cell_setting            triclinic
loop_
_symmetry_equiv_pos_as_xyz
  x,y,z
_cell_length_a                    22.7878
_cell_length_b                    10.7347
_cell_length_c                    32.7241
_cell_angle_alpha                 90.0000
_cell_angle_beta                  73.9219
_cell_angle_gamma                 90.0000
loop_
_atom_site_label
_atom_site_type_symbol
_atom_site_fract_x
_atom_site_fract_y
_atom_site_fract_z
_atom_site_U_iso_or_equiv
_atom_site_adp_type
_atom_site_occupancy
C1     C     0.61786   0.65631   0.09763   0.00000  Uiso   1.00
C2     C     0.55117   0.68437   0.12026   0.00000  Uiso   1.00
C3     C     0.50102   0.62132   0.11428   0.00000  Uiso   1.00
C4     C     0.44376   0.66120   0.13801   0.00000  Uiso   1.00
C5     C     0.34124   0.68969   0.16878   0.00000  Uiso   1.00
C6     C     0.64490   0.77753   0.07620   0.00000  Uiso   1.00
C7     C     0.67357   0.79280   0.03318   0.00000  Uiso   1.00
C8     C     0.69522   0.91110   0.01982   0.00000  Uiso   1.00
C9     C     0.73826   0.08421   0.98218   0.00000  Uiso   1.00
C10    C     0.64894   0.63241   0.13259   0.00000  Uiso   1.00
C11    C     0.68102   0.52567   0.13698   0.00000  Uiso   1.00
C12    C     0.70608   0.52180   0.17110   0.00000  Uiso   1.00
C13    C     0.75539   0.46958   0.22102   0.00000  Uiso   1.00
C14    C     0.60535   0.83925   0.15040   0.00000  Uiso   1.00
C15    C     0.54437   0.78374   0.14892   0.00000  Uiso   1.00
C16    C     0.48718   0.82372   0.17267   0.00000  Uiso   1.00
C17    C     0.43695   0.76074   0.16673   0.00000  Uiso   1.00
C18    C     0.63810   0.87689   0.10486   0.00000  Uiso   1.00
C19    C     0.65972   0.99520   0.09157   0.00000  Uiso   1.00
C20    C     0.68841   0.01065   0.04854   0.00000  Uiso   1.00
C21    C     0.64214   0.73177   0.16126   0.00000  Uiso   1.00
C22    C     0.66717   0.72807   0.19537   0.00000  Uiso   1.00
C23    C     0.69927   0.62135   0.19982   0.00000  Uiso   1.00
H24    H     0.62316   0.57896   0.07531   0.00000  Uiso   1.00
H25    H     0.50630   0.54443   0.09209   0.00000  Uiso   1.00
H26    H     0.67883   0.71589   0.01100   0.00000  Uiso   1.00
H27    H     0.68627   0.44880   0.11479   0.00000  Uiso   1.00
H28    H     0.37375   0.55001   0.12333   0.00000  Uiso   1.00
H29    H     0.73755   0.91152   0.95235   0.00000  Uiso   1.00
H30    H     0.75324   0.34831   0.17121   0.00000  Uiso   1.00
H31    H     0.60006   0.91661   0.17272   0.00000  Uiso   1.00
H32    H     0.48193   0.90062   0.19485   0.00000  Uiso   1.00
H33    H     0.65446   0.07207   0.11376   0.00000  Uiso   1.00
H34    H     0.66190   0.80498   0.21755   0.00000  Uiso   1.00
H35    H     0.35397   0.83910   0.20673   0.00000  Uiso   1.00
H36    H     0.71777   0.20061   0.03575   0.00000  Uiso   1.00
H37    H     0.73346   0.63740   0.25461   0.00000  Uiso   1.00
O38    O     0.28657   0.67797   0.17782   0.00000  Uiso   1.00
O39    O     0.76387   0.15224   0.95350   0.00000  Uiso   1.00
O40    O     0.78445   0.41332   0.24065   0.00000  Uiso   1.00
N41    N     0.38531   0.62023   0.13993   0.00000  Uiso   1.00
N42    N     0.72543   0.95822   0.98007   0.00000  Uiso   1.00
N43    N     0.74011   0.43168   0.18468   0.00000  Uiso   1.00
N44    N     0.37466   0.77578   0.18481   0.00000  Uiso   1.00
N45    N     0.71478   0.11378   0.02495   0.00000  Uiso   1.00
N46    N     0.72947   0.58724   0.22956   0.00000  Uiso   1.00
C47    C     0.11786   0.15631   0.09763   0.00000  Uiso   1.00
C48    C     0.05117   0.18437   0.12026   0.00000  Uiso   1.00
C49    C     0.00102   0.12132   0.11428   0.00000  Uiso   1.00
C50    C     0.94376   0.16120   0.13801   0.00000  Uiso   1.00
C51    C     0.84124   0.18969   0.16878   0.00000  Uiso   1.00
C52    C     0.14490   0.27753   0.07620   0.00000  Uiso   1.00
C53    C     0.17357   0.29280   0.03318   0.00000  Uiso   1.00
C54    C     0.19522   0.41110   0.01982   0.00000  Uiso   1.00
C55    C     0.23826   0.58421   0.98218   0.00000  Uiso   1.00
C56    C     0.14894   0.13241   0.13259   0.00000  Uiso   1.00
C57    C     0.18102   0.02567   0.13698   0.00000  Uiso   1.00
C58    C     0.20608   0.02180   0.17110   0.00000  Uiso   1.00
C59    C     0.25539   0.96958   0.22102   0.00000  Uiso   1.00
C60    C     0.10535   0.33925   0.15040   0.00000  Uiso   1.00
C61    C     0.04437   0.28374   0.14892   0.00000  Uiso   1.00
C62    C     0.98718   0.32372   0.17267   0.00000  Uiso   1.00
C63    C     0.93695   0.26074   0.16673   0.00000  Uiso   1.00
C64    C     0.13810   0.37689   0.10486   0.00000  Uiso   1.00
C65    C     0.15972   0.49520   0.09157   0.00000  Uiso   1.00
C66    C     0.18841   0.51065   0.04854   0.00000  Uiso   1.00
C67    C     0.14214   0.23177   0.16126   0.00000  Uiso   1.00
C68    C     0.16717   0.22807   0.19537   0.00000  Uiso   1.00
C69    C     0.19927   0.12135   0.19982   0.00000  Uiso   1.00
H70    H     0.12316   0.07896   0.07531   0.00000  Uiso   1.00
H71    H     0.00630   0.04443   0.09209   0.00000  Uiso   1.00
H72    H     0.17883   0.21589   0.01100   0.00000  Uiso   1.00
H73    H     0.18627   0.94880   0.11479   0.00000  Uiso   1.00
H74    H     0.87375   0.05001   0.12333   0.00000  Uiso   1.00
H75    H     0.23755   0.41152   0.95235   0.00000  Uiso   1.00
H76    H     0.25324   0.84831   0.17121   0.00000  Uiso   1.00
H77    H     0.10006   0.41661   0.17272   0.00000  Uiso   1.00
H78    H     0.98193   0.40062   0.19485   0.00000  Uiso   1.00
H79    H     0.15446   0.57207   0.11376   0.00000  Uiso   1.00
H80    H     0.16190   0.30498   0.21755   0.00000  Uiso   1.00
H81    H     0.85397   0.33910   0.20673   0.00000  Uiso   1.00
H82    H     0.21777   0.70061   0.03575   0.00000  Uiso   1.00
H83    H     0.23346   0.13740   0.25461   0.00000  Uiso   1.00
O84    O     0.78657   0.17797   0.17782   0.00000  Uiso   1.00
O85    O     0.26387   0.65224   0.95350   0.00000  Uiso   1.00
O86    O     0.28445   0.91332   0.24065   0.00000  Uiso   1.00
N87    N     0.88531   0.12023   0.13993   0.00000  Uiso   1.00
N88    N     0.22543   0.45822   0.98007   0.00000  Uiso   1.00
N89    N     0.24011   0.93168   0.18468   0.00000  Uiso   1.00
N90    N     0.87466   0.27578   0.18481   0.00000  Uiso   1.00
N91    N     0.21478   0.61378   0.02495   0.00000  Uiso   1.00
N92    N     0.22947   0.08724   0.22956   0.00000  Uiso   1.00
C93    C     0.38214   0.65631   0.40237   0.00000  Uiso   1.00
C94    C     0.44883   0.68437   0.37974   0.00000  Uiso   1.00
C95    C     0.49898   0.62132   0.38572   0.00000  Uiso   1.00
C96    C     0.55624   0.66120   0.36199   0.00000  Uiso   1.00
C97    C     0.65876   0.68969   0.33122   0.00000  Uiso   1.00
C98    C     0.35510   0.77753   0.42380   0.00000  Uiso   1.00
C99    C     0.32643   0.79280   0.46682   0.00000  Uiso   1.00
C100   C     0.30478   0.91110   0.48018   0.00000  Uiso   1.00
C101   C     0.26174   0.08421   0.51782   0.00000  Uiso   1.00
C102   C     0.35106   0.63241   0.36741   0.00000  Uiso   1.00
C103   C     0.31898   0.52567   0.36302   0.00000  Uiso   1.00
C104   C     0.29392   0.52180   0.32890   0.00000  Uiso   1.00
C105   C     0.24461   0.46958   0.27898   0.00000  Uiso   1.00
C106   C     0.39465   0.83925   0.34960   0.00000  Uiso   1.00
C107   C     0.45563   0.78374   0.35108   0.00000  Uiso   1.00
C108   C     0.51282   0.82372   0.32733   0.00000  Uiso   1.00
C109   C     0.56305   0.76074   0.33327   0.00000  Uiso   1.00
C110   C     0.36190   0.87689   0.39514   0.00000  Uiso   1.00
C111   C     0.34028   0.99520   0.40843   0.00000  Uiso   1.00
C112   C     0.31159   0.01065   0.45146   0.00000  Uiso   1.00
C113   C     0.35786   0.73177   0.33874   0.00000  Uiso   1.00
C114   C     0.33283   0.72807   0.30463   0.00000  Uiso   1.00
C115   C     0.30073   0.62135   0.30018   0.00000  Uiso   1.00
H116   H     0.37684   0.57896   0.42469   0.00000  Uiso   1.00
H117   H     0.49370   0.54443   0.40791   0.00000  Uiso   1.00
H118   H     0.32117   0.71589   0.48900   0.00000  Uiso   1.00
H119   H     0.31373   0.44880   0.38521   0.00000  Uiso   1.00
H120   H     0.62625   0.55001   0.37667   0.00000  Uiso   1.00
H121   H     0.26245   0.91152   0.54765   0.00000  Uiso   1.00
H122   H     0.24676   0.34831   0.32879   0.00000  Uiso   1.00
H123   H     0.39994   0.91661   0.32728   0.00000  Uiso   1.00
H124   H     0.51807   0.90062   0.30515   0.00000  Uiso   1.00
H125   H     0.34554   0.07207   0.38624   0.00000  Uiso   1.00
H126   H     0.33810   0.80498   0.28245   0.00000  Uiso   1.00
H127   H     0.64603   0.83910   0.29327   0.00000  Uiso   1.00
H128   H     0.28223   0.20061   0.46425   0.00000  Uiso   1.00
H129   H     0.26654   0.63740   0.24539   0.00000  Uiso   1.00
O130   O     0.71343   0.67797   0.32218   0.00000  Uiso   1.00
O131   O     0.23613   0.15224   0.54650   0.00000  Uiso   1.00
O132   O     0.21555   0.41332   0.25935   0.00000  Uiso   1.00
N133   N     0.61469   0.62023   0.36007   0.00000  Uiso   1.00
N134   N     0.27457   0.95822   0.51993   0.00000  Uiso   1.00
N135   N     0.25989   0.43168   0.31532   0.00000  Uiso   1.00
N136   N     0.62534   0.77578   0.31519   0.00000  Uiso   1.00
N137   N     0.28522   0.11378   0.47505   0.00000  Uiso   1.00
N138   N     0.27053   0.58724   0.27044   0.00000  Uiso   1.00
C139   C     0.88214   0.15631   0.40237   0.00000  Uiso   1.00
C140   C     0.94883   0.18437   0.37974   0.00000  Uiso   1.00
C141   C     0.99898   0.12132   0.38572   0.00000  Uiso   1.00
C142   C     0.05624   0.16120   0.36199   0.00000  Uiso   1.00
C143   C     0.15876   0.18969   0.33122   0.00000  Uiso   1.00
C144   C     0.85510   0.27753   0.42380   0.00000  Uiso   1.00
C145   C     0.82643   0.29280   0.46682   0.00000  Uiso   1.00
C146   C     0.80478   0.41110   0.48018   0.00000  Uiso   1.00
C147   C     0.76174   0.58421   0.51782   0.00000  Uiso   1.00
C148   C     0.85106   0.13241   0.36741   0.00000  Uiso   1.00
C149   C     0.81898   0.02567   0.36302   0.00000  Uiso   1.00
C150   C     0.79392   0.02180   0.32890   0.00000  Uiso   1.00
C151   C     0.74461   0.96958   0.27898   0.00000  Uiso   1.00
C152   C     0.89465   0.33925   0.34960   0.00000  Uiso   1.00
C153   C     0.95563   0.28374   0.35108   0.00000  Uiso   1.00
C154   C     0.01282   0.32372   0.32733   0.00000  Uiso   1.00
C155   C     0.06305   0.26074   0.33327   0.00000  Uiso   1.00
C156   C     0.86190   0.37689   0.39514   0.00000  Uiso   1.00
C157   C     0.84028   0.49520   0.40843   0.00000  Uiso   1.00
C158   C     0.81159   0.51065   0.45146   0.00000  Uiso   1.00
C159   C     0.85786   0.23177   0.33874   0.00000  Uiso   1.00
C160   C     0.83283   0.22807   0.30463   0.00000  Uiso   1.00
C161   C     0.80073   0.12135   0.30018   0.00000  Uiso   1.00
H162   H     0.87684   0.07896   0.42469   0.00000  Uiso   1.00
H163   H     0.99370   0.04443   0.40791   0.00000  Uiso   1.00
H164   H     0.82117   0.21589   0.48900   0.00000  Uiso   1.00
H165   H     0.81373   0.94880   0.38521   0.00000  Uiso   1.00
H166   H     0.12625   0.05001   0.37667   0.00000  Uiso   1.00
H167   H     0.76245   0.41152   0.54765   0.00000  Uiso   1.00
H168   H     0.74676   0.84831   0.32879   0.00000  Uiso   1.00
H169   H     0.89994   0.41661   0.32728   0.00000  Uiso   1.00
H170   H     0.01807   0.40062   0.30515   0.00000  Uiso   1.00
H171   H     0.84554   0.57207   0.38624   0.00000  Uiso   1.00
H172   H     0.83810   0.30498   0.28245   0.00000  Uiso   1.00
H173   H     0.14603   0.33910   0.29327   0.00000  Uiso   1.00
H174   H     0.78223   0.70061   0.46425   0.00000  Uiso   1.00
H175   H     0.76654   0.13740   0.24539   0.00000  Uiso   1.00
O176   O     0.21343   0.17797   0.32218   0.00000  Uiso   1.00
O177   O     0.73613   0.65224   0.54650   0.00000  Uiso   1.00
O178   O     0.71555   0.91332   0.25935   0.00000  Uiso   1.00
N179   N     0.11469   0.12023   0.36007   0.00000  Uiso   1.00
N180   N     0.77457   0.45822   0.51993   0.00000  Uiso   1.00
N181   N     0.75989   0.93168   0.31532   0.00000  Uiso   1.00
N182   N     0.12534   0.27578   0.31519   0.00000  Uiso   1.00
N183   N     0.78522   0.61378   0.47505   0.00000  Uiso   1.00
N184   N     0.77053   0.08724   0.27044   0.00000  Uiso   1.00
C185   C     0.38214   0.34369   0.90237   0.00000  Uiso   1.00
C186   C     0.44883   0.31563   0.87974   0.00000  Uiso   1.00
C187   C     0.49898   0.37868   0.88572   0.00000  Uiso   1.00
C188   C     0.55624   0.33880   0.86199   0.00000  Uiso   1.00
C189   C     0.65876   0.31031   0.83122   0.00000  Uiso   1.00
C190   C     0.35510   0.22247   0.92380   0.00000  Uiso   1.00
C191   C     0.32643   0.20720   0.96682   0.00000  Uiso   1.00
C192   C     0.30478   0.08890   0.98018   0.00000  Uiso   1.00
C193   C     0.26174   0.91579   0.01782   0.00000  Uiso   1.00
C194   C     0.35106   0.36759   0.86741   0.00000  Uiso   1.00
C195   C     0.31898   0.47433   0.86302   0.00000  Uiso   1.00
C196   C     0.29392   0.47820   0.82890   0.00000  Uiso   1.00
C197   C     0.24461   0.53042   0.77898   0.00000  Uiso   1.00
C198   C     0.39465   0.16075   0.84960   0.00000  Uiso   1.00
C199   C     0.45563   0.21626   0.85108   0.00000  Uiso   1.00
C200   C     0.51282   0.17628   0.82733   0.00000  Uiso   1.00
C201   C     0.56305   0.23926   0.83327   0.00000  Uiso   1.00
C202   C     0.36190   0.12311   0.89514   0.00000  Uiso   1.00
C203   C     0.34028   0.00480   0.90843   0.00000  Uiso   1.00
C204   C     0.31159   0.98935   0.95146   0.00000  Uiso   1.00
C205   C     0.35786   0.26823   0.83874   0.00000  Uiso   1.00
C206   C     0.33283   0.27193   0.80463   0.00000  Uiso   1.00
C207   C     0.30073   0.37865   0.80018   0.00000  Uiso   1.00
H208   H     0.37684   0.42104   0.92469   0.00000  Uiso   1.00
H209   H     0.49370   0.45557   0.90791   0.00000  Uiso   1.00
H210   H     0.32117   0.28411   0.98900   0.00000  Uiso   1.00
H211   H     0.31373   0.55120   0.88521   0.00000  Uiso   1.00
H212   H     0.62625   0.44999   0.87667   0.00000  Uiso   1.00
H213   H     0.26245   0.08848   0.04765   0.00000  Uiso   1.00
H214   H     0.24676   0.65169   0.82879   0.00000  Uiso   1.00
H215   H     0.39994   0.08339   0.82728   0.00000  Uiso   1.00
H216   H     0.51807   0.09938   0.80515   0.00000  Uiso   1.00
H217   H     0.34554   0.92793   0.88624   0.00000  Uiso   1.00
H218   H     0.33810   0.19502   0.78245   0.00000  Uiso   1.00
H219   H     0.64603   0.16090   0.79327   0.00000  Uiso   1.00
H220   H     0.28223   0.79939   0.96425   0.00000  Uiso   1.00
H221   H     0.26654   0.36260   0.74539   0.00000  Uiso   1.00
O222   O     0.71343   0.32203   0.82218   0.00000  Uiso   1.00
O223   O     0.23613   0.84776   0.04650   0.00000  Uiso   1.00
O224   O     0.21555   0.58668   0.75935   0.00000  Uiso   1.00
N225   N     0.61469   0.37977   0.86007   0.00000  Uiso   1.00
N226   N     0.27457   0.04178   0.01993   0.00000  Uiso   1.00
N227   N     0.25989   0.56832   0.81532   0.00000  Uiso   1.00
N228   N     0.62534   0.22422   0.81519   0.00000  Uiso   1.00
N229   N     0.28522   0.88622   0.97505   0.00000  Uiso   1.00
N230   N     0.27053   0.41276   0.77044   0.00000  Uiso   1.00
C231   C     0.88214   0.84369   0.90237   0.00000  Uiso   1.00
C232   C     0.94883   0.81563   0.87974   0.00000  Uiso   1.00
C233   C     0.99898   0.87868   0.88572   0.00000  Uiso   1.00
C234   C     0.05624   0.83880   0.86199   0.00000  Uiso   1.00
C235   C     0.15876   0.81031   0.83122   0.00000  Uiso   1.00
C236   C     0.85510   0.72247   0.92380   0.00000  Uiso   1.00
C237   C     0.82643   0.70720   0.96682   0.00000  Uiso   1.00
C238   C     0.80478   0.58890   0.98018   0.00000  Uiso   1.00
C239   C     0.76174   0.41579   0.01782   0.00000  Uiso   1.00
C240   C     0.85106   0.86759   0.86741   0.00000  Uiso   1.00
C241   C     0.81898   0.97433   0.86302   0.00000  Uiso   1.00
C242   C     0.79392   0.97820   0.82890   0.00000  Uiso   1.00
C243   C     0.74461   0.03042   0.77898   0.00000  Uiso   1.00
C244   C     0.89465   0.66075   0.84960   0.00000  Uiso   1.00
C245   C     0.95563   0.71626   0.85108   0.00000  Uiso   1.00
C246   C     0.01282   0.67628   0.82733   0.00000  Uiso   1.00
C247   C     0.06305   0.73926   0.83327   0.00000  Uiso   1.00
C248   C     0.86190   0.62311   0.89514   0.00000  Uiso   1.00
C249   C     0.84028   0.50480   0.90843   0.00000  Uiso   1.00
C250   C     0.81159   0.48935   0.95146   0.00000  Uiso   1.00
C251   C     0.85786   0.76823   0.83874   0.00000  Uiso   1.00
C252   C     0.83283   0.77193   0.80463   0.00000  Uiso   1.00
C253   C     0.80073   0.87865   0.80018   0.00000  Uiso   1.00
H254   H     0.87684   0.92104   0.92469   0.00000  Uiso   1.00
H255   H     0.99370   0.95557   0.90791   0.00000  Uiso   1.00
H256   H     0.82117   0.78411   0.98900   0.00000  Uiso   1.00
H257   H     0.81373   0.05120   0.88521   0.00000  Uiso   1.00
H258   H     0.12625   0.94999   0.87667   0.00000  Uiso   1.00
H259   H     0.76245   0.58848   0.04765   0.00000  Uiso   1.00
H260   H     0.74676   0.15169   0.82879   0.00000  Uiso   1.00
H261   H     0.89994   0.58339   0.82728   0.00000  Uiso   1.00
H262   H     0.01807   0.59938   0.80515   0.00000  Uiso   1.00
H263   H     0.84554   0.42793   0.88624   0.00000  Uiso   1.00
H264   H     0.83810   0.69502   0.78245   0.00000  Uiso   1.00
H265   H     0.14603   0.66090   0.79327   0.00000  Uiso   1.00
H266   H     0.78223   0.29939   0.96425   0.00000  Uiso   1.00
H267   H     0.76654   0.86260   0.74539   0.00000  Uiso   1.00
O268   O     0.21343   0.82203   0.82218   0.00000  Uiso   1.00
O269   O     0.73613   0.34776   0.04650   0.00000  Uiso   1.00
O270   O     0.71555   0.08668   0.75935   0.00000  Uiso   1.00
N271   N     0.11469   0.87977   0.86007   0.00000  Uiso   1.00
N272   N     0.77457   0.54178   0.01993   0.00000  Uiso   1.00
N273   N     0.75989   0.06832   0.81532   0.00000  Uiso   1.00
N274   N     0.12534   0.72422   0.81519   0.00000  Uiso   1.00
N275   N     0.78522   0.38622   0.97505   0.00000  Uiso   1.00
N276   N     0.77053   0.91276   0.77044   0.00000  Uiso   1.00
C277   C     0.61786   0.34369   0.59763   0.00000  Uiso   1.00
C278   C     0.55117   0.31563   0.62026   0.00000  Uiso   1.00
C279   C     0.50102   0.37868   0.61428   0.00000  Uiso   1.00
C280   C     0.44376   0.33880   0.63801   0.00000  Uiso   1.00
C281   C     0.34124   0.31031   0.66878   0.00000  Uiso   1.00
C282   C     0.64490   0.22247   0.57620   0.00000  Uiso   1.00
C283   C     0.67357   0.20720   0.53318   0.00000  Uiso   1.00
C284   C     0.69522   0.08890   0.51982   0.00000  Uiso   1.00
C285   C     0.73826   0.91579   0.48218   0.00000  Uiso   1.00
C286   C     0.64894   0.36759   0.63259   0.00000  Uiso   1.00
C287   C     0.68102   0.47433   0.63698   0.00000  Uiso   1.00
C288   C     0.70608   0.47820   0.67110   0.00000  Uiso   1.00
C289   C     0.75539   0.53042   0.72102   0.00000  Uiso   1.00
C290   C     0.60535   0.16075   0.65040   0.00000  Uiso   1.00
C291   C     0.54437   0.21626   0.64892   0.00000  Uiso   1.00
C292   C     0.48718   0.17628   0.67267   0.00000  Uiso   1.00
C293   C     0.43695   0.23926   0.66673   0.00000  Uiso   1.00
C294   C     0.63810   0.12311   0.60486   0.00000  Uiso   1.00
C295   C     0.65972   0.00480   0.59157   0.00000  Uiso   1.00
C296   C     0.68841   0.98935   0.54854   0.00000  Uiso   1.00
C297   C     0.64214   0.26823   0.66126   0.00000  Uiso   1.00
C298   C     0.66717   0.27193   0.69537   0.00000  Uiso   1.00
C299   C     0.69927   0.37865   0.69982   0.00000  Uiso   1.00
H300   H     0.62316   0.42104   0.57531   0.00000  Uiso   1.00
H301   H     0.50630   0.45557   0.59209   0.00000  Uiso   1.00
H302   H     0.67883   0.28411   0.51100   0.00000  Uiso   1.00
H303   H     0.68627   0.55120   0.61479   0.00000  Uiso   1.00
H304   H     0.37375   0.44999   0.62333   0.00000  Uiso   1.00
H305   H     0.73755   0.08848   0.45235   0.00000  Uiso   1.00
H306   H     0.75324   0.65169   0.67121   0.00000  Uiso   1.00
H307   H     0.60006   0.08339   0.67272   0.00000  Uiso   1.00
H308   H     0.48193   0.09938   0.69485   0.00000  Uiso   1.00
H309   H     0.65446   0.92793   0.61376   0.00000  Uiso   1.00
H310   H     0.66190   0.19502   0.71755   0.00000  Uiso   1.00
H311   H     0.35397   0.16090   0.70673   0.00000  Uiso   1.00
H312   H     0.71777   0.79939   0.53575   0.00000  Uiso   1.00
H313   H     0.73346   0.36260   0.75461   0.00000  Uiso   1.00
O314   O     0.28657   0.32203   0.67782   0.00000  Uiso   1.00
O315   O     0.76387   0.84776   0.45350   0.00000  Uiso   1.00
O316   O     0.78445   0.58668   0.74065   0.00000  Uiso   1.00
N317   N     0.38531   0.37977   0.63993   0.00000  Uiso   1.00
N318   N     0.72543   0.04178   0.48007   0.00000  Uiso   1.00
N319   N     0.74011   0.56832   0.68468   0.00000  Uiso   1.00
N320   N     0.37466   0.22422   0.68481   0.00000  Uiso   1.00
N321   N     0.71478   0.88622   0.52495   0.00000  Uiso   1.00
N322   N     0.72947   0.41276   0.72956   0.00000  Uiso   1.00
C323   C     0.11786   0.84369   0.59763   0.00000  Uiso   1.00
C324   C     0.05117   0.81563   0.62026   0.00000  Uiso   1.00
C325   C     0.00102   0.87868   0.61428   0.00000  Uiso   1.00
C326   C     0.94376   0.83880   0.63801   0.00000  Uiso   1.00
C327   C     0.84124   0.81031   0.66878   0.00000  Uiso   1.00
C328   C     0.14490   0.72247   0.57620   0.00000  Uiso   1.00
C329   C     0.17357   0.70720   0.53318   0.00000  Uiso   1.00
C330   C     0.19522   0.58890   0.51982   0.00000  Uiso   1.00
C331   C     0.23826   0.41579   0.48218   0.00000  Uiso   1.00
C332   C     0.14894   0.86759   0.63259   0.00000  Uiso   1.00
C333   C     0.18102   0.97433   0.63698   0.00000  Uiso   1.00
C334   C     0.20608   0.97820   0.67110   0.00000  Uiso   1.00
C335   C     0.25539   0.03042   0.72102   0.00000  Uiso   1.00
C336   C     0.10535   0.66075   0.65040   0.00000  Uiso   1.00
C337   C     0.04437   0.71626   0.64892   0.00000  Uiso   1.00
C338   C     0.98718   0.67628   0.67267   0.00000  Uiso   1.00
C339   C     0.93695   0.73926   0.66673   0.00000  Uiso   1.00
C340   C     0.13810   0.62311   0.60486   0.00000  Uiso   1.00
C341   C     0.15972   0.50480   0.59157   0.00000  Uiso   1.00
C342   C     0.18841   0.48935   0.54854   0.00000  Uiso   1.00
C343   C     0.14214   0.76823   0.66126   0.00000  Uiso   1.00
C344   C     0.16717   0.77193   0.69537   0.00000  Uiso   1.00
C345   C     0.19927   0.87865   0.69982   0.00000  Uiso   1.00
H346   H     0.12316   0.92104   0.57531   0.00000  Uiso   1.00
H347   H     0.00630   0.95557   0.59209   0.00000  Uiso   1.00
H348   H     0.17883   0.78411   0.51100   0.00000  Uiso   1.00
H349   H     0.18627   0.05120   0.61479   0.00000  Uiso   1.00
H350   H     0.87375   0.94999   0.62333   0.00000  Uiso   1.00
H351   H     0.23755   0.58848   0.45235   0.00000  Uiso   1.00
H352   H     0.25324   0.15169   0.67121   0.00000  Uiso   1.00
H353   H     0.10006   0.58339   0.67272   0.00000  Uiso   1.00
H354   H     0.98193   0.59938   0.69485   0.00000  Uiso   1.00
H355   H     0.15446   0.42793   0.61376   0.00000  Uiso   1.00
H356   H     0.16190   0.69502   0.71755   0.00000  Uiso   1.00
H357   H     0.85397   0.66090   0.70673   0.00000  Uiso   1.00
H358   H     0.21777   0.29939   0.53575   0.00000  Uiso   1.00
H359   H     0.23346   0.86260   0.75461   0.00000  Uiso   1.00
O360   O     0.78657   0.82203   0.67782   0.00000  Uiso   1.00
O361   O     0.26387   0.34776   0.45350   0.00000  Uiso   1.00
O362   O     0.28445   0.08668   0.74065   0.00000  Uiso   1.00
N363   N     0.88531   0.87977   0.63993   0.00000  Uiso   1.00
N364   N     0.22543   0.54178   0.48007   0.00000  Uiso   1.00
N365   N     0.24011   0.06832   0.68468   0.00000  Uiso   1.00
N366   N     0.87466   0.72422   0.68481   0.00000  Uiso   1.00
N367   N     0.21478   0.38622   0.52495   0.00000  Uiso   1.00
N368   N     0.22947   0.91276   0.72956   0.00000  Uiso   1.00
