data_job_04526
_audit_creation_date              2018-12-19
_audit_creation_method            'Materials Studio'
_symmetry_space_group_name_H-M    'P1'
_symmetry_Int_Tables_number       1
_symmetry_cell_setting            triclinic
loop_
_symmetry_equiv_pos_as_xyz
  x,y,z
_cell_length_a                    16.5368
_cell_length_b                    12.3957
_cell_length_c                    24.2361
_cell_angle_alpha                 90.0000
_cell_angle_beta                  90.0000
_cell_angle_gamma                 90.0000
loop_
_atom_site_label
_atom_site_type_symbol
_atom_site_fract_x
_atom_site_fract_y
_atom_site_fract_z
_atom_site_U_iso_or_equiv
_atom_site_adp_type
_atom_site_occupancy
C1     C     0.92830   0.31763   0.17945   0.00000  Uiso   1.00
C2     C     0.84082   0.29515   0.19570   0.00000  Uiso   1.00
C3     C     0.80902   0.30351   0.24851   0.00000  Uiso   1.00
C4     C     0.72755   0.27946   0.25485   0.00000  Uiso   1.00
C5     C     0.59901   0.24926   0.28691   0.00000  Uiso   1.00
C6     C     0.95888   0.21505   0.15168   0.00000  Uiso   1.00
C7     C     0.02635   0.15606   0.16749   0.00000  Uiso   1.00
C8     C     0.04426   0.06459   0.13677   0.00000  Uiso   1.00
C9     C     0.09904   0.91008   0.10047   0.00000  Uiso   1.00
C10    C     0.92480   0.40322   0.13432   0.00000  Uiso   1.00
C11    C     0.96364   0.50244   0.13552   0.00000  Uiso   1.00
C12    C     0.95288   0.56939   0.09018   0.00000  Uiso   1.00
C13    C     0.95475   0.70704   0.02693   0.00000  Uiso   1.00
C14    C     0.84016   0.26006   0.09678   0.00000  Uiso   1.00
C15    C     0.79295   0.26388   0.15079   0.00000  Uiso   1.00
C16    C     0.71150   0.23982   0.15705   0.00000  Uiso   1.00
C17    C     0.67959   0.24814   0.20987   0.00000  Uiso   1.00
C18    C     0.91101   0.18378   0.10678   0.00000  Uiso   1.00
C19    C     0.92883   0.09237   0.07603   0.00000  Uiso   1.00
C20    C     0.99630   0.03326   0.09179   0.00000  Uiso   1.00
C21    C     0.87693   0.37195   0.08942   0.00000  Uiso   1.00
C22    C     0.86611   0.43875   0.04406   0.00000  Uiso   1.00
C23    C     0.90492   0.53806   0.04520   0.00000  Uiso   1.00
H24    H     0.96557   0.34196   0.21440   0.00000  Uiso   1.00
H25    H     0.84609   0.32770   0.28325   0.00000  Uiso   1.00
H26    H     0.06339   0.18029   0.20223   0.00000  Uiso   1.00
H27    H     0.00068   0.52661   0.17028   0.00000  Uiso   1.00
H28    H     0.69251   0.29805   0.33978   0.00000  Uiso   1.00
H29    H     0.15071   0.98725   0.16894   0.00000  Uiso   1.00
H30    H     0.01849   0.71754   0.10155   0.00000  Uiso   1.00
H31    H     0.80289   0.23571   0.06182   0.00000  Uiso   1.00
H32    H     0.67447   0.21562   0.12230   0.00000  Uiso   1.00
H33    H     0.89177   0.06821   0.04128   0.00000  Uiso   1.00
H34    H     0.82906   0.41453   0.00932   0.00000  Uiso   1.00
H35    H     0.55322   0.20708   0.20915   0.00000  Uiso   1.00
H36    H     0.01143   0.89628   0.03831   0.00000  Uiso   1.00
H37    H     0.87919   0.62657   0.97092   0.00000  Uiso   1.00
O38    O     0.54133   0.24123   0.31700   0.00000  Uiso   1.00
O39    O     0.14248   0.83348   0.09286   0.00000  Uiso   1.00
O40    O     0.96900   0.79161   0.00445   0.00000  Uiso   1.00
N41    N     0.67735   0.27942   0.30074   0.00000  Uiso   1.00
N42    N     0.10573   0.98883   0.14102   0.00000  Uiso   1.00
N43    N     0.98213   0.67158   0.07801   0.00000  Uiso   1.00
N44    N     0.60240   0.23047   0.23044   0.00000  Uiso   1.00
N45    N     0.03078   0.93988   0.07072   0.00000  Uiso   1.00
N46    N     0.90718   0.62263   0.00771   0.00000  Uiso   1.00
C47    C     0.57170   0.68237   0.17945   0.00000  Uiso   1.00
C48    C     0.65918   0.70485   0.19570   0.00000  Uiso   1.00
C49    C     0.69098   0.69649   0.24851   0.00000  Uiso   1.00
C50    C     0.77245   0.72054   0.25485   0.00000  Uiso   1.00
C51    C     0.90099   0.75074   0.28691   0.00000  Uiso   1.00
C52    C     0.54112   0.78495   0.15168   0.00000  Uiso   1.00
C53    C     0.47365   0.84394   0.16749   0.00000  Uiso   1.00
C54    C     0.45574   0.93541   0.13677   0.00000  Uiso   1.00
C55    C     0.40096   0.08992   0.10047   0.00000  Uiso   1.00
C56    C     0.57520   0.59678   0.13432   0.00000  Uiso   1.00
C57    C     0.53636   0.49756   0.13552   0.00000  Uiso   1.00
C58    C     0.54712   0.43061   0.09018   0.00000  Uiso   1.00
C59    C     0.54525   0.29296   0.02693   0.00000  Uiso   1.00
C60    C     0.65984   0.73994   0.09678   0.00000  Uiso   1.00
C61    C     0.70705   0.73612   0.15079   0.00000  Uiso   1.00
C62    C     0.78850   0.76018   0.15705   0.00000  Uiso   1.00
C63    C     0.82041   0.75186   0.20987   0.00000  Uiso   1.00
C64    C     0.58899   0.81622   0.10678   0.00000  Uiso   1.00
C65    C     0.57117   0.90763   0.07603   0.00000  Uiso   1.00
C66    C     0.50370   0.96674   0.09179   0.00000  Uiso   1.00
C67    C     0.62307   0.62805   0.08942   0.00000  Uiso   1.00
C68    C     0.63389   0.56125   0.04406   0.00000  Uiso   1.00
C69    C     0.59508   0.46194   0.04520   0.00000  Uiso   1.00
H70    H     0.53443   0.65804   0.21440   0.00000  Uiso   1.00
H71    H     0.65391   0.67230   0.28325   0.00000  Uiso   1.00
H72    H     0.43661   0.81971   0.20223   0.00000  Uiso   1.00
H73    H     0.49932   0.47339   0.17028   0.00000  Uiso   1.00
H74    H     0.80749   0.70195   0.33978   0.00000  Uiso   1.00
H75    H     0.34929   0.01275   0.16894   0.00000  Uiso   1.00
H76    H     0.48151   0.28246   0.10155   0.00000  Uiso   1.00
H77    H     0.69711   0.76429   0.06182   0.00000  Uiso   1.00
H78    H     0.82553   0.78438   0.12230   0.00000  Uiso   1.00
H79    H     0.60823   0.93179   0.04128   0.00000  Uiso   1.00
H80    H     0.67094   0.58547   0.00932   0.00000  Uiso   1.00
H81    H     0.94678   0.79292   0.20915   0.00000  Uiso   1.00
H82    H     0.48857   0.10372   0.03831   0.00000  Uiso   1.00
H83    H     0.62081   0.37343   0.97092   0.00000  Uiso   1.00
O84    O     0.95867   0.75877   0.31700   0.00000  Uiso   1.00
O85    O     0.35752   0.16652   0.09286   0.00000  Uiso   1.00
O86    O     0.53100   0.20839   0.00445   0.00000  Uiso   1.00
N87    N     0.82265   0.72058   0.30074   0.00000  Uiso   1.00
N88    N     0.39427   0.01117   0.14102   0.00000  Uiso   1.00
N89    N     0.51787   0.32842   0.07801   0.00000  Uiso   1.00
N90    N     0.89760   0.76953   0.23044   0.00000  Uiso   1.00
N91    N     0.46922   0.06012   0.07072   0.00000  Uiso   1.00
N92    N     0.59282   0.37737   0.00771   0.00000  Uiso   1.00
C93    C     0.07170   0.31763   0.32055   0.00000  Uiso   1.00
C94    C     0.15918   0.29515   0.30430   0.00000  Uiso   1.00
C95    C     0.19098   0.30351   0.25149   0.00000  Uiso   1.00
C96    C     0.27245   0.27946   0.24515   0.00000  Uiso   1.00
C97    C     0.40099   0.24926   0.21309   0.00000  Uiso   1.00
C98    C     0.04112   0.21505   0.34832   0.00000  Uiso   1.00
C99    C     0.97365   0.15606   0.33251   0.00000  Uiso   1.00
C100   C     0.95574   0.06459   0.36323   0.00000  Uiso   1.00
C101   C     0.90096   0.91008   0.39953   0.00000  Uiso   1.00
C102   C     0.07520   0.40322   0.36568   0.00000  Uiso   1.00
C103   C     0.03636   0.50244   0.36448   0.00000  Uiso   1.00
C104   C     0.04712   0.56939   0.40982   0.00000  Uiso   1.00
C105   C     0.04525   0.70704   0.47307   0.00000  Uiso   1.00
C106   C     0.15984   0.26006   0.40322   0.00000  Uiso   1.00
C107   C     0.20705   0.26388   0.34921   0.00000  Uiso   1.00
C108   C     0.28850   0.23982   0.34295   0.00000  Uiso   1.00
C109   C     0.32041   0.24814   0.29013   0.00000  Uiso   1.00
C110   C     0.08899   0.18378   0.39322   0.00000  Uiso   1.00
C111   C     0.07117   0.09237   0.42397   0.00000  Uiso   1.00
C112   C     0.00370   0.03326   0.40821   0.00000  Uiso   1.00
C113   C     0.12307   0.37195   0.41058   0.00000  Uiso   1.00
C114   C     0.13389   0.43875   0.45594   0.00000  Uiso   1.00
C115   C     0.09508   0.53806   0.45480   0.00000  Uiso   1.00
H116   H     0.03443   0.34196   0.28560   0.00000  Uiso   1.00
H117   H     0.15391   0.32770   0.21675   0.00000  Uiso   1.00
H118   H     0.93661   0.18029   0.29777   0.00000  Uiso   1.00
H119   H     0.99932   0.52661   0.32972   0.00000  Uiso   1.00
H120   H     0.30749   0.29805   0.16022   0.00000  Uiso   1.00
H121   H     0.84929   0.98725   0.33106   0.00000  Uiso   1.00
H122   H     0.98151   0.71754   0.39845   0.00000  Uiso   1.00
H123   H     0.19711   0.23571   0.43818   0.00000  Uiso   1.00
H124   H     0.32553   0.21562   0.37770   0.00000  Uiso   1.00
H125   H     0.10823   0.06821   0.45872   0.00000  Uiso   1.00
H126   H     0.17094   0.41453   0.49068   0.00000  Uiso   1.00
H127   H     0.44678   0.20708   0.29085   0.00000  Uiso   1.00
H128   H     0.98857   0.89628   0.46169   0.00000  Uiso   1.00
H129   H     0.12081   0.62657   0.52908   0.00000  Uiso   1.00
O130   O     0.45867   0.24123   0.18300   0.00000  Uiso   1.00
O131   O     0.85752   0.83348   0.40714   0.00000  Uiso   1.00
O132   O     0.03100   0.79161   0.49555   0.00000  Uiso   1.00
N133   N     0.32265   0.27942   0.19926   0.00000  Uiso   1.00
N134   N     0.89427   0.98883   0.35898   0.00000  Uiso   1.00
N135   N     0.01787   0.67158   0.42199   0.00000  Uiso   1.00
N136   N     0.39760   0.23047   0.26956   0.00000  Uiso   1.00
N137   N     0.96922   0.93988   0.42928   0.00000  Uiso   1.00
N138   N     0.09282   0.62263   0.49229   0.00000  Uiso   1.00
C139   C     0.42830   0.68237   0.32055   0.00000  Uiso   1.00
C140   C     0.34082   0.70485   0.30430   0.00000  Uiso   1.00
C141   C     0.30902   0.69649   0.25149   0.00000  Uiso   1.00
C142   C     0.22755   0.72054   0.24515   0.00000  Uiso   1.00
C143   C     0.09901   0.75074   0.21309   0.00000  Uiso   1.00
C144   C     0.45888   0.78495   0.34832   0.00000  Uiso   1.00
C145   C     0.52635   0.84394   0.33251   0.00000  Uiso   1.00
C146   C     0.54426   0.93541   0.36323   0.00000  Uiso   1.00
C147   C     0.59904   0.08992   0.39953   0.00000  Uiso   1.00
C148   C     0.42480   0.59678   0.36568   0.00000  Uiso   1.00
C149   C     0.46364   0.49756   0.36448   0.00000  Uiso   1.00
C150   C     0.45288   0.43061   0.40982   0.00000  Uiso   1.00
C151   C     0.45475   0.29296   0.47307   0.00000  Uiso   1.00
C152   C     0.34016   0.73994   0.40322   0.00000  Uiso   1.00
C153   C     0.29295   0.73612   0.34921   0.00000  Uiso   1.00
C154   C     0.21150   0.76018   0.34295   0.00000  Uiso   1.00
C155   C     0.17959   0.75186   0.29013   0.00000  Uiso   1.00
C156   C     0.41101   0.81622   0.39322   0.00000  Uiso   1.00
C157   C     0.42883   0.90763   0.42397   0.00000  Uiso   1.00
C158   C     0.49630   0.96674   0.40821   0.00000  Uiso   1.00
C159   C     0.37693   0.62805   0.41058   0.00000  Uiso   1.00
C160   C     0.36611   0.56125   0.45594   0.00000  Uiso   1.00
C161   C     0.40492   0.46194   0.45480   0.00000  Uiso   1.00
H162   H     0.46557   0.65804   0.28560   0.00000  Uiso   1.00
H163   H     0.34609   0.67230   0.21675   0.00000  Uiso   1.00
H164   H     0.56339   0.81971   0.29777   0.00000  Uiso   1.00
H165   H     0.50068   0.47339   0.32972   0.00000  Uiso   1.00
H166   H     0.19251   0.70195   0.16022   0.00000  Uiso   1.00
H167   H     0.65071   0.01275   0.33106   0.00000  Uiso   1.00
H168   H     0.51849   0.28246   0.39845   0.00000  Uiso   1.00
H169   H     0.30289   0.76429   0.43818   0.00000  Uiso   1.00
H170   H     0.17447   0.78438   0.37770   0.00000  Uiso   1.00
H171   H     0.39177   0.93179   0.45872   0.00000  Uiso   1.00
H172   H     0.32906   0.58547   0.49068   0.00000  Uiso   1.00
H173   H     0.05322   0.79292   0.29085   0.00000  Uiso   1.00
H174   H     0.51143   0.10372   0.46169   0.00000  Uiso   1.00
H175   H     0.37919   0.37343   0.52908   0.00000  Uiso   1.00
O176   O     0.04133   0.75877   0.18300   0.00000  Uiso   1.00
O177   O     0.64248   0.16652   0.40714   0.00000  Uiso   1.00
O178   O     0.46900   0.20839   0.49555   0.00000  Uiso   1.00
N179   N     0.17735   0.72058   0.19926   0.00000  Uiso   1.00
N180   N     0.60573   0.01117   0.35898   0.00000  Uiso   1.00
N181   N     0.48213   0.32842   0.42199   0.00000  Uiso   1.00
N182   N     0.10240   0.76953   0.26956   0.00000  Uiso   1.00
N183   N     0.53078   0.06012   0.42928   0.00000  Uiso   1.00
N184   N     0.40718   0.37737   0.49229   0.00000  Uiso   1.00
C185   C     0.07170   0.68237   0.82055   0.00000  Uiso   1.00
C186   C     0.15918   0.70485   0.80430   0.00000  Uiso   1.00
C187   C     0.19098   0.69649   0.75149   0.00000  Uiso   1.00
C188   C     0.27245   0.72054   0.74515   0.00000  Uiso   1.00
C189   C     0.40099   0.75074   0.71309   0.00000  Uiso   1.00
C190   C     0.04112   0.78495   0.84832   0.00000  Uiso   1.00
C191   C     0.97365   0.84394   0.83251   0.00000  Uiso   1.00
C192   C     0.95574   0.93541   0.86323   0.00000  Uiso   1.00
C193   C     0.90096   0.08992   0.89953   0.00000  Uiso   1.00
C194   C     0.07520   0.59678   0.86568   0.00000  Uiso   1.00
C195   C     0.03636   0.49756   0.86448   0.00000  Uiso   1.00
C196   C     0.04712   0.43061   0.90982   0.00000  Uiso   1.00
C197   C     0.04525   0.29296   0.97307   0.00000  Uiso   1.00
C198   C     0.15984   0.73994   0.90322   0.00000  Uiso   1.00
C199   C     0.20705   0.73612   0.84921   0.00000  Uiso   1.00
C200   C     0.28850   0.76018   0.84295   0.00000  Uiso   1.00
C201   C     0.32041   0.75186   0.79013   0.00000  Uiso   1.00
C202   C     0.08899   0.81622   0.89322   0.00000  Uiso   1.00
C203   C     0.07117   0.90763   0.92397   0.00000  Uiso   1.00
C204   C     0.00370   0.96674   0.90821   0.00000  Uiso   1.00
C205   C     0.12307   0.62805   0.91058   0.00000  Uiso   1.00
C206   C     0.13389   0.56125   0.95594   0.00000  Uiso   1.00
C207   C     0.09508   0.46194   0.95480   0.00000  Uiso   1.00
H208   H     0.03443   0.65804   0.78560   0.00000  Uiso   1.00
H209   H     0.15391   0.67230   0.71675   0.00000  Uiso   1.00
H210   H     0.93661   0.81971   0.79777   0.00000  Uiso   1.00
H211   H     0.99932   0.47339   0.82972   0.00000  Uiso   1.00
H212   H     0.30749   0.70195   0.66022   0.00000  Uiso   1.00
H213   H     0.84929   0.01275   0.83106   0.00000  Uiso   1.00
H214   H     0.98151   0.28246   0.89845   0.00000  Uiso   1.00
H215   H     0.19711   0.76429   0.93818   0.00000  Uiso   1.00
H216   H     0.32553   0.78438   0.87770   0.00000  Uiso   1.00
H217   H     0.10823   0.93179   0.95872   0.00000  Uiso   1.00
H218   H     0.17094   0.58547   0.99068   0.00000  Uiso   1.00
H219   H     0.44678   0.79292   0.79085   0.00000  Uiso   1.00
H220   H     0.98857   0.10372   0.96169   0.00000  Uiso   1.00
H221   H     0.12081   0.37343   0.02908   0.00000  Uiso   1.00
O222   O     0.45867   0.75877   0.68300   0.00000  Uiso   1.00
O223   O     0.85752   0.16652   0.90714   0.00000  Uiso   1.00
O224   O     0.03100   0.20839   0.99555   0.00000  Uiso   1.00
N225   N     0.32265   0.72058   0.69926   0.00000  Uiso   1.00
N226   N     0.89427   0.01117   0.85898   0.00000  Uiso   1.00
N227   N     0.01787   0.32842   0.92199   0.00000  Uiso   1.00
N228   N     0.39760   0.76953   0.76956   0.00000  Uiso   1.00
N229   N     0.96922   0.06012   0.92928   0.00000  Uiso   1.00
N230   N     0.09282   0.37737   0.99229   0.00000  Uiso   1.00
C231   C     0.42830   0.31763   0.82055   0.00000  Uiso   1.00
C232   C     0.34082   0.29515   0.80430   0.00000  Uiso   1.00
C233   C     0.30902   0.30351   0.75149   0.00000  Uiso   1.00
C234   C     0.22755   0.27946   0.74515   0.00000  Uiso   1.00
C235   C     0.09901   0.24926   0.71309   0.00000  Uiso   1.00
C236   C     0.45888   0.21505   0.84832   0.00000  Uiso   1.00
C237   C     0.52635   0.15606   0.83251   0.00000  Uiso   1.00
C238   C     0.54426   0.06459   0.86323   0.00000  Uiso   1.00
C239   C     0.59904   0.91008   0.89953   0.00000  Uiso   1.00
C240   C     0.42480   0.40322   0.86568   0.00000  Uiso   1.00
C241   C     0.46364   0.50244   0.86448   0.00000  Uiso   1.00
C242   C     0.45288   0.56939   0.90982   0.00000  Uiso   1.00
C243   C     0.45475   0.70704   0.97307   0.00000  Uiso   1.00
C244   C     0.34016   0.26006   0.90322   0.00000  Uiso   1.00
C245   C     0.29295   0.26388   0.84921   0.00000  Uiso   1.00
C246   C     0.21150   0.23982   0.84295   0.00000  Uiso   1.00
C247   C     0.17959   0.24814   0.79013   0.00000  Uiso   1.00
C248   C     0.41101   0.18378   0.89322   0.00000  Uiso   1.00
C249   C     0.42883   0.09237   0.92397   0.00000  Uiso   1.00
C250   C     0.49630   0.03326   0.90821   0.00000  Uiso   1.00
C251   C     0.37693   0.37195   0.91058   0.00000  Uiso   1.00
C252   C     0.36611   0.43875   0.95594   0.00000  Uiso   1.00
C253   C     0.40492   0.53806   0.95480   0.00000  Uiso   1.00
H254   H     0.46557   0.34196   0.78560   0.00000  Uiso   1.00
H255   H     0.34609   0.32770   0.71675   0.00000  Uiso   1.00
H256   H     0.56339   0.18029   0.79777   0.00000  Uiso   1.00
H257   H     0.50068   0.52661   0.82972   0.00000  Uiso   1.00
H258   H     0.19251   0.29805   0.66022   0.00000  Uiso   1.00
H259   H     0.65071   0.98725   0.83106   0.00000  Uiso   1.00
H260   H     0.51849   0.71754   0.89845   0.00000  Uiso   1.00
H261   H     0.30289   0.23571   0.93818   0.00000  Uiso   1.00
H262   H     0.17447   0.21562   0.87770   0.00000  Uiso   1.00
H263   H     0.39177   0.06821   0.95872   0.00000  Uiso   1.00
H264   H     0.32906   0.41453   0.99068   0.00000  Uiso   1.00
H265   H     0.05322   0.20708   0.79085   0.00000  Uiso   1.00
H266   H     0.51143   0.89628   0.96169   0.00000  Uiso   1.00
H267   H     0.37919   0.62657   0.02908   0.00000  Uiso   1.00
O268   O     0.04133   0.24123   0.68300   0.00000  Uiso   1.00
O269   O     0.64248   0.83348   0.90714   0.00000  Uiso   1.00
O270   O     0.46900   0.79161   0.99555   0.00000  Uiso   1.00
N271   N     0.17735   0.27942   0.69926   0.00000  Uiso   1.00
N272   N     0.60573   0.98883   0.85898   0.00000  Uiso   1.00
N273   N     0.48213   0.67158   0.92199   0.00000  Uiso   1.00
N274   N     0.10240   0.23047   0.76956   0.00000  Uiso   1.00
N275   N     0.53078   0.93988   0.92928   0.00000  Uiso   1.00
N276   N     0.40718   0.62263   0.99229   0.00000  Uiso   1.00
C277   C     0.92830   0.68237   0.67945   0.00000  Uiso   1.00
C278   C     0.84082   0.70485   0.69570   0.00000  Uiso   1.00
C279   C     0.80902   0.69649   0.74851   0.00000  Uiso   1.00
C280   C     0.72755   0.72054   0.75485   0.00000  Uiso   1.00
C281   C     0.59901   0.75074   0.78691   0.00000  Uiso   1.00
C282   C     0.95888   0.78495   0.65168   0.00000  Uiso   1.00
C283   C     0.02635   0.84394   0.66749   0.00000  Uiso   1.00
C284   C     0.04426   0.93541   0.63677   0.00000  Uiso   1.00
C285   C     0.09904   0.08992   0.60047   0.00000  Uiso   1.00
C286   C     0.92480   0.59678   0.63432   0.00000  Uiso   1.00
C287   C     0.96364   0.49756   0.63552   0.00000  Uiso   1.00
C288   C     0.95288   0.43061   0.59018   0.00000  Uiso   1.00
C289   C     0.95475   0.29296   0.52693   0.00000  Uiso   1.00
C290   C     0.84016   0.73994   0.59678   0.00000  Uiso   1.00
C291   C     0.79295   0.73612   0.65079   0.00000  Uiso   1.00
C292   C     0.71150   0.76018   0.65705   0.00000  Uiso   1.00
C293   C     0.67959   0.75186   0.70987   0.00000  Uiso   1.00
C294   C     0.91101   0.81622   0.60678   0.00000  Uiso   1.00
C295   C     0.92883   0.90763   0.57603   0.00000  Uiso   1.00
C296   C     0.99630   0.96674   0.59179   0.00000  Uiso   1.00
C297   C     0.87693   0.62805   0.58942   0.00000  Uiso   1.00
C298   C     0.86611   0.56125   0.54406   0.00000  Uiso   1.00
C299   C     0.90492   0.46194   0.54520   0.00000  Uiso   1.00
H300   H     0.96557   0.65804   0.71440   0.00000  Uiso   1.00
H301   H     0.84609   0.67230   0.78325   0.00000  Uiso   1.00
H302   H     0.06339   0.81971   0.70223   0.00000  Uiso   1.00
H303   H     0.00068   0.47339   0.67028   0.00000  Uiso   1.00
H304   H     0.69251   0.70195   0.83978   0.00000  Uiso   1.00
H305   H     0.15071   0.01275   0.66894   0.00000  Uiso   1.00
H306   H     0.01849   0.28246   0.60155   0.00000  Uiso   1.00
H307   H     0.80289   0.76429   0.56182   0.00000  Uiso   1.00
H308   H     0.67447   0.78438   0.62230   0.00000  Uiso   1.00
H309   H     0.89177   0.93179   0.54128   0.00000  Uiso   1.00
H310   H     0.82906   0.58547   0.50932   0.00000  Uiso   1.00
H311   H     0.55322   0.79292   0.70915   0.00000  Uiso   1.00
H312   H     0.01143   0.10372   0.53831   0.00000  Uiso   1.00
H313   H     0.87919   0.37343   0.47092   0.00000  Uiso   1.00
O314   O     0.54133   0.75877   0.81700   0.00000  Uiso   1.00
O315   O     0.14248   0.16652   0.59286   0.00000  Uiso   1.00
O316   O     0.96900   0.20839   0.50445   0.00000  Uiso   1.00
N317   N     0.67735   0.72058   0.80074   0.00000  Uiso   1.00
N318   N     0.10573   0.01117   0.64102   0.00000  Uiso   1.00
N319   N     0.98213   0.32842   0.57801   0.00000  Uiso   1.00
N320   N     0.60240   0.76953   0.73044   0.00000  Uiso   1.00
N321   N     0.03078   0.06012   0.57072   0.00000  Uiso   1.00
N322   N     0.90718   0.37737   0.50771   0.00000  Uiso   1.00
C323   C     0.57170   0.31763   0.67945   0.00000  Uiso   1.00
C324   C     0.65918   0.29515   0.69570   0.00000  Uiso   1.00
C325   C     0.69098   0.30351   0.74851   0.00000  Uiso   1.00
C326   C     0.77245   0.27946   0.75485   0.00000  Uiso   1.00
C327   C     0.90099   0.24926   0.78691   0.00000  Uiso   1.00
C328   C     0.54112   0.21505   0.65168   0.00000  Uiso   1.00
C329   C     0.47365   0.15606   0.66749   0.00000  Uiso   1.00
C330   C     0.45574   0.06459   0.63677   0.00000  Uiso   1.00
C331   C     0.40096   0.91008   0.60047   0.00000  Uiso   1.00
C332   C     0.57520   0.40322   0.63432   0.00000  Uiso   1.00
C333   C     0.53636   0.50244   0.63552   0.00000  Uiso   1.00
C334   C     0.54712   0.56939   0.59018   0.00000  Uiso   1.00
C335   C     0.54525   0.70704   0.52693   0.00000  Uiso   1.00
C336   C     0.65984   0.26006   0.59678   0.00000  Uiso   1.00
C337   C     0.70705   0.26388   0.65079   0.00000  Uiso   1.00
C338   C     0.78850   0.23982   0.65705   0.00000  Uiso   1.00
C339   C     0.82041   0.24814   0.70987   0.00000  Uiso   1.00
C340   C     0.58899   0.18378   0.60678   0.00000  Uiso   1.00
C341   C     0.57117   0.09237   0.57603   0.00000  Uiso   1.00
C342   C     0.50370   0.03326   0.59179   0.00000  Uiso   1.00
C343   C     0.62307   0.37195   0.58942   0.00000  Uiso   1.00
C344   C     0.63389   0.43875   0.54406   0.00000  Uiso   1.00
C345   C     0.59508   0.53806   0.54520   0.00000  Uiso   1.00
H346   H     0.53443   0.34196   0.71440   0.00000  Uiso   1.00
H347   H     0.65391   0.32770   0.78325   0.00000  Uiso   1.00
H348   H     0.43661   0.18029   0.70223   0.00000  Uiso   1.00
H349   H     0.49932   0.52661   0.67028   0.00000  Uiso   1.00
H350   H     0.80749   0.29805   0.83978   0.00000  Uiso   1.00
H351   H     0.34929   0.98725   0.66894   0.00000  Uiso   1.00
H352   H     0.48151   0.71754   0.60155   0.00000  Uiso   1.00
H353   H     0.69711   0.23571   0.56182   0.00000  Uiso   1.00
H354   H     0.82553   0.21562   0.62230   0.00000  Uiso   1.00
H355   H     0.60823   0.06821   0.54128   0.00000  Uiso   1.00
H356   H     0.67094   0.41453   0.50932   0.00000  Uiso   1.00
H357   H     0.94678   0.20708   0.70915   0.00000  Uiso   1.00
H358   H     0.48857   0.89628   0.53831   0.00000  Uiso   1.00
H359   H     0.62081   0.62657   0.47092   0.00000  Uiso   1.00
O360   O     0.95867   0.24123   0.81700   0.00000  Uiso   1.00
O361   O     0.35752   0.83348   0.59286   0.00000  Uiso   1.00
O362   O     0.53100   0.79161   0.50445   0.00000  Uiso   1.00
N363   N     0.82265   0.27942   0.80074   0.00000  Uiso   1.00
N364   N     0.39427   0.98883   0.64102   0.00000  Uiso   1.00
N365   N     0.51787   0.67158   0.57801   0.00000  Uiso   1.00
N366   N     0.89760   0.23047   0.73044   0.00000  Uiso   1.00
N367   N     0.46922   0.93988   0.57072   0.00000  Uiso   1.00
N368   N     0.59282   0.62263   0.50771   0.00000  Uiso   1.00
