data_job_01080
_audit_creation_date              2018-12-19
_audit_creation_method            'Materials Studio'
_symmetry_space_group_name_H-M    'P1'
_symmetry_Int_Tables_number       1
_symmetry_cell_setting            triclinic
loop_
_symmetry_equiv_pos_as_xyz
  x,y,z
_cell_length_a                    20.4716
_cell_length_b                    23.0245
_cell_length_c                    13.0667
_cell_angle_alpha                 90.0000
_cell_angle_beta                  90.0000
_cell_angle_gamma                 90.0000
loop_
_atom_site_label
_atom_site_type_symbol
_atom_site_fract_x
_atom_site_fract_y
_atom_site_fract_z
_atom_site_U_iso_or_equiv
_atom_site_adp_type
_atom_site_occupancy
C1     C     0.20202   0.35941   0.31390   0.00000  Uiso   1.00
C2     C     0.18540   0.38996   0.21367   0.00000  Uiso   1.00
C3     C     0.12597   0.41563   0.18994   0.00000  Uiso   1.00
C4     C     0.12049   0.44134   0.09421   0.00000  Uiso   1.00
C5     C     0.08675   0.48875   0.94913   0.00000  Uiso   1.00
C6     C     0.22394   0.29832   0.28469   0.00000  Uiso   1.00
C7     C     0.19692   0.24695   0.32068   0.00000  Uiso   1.00
C8     C     0.22390   0.19552   0.28474   0.00000  Uiso   1.00
C9     C     0.25002   0.10066   0.24998   0.00000  Uiso   1.00
C10    C     0.26248   0.38995   0.35574   0.00000  Uiso   1.00
C11    C     0.26787   0.41561   0.45147   0.00000  Uiso   1.00
C12    C     0.32731   0.44131   0.47536   0.00000  Uiso   1.00
C13    C     0.41326   0.48872   0.55090   0.00000  Uiso   1.00
C14    C     0.29798   0.35941   0.18610   0.00000  Uiso   1.00
C15    C     0.23752   0.38996   0.14426   0.00000  Uiso   1.00
C16    C     0.23214   0.41564   0.04854   0.00000  Uiso   1.00
C17    C     0.17271   0.44135   0.02467   0.00000  Uiso   1.00
C18    C     0.27606   0.29832   0.21528   0.00000  Uiso   1.00
C19    C     0.30309   0.24695   0.17929   0.00000  Uiso   1.00
C20    C     0.27612   0.19552   0.21520   0.00000  Uiso   1.00
C21    C     0.31461   0.38995   0.28632   0.00000  Uiso   1.00
C22    C     0.37404   0.41561   0.31007   0.00000  Uiso   1.00
C23    C     0.37952   0.44131   0.40582   0.00000  Uiso   1.00
H24    H     0.16145   0.35940   0.36794   0.00000  Uiso   1.00
H25    H     0.08564   0.41562   0.24367   0.00000  Uiso   1.00
H26    H     0.15659   0.24696   0.37441   0.00000  Uiso   1.00
H27    H     0.22753   0.41560   0.50517   0.00000  Uiso   1.00
H28    H     0.02458   0.47792   0.07528   0.00000  Uiso   1.00
H29    H     0.17419   0.12230   0.35096   0.00000  Uiso   1.00
H30    H     0.32378   0.47790   0.62670   0.00000  Uiso   1.00
H31    H     0.33856   0.35941   0.13205   0.00000  Uiso   1.00
H32    H     0.27248   0.41563   0.99484   0.00000  Uiso   1.00
H33    H     0.34343   0.24697   0.12557   0.00000  Uiso   1.00
H34    H     0.41436   0.41561   0.25634   0.00000  Uiso   1.00
H35    H     0.17622   0.47793   0.87331   0.00000  Uiso   1.00
H36    H     0.32584   0.12231   0.14900   0.00000  Uiso   1.00
H37    H     0.47542   0.47791   0.42474   0.00000  Uiso   1.00
O38    O     0.05373   0.51489   0.88827   0.00000  Uiso   1.00
O39    O     0.25002   0.04833   0.24998   0.00000  Uiso   1.00
O40    O     0.44627   0.51487   0.61174   0.00000  Uiso   1.00
N41    N     0.06934   0.47022   0.04658   0.00000  Uiso   1.00
N42    N     0.20921   0.13773   0.30432   0.00000  Uiso   1.00
N43    N     0.34907   0.47018   0.56213   0.00000  Uiso   1.00
N44    N     0.15094   0.47022   0.93791   0.00000  Uiso   1.00
N45    N     0.29081   0.13774   0.19564   0.00000  Uiso   1.00
N46    N     0.43067   0.47018   0.45345   0.00000  Uiso   1.00
C47    C     0.29798   0.14059   0.81390   0.00000  Uiso   1.00
C48    C     0.31460   0.11004   0.71367   0.00000  Uiso   1.00
C49    C     0.37403   0.08437   0.68994   0.00000  Uiso   1.00
C50    C     0.37951   0.05866   0.59421   0.00000  Uiso   1.00
C51    C     0.41325   0.01125   0.44913   0.00000  Uiso   1.00
C52    C     0.27606   0.20168   0.78469   0.00000  Uiso   1.00
C53    C     0.30308   0.25305   0.82068   0.00000  Uiso   1.00
C54    C     0.27610   0.30448   0.78474   0.00000  Uiso   1.00
C55    C     0.24998   0.39934   0.74998   0.00000  Uiso   1.00
C56    C     0.23752   0.11005   0.85574   0.00000  Uiso   1.00
C57    C     0.23213   0.08439   0.95147   0.00000  Uiso   1.00
C58    C     0.17269   0.05869   0.97536   0.00000  Uiso   1.00
C59    C     0.08674   0.01128   0.05090   0.00000  Uiso   1.00
C60    C     0.20202   0.14059   0.68610   0.00000  Uiso   1.00
C61    C     0.26248   0.11004   0.64426   0.00000  Uiso   1.00
C62    C     0.26786   0.08436   0.54854   0.00000  Uiso   1.00
C63    C     0.32729   0.05865   0.52467   0.00000  Uiso   1.00
C64    C     0.22394   0.20168   0.71528   0.00000  Uiso   1.00
C65    C     0.19691   0.25305   0.67929   0.00000  Uiso   1.00
C66    C     0.22388   0.30448   0.71520   0.00000  Uiso   1.00
C67    C     0.18539   0.11005   0.78632   0.00000  Uiso   1.00
C68    C     0.12596   0.08439   0.81007   0.00000  Uiso   1.00
C69    C     0.12048   0.05869   0.90582   0.00000  Uiso   1.00
H70    H     0.33855   0.14060   0.86794   0.00000  Uiso   1.00
H71    H     0.41436   0.08438   0.74367   0.00000  Uiso   1.00
H72    H     0.34341   0.25304   0.87441   0.00000  Uiso   1.00
H73    H     0.27247   0.08440   0.00517   0.00000  Uiso   1.00
H74    H     0.47542   0.02208   0.57528   0.00000  Uiso   1.00
H75    H     0.32581   0.37770   0.85096   0.00000  Uiso   1.00
H76    H     0.17622   0.02210   0.12670   0.00000  Uiso   1.00
H77    H     0.16144   0.14059   0.63205   0.00000  Uiso   1.00
H78    H     0.22752   0.08437   0.49484   0.00000  Uiso   1.00
H79    H     0.15657   0.25303   0.62557   0.00000  Uiso   1.00
H80    H     0.08564   0.08439   0.75634   0.00000  Uiso   1.00
H81    H     0.32378   0.02207   0.37331   0.00000  Uiso   1.00
H82    H     0.17416   0.37769   0.64900   0.00000  Uiso   1.00
H83    H     0.02458   0.02209   0.92474   0.00000  Uiso   1.00
O84    O     0.44627   0.98511   0.38827   0.00000  Uiso   1.00
O85    O     0.24998   0.45167   0.74998   0.00000  Uiso   1.00
O86    O     0.05373   0.98513   0.11174   0.00000  Uiso   1.00
N87    N     0.43066   0.02978   0.54658   0.00000  Uiso   1.00
N88    N     0.29079   0.36227   0.80432   0.00000  Uiso   1.00
N89    N     0.15093   0.02982   0.06213   0.00000  Uiso   1.00
N90    N     0.34906   0.02978   0.43791   0.00000  Uiso   1.00
N91    N     0.20919   0.36226   0.69564   0.00000  Uiso   1.00
N92    N     0.06933   0.02982   0.95345   0.00000  Uiso   1.00
C93    C     0.79798   0.35941   0.18610   0.00000  Uiso   1.00
C94    C     0.81460   0.38996   0.28633   0.00000  Uiso   1.00
C95    C     0.87403   0.41563   0.31006   0.00000  Uiso   1.00
C96    C     0.87951   0.44134   0.40579   0.00000  Uiso   1.00
C97    C     0.91325   0.48875   0.55087   0.00000  Uiso   1.00
C98    C     0.77606   0.29832   0.21531   0.00000  Uiso   1.00
C99    C     0.80308   0.24695   0.17932   0.00000  Uiso   1.00
C100   C     0.77610   0.19552   0.21526   0.00000  Uiso   1.00
C101   C     0.74998   0.10066   0.25002   0.00000  Uiso   1.00
C102   C     0.73752   0.38995   0.14426   0.00000  Uiso   1.00
C103   C     0.73213   0.41561   0.04853   0.00000  Uiso   1.00
C104   C     0.67269   0.44131   0.02464   0.00000  Uiso   1.00
C105   C     0.58674   0.48872   0.94910   0.00000  Uiso   1.00
C106   C     0.70202   0.35941   0.31390   0.00000  Uiso   1.00
C107   C     0.76248   0.38996   0.35574   0.00000  Uiso   1.00
C108   C     0.76786   0.41564   0.45146   0.00000  Uiso   1.00
C109   C     0.82729   0.44135   0.47533   0.00000  Uiso   1.00
C110   C     0.72394   0.29832   0.28472   0.00000  Uiso   1.00
C111   C     0.69691   0.24695   0.32071   0.00000  Uiso   1.00
C112   C     0.72388   0.19552   0.28480   0.00000  Uiso   1.00
C113   C     0.68539   0.38995   0.21368   0.00000  Uiso   1.00
C114   C     0.62596   0.41561   0.18993   0.00000  Uiso   1.00
C115   C     0.62048   0.44131   0.09418   0.00000  Uiso   1.00
H116   H     0.83855   0.35940   0.13206   0.00000  Uiso   1.00
H117   H     0.91436   0.41562   0.25633   0.00000  Uiso   1.00
H118   H     0.84341   0.24696   0.12559   0.00000  Uiso   1.00
H119   H     0.77247   0.41560   0.99483   0.00000  Uiso   1.00
H120   H     0.97542   0.47792   0.42472   0.00000  Uiso   1.00
H121   H     0.82581   0.12230   0.14904   0.00000  Uiso   1.00
H122   H     0.67622   0.47790   0.87330   0.00000  Uiso   1.00
H123   H     0.66144   0.35941   0.36795   0.00000  Uiso   1.00
H124   H     0.72752   0.41563   0.50516   0.00000  Uiso   1.00
H125   H     0.65657   0.24697   0.37443   0.00000  Uiso   1.00
H126   H     0.58564   0.41561   0.24366   0.00000  Uiso   1.00
H127   H     0.82378   0.47793   0.62669   0.00000  Uiso   1.00
H128   H     0.67416   0.12231   0.35100   0.00000  Uiso   1.00
H129   H     0.52458   0.47791   0.07526   0.00000  Uiso   1.00
O130   O     0.94627   0.51489   0.61173   0.00000  Uiso   1.00
O131   O     0.74998   0.04833   0.25002   0.00000  Uiso   1.00
O132   O     0.55373   0.51487   0.88826   0.00000  Uiso   1.00
N133   N     0.93066   0.47022   0.45342   0.00000  Uiso   1.00
N134   N     0.79079   0.13773   0.19568   0.00000  Uiso   1.00
N135   N     0.65093   0.47018   0.93787   0.00000  Uiso   1.00
N136   N     0.84906   0.47022   0.56209   0.00000  Uiso   1.00
N137   N     0.70919   0.13774   0.30436   0.00000  Uiso   1.00
N138   N     0.56933   0.47018   0.04655   0.00000  Uiso   1.00
C139   C     0.70202   0.14059   0.68610   0.00000  Uiso   1.00
C140   C     0.68540   0.11004   0.78633   0.00000  Uiso   1.00
C141   C     0.62597   0.08437   0.81006   0.00000  Uiso   1.00
C142   C     0.62049   0.05866   0.90579   0.00000  Uiso   1.00
C143   C     0.58675   0.01125   0.05087   0.00000  Uiso   1.00
C144   C     0.72394   0.20168   0.71531   0.00000  Uiso   1.00
C145   C     0.69692   0.25305   0.67932   0.00000  Uiso   1.00
C146   C     0.72390   0.30448   0.71526   0.00000  Uiso   1.00
C147   C     0.75002   0.39934   0.75002   0.00000  Uiso   1.00
C148   C     0.76248   0.11005   0.64426   0.00000  Uiso   1.00
C149   C     0.76787   0.08439   0.54853   0.00000  Uiso   1.00
C150   C     0.82731   0.05869   0.52464   0.00000  Uiso   1.00
C151   C     0.91326   0.01128   0.44910   0.00000  Uiso   1.00
C152   C     0.79798   0.14059   0.81390   0.00000  Uiso   1.00
C153   C     0.73752   0.11004   0.85574   0.00000  Uiso   1.00
C154   C     0.73214   0.08436   0.95146   0.00000  Uiso   1.00
C155   C     0.67271   0.05865   0.97533   0.00000  Uiso   1.00
C156   C     0.77606   0.20168   0.78472   0.00000  Uiso   1.00
C157   C     0.80309   0.25305   0.82071   0.00000  Uiso   1.00
C158   C     0.77612   0.30448   0.78480   0.00000  Uiso   1.00
C159   C     0.81461   0.11005   0.71368   0.00000  Uiso   1.00
C160   C     0.87404   0.08439   0.68993   0.00000  Uiso   1.00
C161   C     0.87952   0.05869   0.59418   0.00000  Uiso   1.00
H162   H     0.66145   0.14060   0.63206   0.00000  Uiso   1.00
H163   H     0.58564   0.08438   0.75633   0.00000  Uiso   1.00
H164   H     0.65659   0.25304   0.62559   0.00000  Uiso   1.00
H165   H     0.72753   0.08440   0.49483   0.00000  Uiso   1.00
H166   H     0.52458   0.02208   0.92472   0.00000  Uiso   1.00
H167   H     0.67419   0.37770   0.64904   0.00000  Uiso   1.00
H168   H     0.82378   0.02210   0.37330   0.00000  Uiso   1.00
H169   H     0.83856   0.14059   0.86795   0.00000  Uiso   1.00
H170   H     0.77248   0.08437   0.00516   0.00000  Uiso   1.00
H171   H     0.84343   0.25303   0.87443   0.00000  Uiso   1.00
H172   H     0.91436   0.08439   0.74366   0.00000  Uiso   1.00
H173   H     0.67622   0.02207   0.12669   0.00000  Uiso   1.00
H174   H     0.82584   0.37769   0.85100   0.00000  Uiso   1.00
H175   H     0.97542   0.02209   0.57526   0.00000  Uiso   1.00
O176   O     0.55373   0.98511   0.11173   0.00000  Uiso   1.00
O177   O     0.75002   0.45167   0.75002   0.00000  Uiso   1.00
O178   O     0.94627   0.98513   0.38826   0.00000  Uiso   1.00
N179   N     0.56934   0.02978   0.95342   0.00000  Uiso   1.00
N180   N     0.70921   0.36227   0.69568   0.00000  Uiso   1.00
N181   N     0.84907   0.02982   0.43787   0.00000  Uiso   1.00
N182   N     0.65094   0.02978   0.06209   0.00000  Uiso   1.00
N183   N     0.79081   0.36226   0.80436   0.00000  Uiso   1.00
N184   N     0.93067   0.02982   0.54655   0.00000  Uiso   1.00
C185   C     0.79798   0.64059   0.68610   0.00000  Uiso   1.00
C186   C     0.81460   0.61004   0.78633   0.00000  Uiso   1.00
C187   C     0.87403   0.58437   0.81006   0.00000  Uiso   1.00
C188   C     0.87951   0.55866   0.90579   0.00000  Uiso   1.00
C189   C     0.91325   0.51125   0.05087   0.00000  Uiso   1.00
C190   C     0.77606   0.70168   0.71531   0.00000  Uiso   1.00
C191   C     0.80308   0.75305   0.67932   0.00000  Uiso   1.00
C192   C     0.77610   0.80448   0.71526   0.00000  Uiso   1.00
C193   C     0.74998   0.89934   0.75002   0.00000  Uiso   1.00
C194   C     0.73752   0.61005   0.64426   0.00000  Uiso   1.00
C195   C     0.73213   0.58439   0.54853   0.00000  Uiso   1.00
C196   C     0.67269   0.55869   0.52464   0.00000  Uiso   1.00
C197   C     0.58674   0.51128   0.44910   0.00000  Uiso   1.00
C198   C     0.70202   0.64059   0.81390   0.00000  Uiso   1.00
C199   C     0.76248   0.61004   0.85574   0.00000  Uiso   1.00
C200   C     0.76786   0.58436   0.95146   0.00000  Uiso   1.00
C201   C     0.82729   0.55865   0.97533   0.00000  Uiso   1.00
C202   C     0.72394   0.70168   0.78472   0.00000  Uiso   1.00
C203   C     0.69691   0.75305   0.82071   0.00000  Uiso   1.00
C204   C     0.72388   0.80448   0.78480   0.00000  Uiso   1.00
C205   C     0.68539   0.61005   0.71368   0.00000  Uiso   1.00
C206   C     0.62596   0.58439   0.68993   0.00000  Uiso   1.00
C207   C     0.62048   0.55869   0.59418   0.00000  Uiso   1.00
H208   H     0.83855   0.64060   0.63206   0.00000  Uiso   1.00
H209   H     0.91436   0.58438   0.75633   0.00000  Uiso   1.00
H210   H     0.84341   0.75304   0.62559   0.00000  Uiso   1.00
H211   H     0.77247   0.58440   0.49483   0.00000  Uiso   1.00
H212   H     0.97542   0.52208   0.92472   0.00000  Uiso   1.00
H213   H     0.82581   0.87770   0.64904   0.00000  Uiso   1.00
H214   H     0.67622   0.52210   0.37330   0.00000  Uiso   1.00
H215   H     0.66144   0.64059   0.86795   0.00000  Uiso   1.00
H216   H     0.72752   0.58437   0.00516   0.00000  Uiso   1.00
H217   H     0.65657   0.75303   0.87443   0.00000  Uiso   1.00
H218   H     0.58564   0.58439   0.74366   0.00000  Uiso   1.00
H219   H     0.82378   0.52207   0.12669   0.00000  Uiso   1.00
H220   H     0.67416   0.87769   0.85100   0.00000  Uiso   1.00
H221   H     0.52458   0.52209   0.57526   0.00000  Uiso   1.00
O222   O     0.94627   0.48511   0.11173   0.00000  Uiso   1.00
O223   O     0.74998   0.95167   0.75002   0.00000  Uiso   1.00
O224   O     0.55373   0.48513   0.38826   0.00000  Uiso   1.00
N225   N     0.93066   0.52978   0.95342   0.00000  Uiso   1.00
N226   N     0.79079   0.86227   0.69568   0.00000  Uiso   1.00
N227   N     0.65093   0.52982   0.43787   0.00000  Uiso   1.00
N228   N     0.84906   0.52978   0.06209   0.00000  Uiso   1.00
N229   N     0.70919   0.86226   0.80436   0.00000  Uiso   1.00
N230   N     0.56933   0.52982   0.54655   0.00000  Uiso   1.00
C231   C     0.70202   0.85941   0.18610   0.00000  Uiso   1.00
C232   C     0.68540   0.88996   0.28633   0.00000  Uiso   1.00
C233   C     0.62597   0.91563   0.31006   0.00000  Uiso   1.00
C234   C     0.62049   0.94134   0.40579   0.00000  Uiso   1.00
C235   C     0.58675   0.98875   0.55087   0.00000  Uiso   1.00
C236   C     0.72394   0.79832   0.21531   0.00000  Uiso   1.00
C237   C     0.69692   0.74695   0.17932   0.00000  Uiso   1.00
C238   C     0.72390   0.69552   0.21526   0.00000  Uiso   1.00
C239   C     0.75002   0.60066   0.25002   0.00000  Uiso   1.00
C240   C     0.76248   0.88995   0.14426   0.00000  Uiso   1.00
C241   C     0.76787   0.91561   0.04853   0.00000  Uiso   1.00
C242   C     0.82731   0.94131   0.02464   0.00000  Uiso   1.00
C243   C     0.91326   0.98872   0.94910   0.00000  Uiso   1.00
C244   C     0.79798   0.85941   0.31390   0.00000  Uiso   1.00
C245   C     0.73752   0.88996   0.35574   0.00000  Uiso   1.00
C246   C     0.73214   0.91564   0.45146   0.00000  Uiso   1.00
C247   C     0.67271   0.94135   0.47533   0.00000  Uiso   1.00
C248   C     0.77606   0.79832   0.28472   0.00000  Uiso   1.00
C249   C     0.80309   0.74695   0.32071   0.00000  Uiso   1.00
C250   C     0.77612   0.69552   0.28480   0.00000  Uiso   1.00
C251   C     0.81461   0.88995   0.21368   0.00000  Uiso   1.00
C252   C     0.87404   0.91561   0.18993   0.00000  Uiso   1.00
C253   C     0.87952   0.94131   0.09418   0.00000  Uiso   1.00
H254   H     0.66145   0.85940   0.13206   0.00000  Uiso   1.00
H255   H     0.58564   0.91562   0.25633   0.00000  Uiso   1.00
H256   H     0.65659   0.74696   0.12559   0.00000  Uiso   1.00
H257   H     0.72753   0.91560   0.99483   0.00000  Uiso   1.00
H258   H     0.52458   0.97792   0.42472   0.00000  Uiso   1.00
H259   H     0.67419   0.62230   0.14904   0.00000  Uiso   1.00
H260   H     0.82378   0.97790   0.87330   0.00000  Uiso   1.00
H261   H     0.83856   0.85941   0.36795   0.00000  Uiso   1.00
H262   H     0.77248   0.91563   0.50516   0.00000  Uiso   1.00
H263   H     0.84343   0.74697   0.37443   0.00000  Uiso   1.00
H264   H     0.91436   0.91561   0.24366   0.00000  Uiso   1.00
H265   H     0.67622   0.97793   0.62669   0.00000  Uiso   1.00
H266   H     0.82584   0.62231   0.35100   0.00000  Uiso   1.00
H267   H     0.97542   0.97791   0.07526   0.00000  Uiso   1.00
O268   O     0.55373   0.01489   0.61173   0.00000  Uiso   1.00
O269   O     0.75002   0.54833   0.25002   0.00000  Uiso   1.00
O270   O     0.94627   0.01487   0.88826   0.00000  Uiso   1.00
N271   N     0.56934   0.97022   0.45342   0.00000  Uiso   1.00
N272   N     0.70921   0.63773   0.19568   0.00000  Uiso   1.00
N273   N     0.84907   0.97018   0.93787   0.00000  Uiso   1.00
N274   N     0.65094   0.97022   0.56209   0.00000  Uiso   1.00
N275   N     0.79081   0.63774   0.30436   0.00000  Uiso   1.00
N276   N     0.93067   0.97018   0.04655   0.00000  Uiso   1.00
C277   C     0.20202   0.64059   0.81390   0.00000  Uiso   1.00
C278   C     0.18540   0.61004   0.71367   0.00000  Uiso   1.00
C279   C     0.12597   0.58437   0.68994   0.00000  Uiso   1.00
C280   C     0.12049   0.55866   0.59421   0.00000  Uiso   1.00
C281   C     0.08675   0.51125   0.44913   0.00000  Uiso   1.00
C282   C     0.22394   0.70168   0.78469   0.00000  Uiso   1.00
C283   C     0.19692   0.75305   0.82068   0.00000  Uiso   1.00
C284   C     0.22390   0.80448   0.78474   0.00000  Uiso   1.00
C285   C     0.25002   0.89934   0.74998   0.00000  Uiso   1.00
C286   C     0.26248   0.61005   0.85574   0.00000  Uiso   1.00
C287   C     0.26787   0.58439   0.95147   0.00000  Uiso   1.00
C288   C     0.32731   0.55869   0.97536   0.00000  Uiso   1.00
C289   C     0.41326   0.51128   0.05090   0.00000  Uiso   1.00
C290   C     0.29798   0.64059   0.68610   0.00000  Uiso   1.00
C291   C     0.23752   0.61004   0.64426   0.00000  Uiso   1.00
C292   C     0.23214   0.58436   0.54854   0.00000  Uiso   1.00
C293   C     0.17271   0.55865   0.52467   0.00000  Uiso   1.00
C294   C     0.27606   0.70168   0.71528   0.00000  Uiso   1.00
C295   C     0.30309   0.75305   0.67929   0.00000  Uiso   1.00
C296   C     0.27612   0.80448   0.71520   0.00000  Uiso   1.00
C297   C     0.31461   0.61005   0.78632   0.00000  Uiso   1.00
C298   C     0.37404   0.58439   0.81007   0.00000  Uiso   1.00
C299   C     0.37952   0.55869   0.90582   0.00000  Uiso   1.00
H300   H     0.16145   0.64060   0.86794   0.00000  Uiso   1.00
H301   H     0.08564   0.58438   0.74367   0.00000  Uiso   1.00
H302   H     0.15659   0.75304   0.87441   0.00000  Uiso   1.00
H303   H     0.22753   0.58440   0.00517   0.00000  Uiso   1.00
H304   H     0.02458   0.52208   0.57528   0.00000  Uiso   1.00
H305   H     0.17419   0.87770   0.85096   0.00000  Uiso   1.00
H306   H     0.32378   0.52210   0.12670   0.00000  Uiso   1.00
H307   H     0.33856   0.64059   0.63205   0.00000  Uiso   1.00
H308   H     0.27248   0.58437   0.49484   0.00000  Uiso   1.00
H309   H     0.34343   0.75303   0.62557   0.00000  Uiso   1.00
H310   H     0.41436   0.58439   0.75634   0.00000  Uiso   1.00
H311   H     0.17622   0.52207   0.37331   0.00000  Uiso   1.00
H312   H     0.32584   0.87769   0.64900   0.00000  Uiso   1.00
H313   H     0.47542   0.52209   0.92474   0.00000  Uiso   1.00
O314   O     0.05373   0.48511   0.38827   0.00000  Uiso   1.00
O315   O     0.25002   0.95167   0.74998   0.00000  Uiso   1.00
O316   O     0.44627   0.48513   0.11174   0.00000  Uiso   1.00
N317   N     0.06934   0.52978   0.54658   0.00000  Uiso   1.00
N318   N     0.20921   0.86227   0.80432   0.00000  Uiso   1.00
N319   N     0.34907   0.52982   0.06213   0.00000  Uiso   1.00
N320   N     0.15094   0.52978   0.43791   0.00000  Uiso   1.00
N321   N     0.29081   0.86226   0.69564   0.00000  Uiso   1.00
N322   N     0.43067   0.52982   0.95345   0.00000  Uiso   1.00
C323   C     0.29798   0.85941   0.31390   0.00000  Uiso   1.00
C324   C     0.31460   0.88996   0.21367   0.00000  Uiso   1.00
C325   C     0.37403   0.91563   0.18994   0.00000  Uiso   1.00
C326   C     0.37951   0.94134   0.09421   0.00000  Uiso   1.00
C327   C     0.41325   0.98875   0.94913   0.00000  Uiso   1.00
C328   C     0.27606   0.79832   0.28469   0.00000  Uiso   1.00
C329   C     0.30308   0.74695   0.32068   0.00000  Uiso   1.00
C330   C     0.27610   0.69552   0.28474   0.00000  Uiso   1.00
C331   C     0.24998   0.60066   0.24998   0.00000  Uiso   1.00
C332   C     0.23752   0.88995   0.35574   0.00000  Uiso   1.00
C333   C     0.23213   0.91561   0.45147   0.00000  Uiso   1.00
C334   C     0.17269   0.94131   0.47536   0.00000  Uiso   1.00
C335   C     0.08674   0.98872   0.55090   0.00000  Uiso   1.00
C336   C     0.20202   0.85941   0.18610   0.00000  Uiso   1.00
C337   C     0.26248   0.88996   0.14426   0.00000  Uiso   1.00
C338   C     0.26786   0.91564   0.04854   0.00000  Uiso   1.00
C339   C     0.32729   0.94135   0.02467   0.00000  Uiso   1.00
C340   C     0.22394   0.79832   0.21528   0.00000  Uiso   1.00
C341   C     0.19691   0.74695   0.17929   0.00000  Uiso   1.00
C342   C     0.22388   0.69552   0.21520   0.00000  Uiso   1.00
C343   C     0.18539   0.88995   0.28632   0.00000  Uiso   1.00
C344   C     0.12596   0.91561   0.31007   0.00000  Uiso   1.00
C345   C     0.12048   0.94131   0.40582   0.00000  Uiso   1.00
H346   H     0.33855   0.85940   0.36794   0.00000  Uiso   1.00
H347   H     0.41436   0.91562   0.24367   0.00000  Uiso   1.00
H348   H     0.34341   0.74696   0.37441   0.00000  Uiso   1.00
H349   H     0.27247   0.91560   0.50517   0.00000  Uiso   1.00
H350   H     0.47542   0.97792   0.07528   0.00000  Uiso   1.00
H351   H     0.32581   0.62230   0.35096   0.00000  Uiso   1.00
H352   H     0.17622   0.97790   0.62670   0.00000  Uiso   1.00
H353   H     0.16144   0.85941   0.13205   0.00000  Uiso   1.00
H354   H     0.22752   0.91563   0.99484   0.00000  Uiso   1.00
H355   H     0.15657   0.74697   0.12557   0.00000  Uiso   1.00
H356   H     0.08564   0.91561   0.25634   0.00000  Uiso   1.00
H357   H     0.32378   0.97793   0.87331   0.00000  Uiso   1.00
H358   H     0.17416   0.62231   0.14900   0.00000  Uiso   1.00
H359   H     0.02458   0.97791   0.42474   0.00000  Uiso   1.00
O360   O     0.44627   0.01489   0.88827   0.00000  Uiso   1.00
O361   O     0.24998   0.54833   0.24998   0.00000  Uiso   1.00
O362   O     0.05373   0.01487   0.61174   0.00000  Uiso   1.00
N363   N     0.43066   0.97022   0.04658   0.00000  Uiso   1.00
N364   N     0.29079   0.63773   0.30432   0.00000  Uiso   1.00
N365   N     0.15093   0.97018   0.56213   0.00000  Uiso   1.00
N366   N     0.34906   0.97022   0.93791   0.00000  Uiso   1.00
N367   N     0.20919   0.63774   0.19564   0.00000  Uiso   1.00
N368   N     0.06933   0.97018   0.45345   0.00000  Uiso   1.00
