data_job_06636
_audit_creation_date              2018-12-19
_audit_creation_method            'Materials Studio'
_symmetry_space_group_name_H-M    'P1'
_symmetry_Int_Tables_number       1
_symmetry_cell_setting            triclinic
loop_
_symmetry_equiv_pos_as_xyz
  x,y,z
_cell_length_a                    22.4206
_cell_length_b                    19.9785
_cell_length_c                    18.3182
_cell_angle_alpha                 80.1573
_cell_angle_beta                  82.5311
_cell_angle_gamma                 70.9681
loop_
_atom_site_label
_atom_site_type_symbol
_atom_site_fract_x
_atom_site_fract_y
_atom_site_fract_z
_atom_site_U_iso_or_equiv
_atom_site_adp_type
_atom_site_occupancy
C1     C     0.80872   0.06268   0.68110   0.00000  Uiso   1.00
C2     C     0.85103   0.07006   0.73606   0.00000  Uiso   1.00
C3     C     0.91626   0.05496   0.72550   0.00000  Uiso   1.00
C4     C     0.94632   0.06516   0.78241   0.00000  Uiso   1.00
C5     C     0.01720   0.07288   0.85785   0.00000  Uiso   1.00
C6     C     0.77289   0.01289   0.72311   0.00000  Uiso   1.00
C7     C     0.77242   0.94973   0.70167   0.00000  Uiso   1.00
C8     C     0.73670   0.91181   0.74768   0.00000  Uiso   1.00
C9     C     0.68623   0.83079   0.80301   0.00000  Uiso   1.00
C10    C     0.75933   0.13589   0.66627   0.00000  Uiso   1.00
C11    C     0.74744   0.17613   0.59702   0.00000  Uiso   1.00
C12    C     0.70029   0.24176   0.59517   0.00000  Uiso   1.00
C13    C     0.62876   0.35171   0.56223   0.00000  Uiso   1.00
C14    C     0.74611   0.10765   0.80095   0.00000  Uiso   1.00
C15    C     0.81702   0.09449   0.80115   0.00000  Uiso   1.00
C16    C     0.84700   0.10472   0.85809   0.00000  Uiso   1.00
C17    C     0.91226   0.08963   0.84762   0.00000  Uiso   1.00
C18    C     0.73889   0.03731   0.78821   0.00000  Uiso   1.00
C19    C     0.70316   0.99948   0.83426   0.00000  Uiso   1.00
C20    C     0.70263   0.93628   0.81290   0.00000  Uiso   1.00
C21    C     0.72533   0.16031   0.73136   0.00000  Uiso   1.00
C22    C     0.67818   0.22589   0.72962   0.00000  Uiso   1.00
C23    C     0.66622   0.26623   0.66038   0.00000  Uiso   1.00
H24    H     0.83519   0.04366   0.63042   0.00000  Uiso   1.00
H25    H     0.94256   0.03606   0.67511   0.00000  Uiso   1.00
H26    H     0.79873   0.93085   0.65129   0.00000  Uiso   1.00
H27    H     0.77376   0.15722   0.54666   0.00000  Uiso   1.00
H28    H     0.04660   0.03837   0.75338   0.00000  Uiso   1.00
H29    H     0.74333   0.81654   0.70313   0.00000  Uiso   1.00
H30    H     0.69067   0.29389   0.48249   0.00000  Uiso   1.00
H31    H     0.71964   0.12666   0.85163   0.00000  Uiso   1.00
H32    H     0.82067   0.12362   0.90846   0.00000  Uiso   1.00
H33    H     0.67685   0.01840   0.88463   0.00000  Uiso   1.00
H34    H     0.65188   0.24477   0.78000   0.00000  Uiso   1.00
H35    H     0.94767   0.10944   0.94278   0.00000  Uiso   1.00
H36    H     0.64440   0.88760   0.89252   0.00000  Uiso   1.00
H37    H     0.59174   0.36495   0.67189   0.00000  Uiso   1.00
O38    O     0.06568   0.07038   0.88149   0.00000  Uiso   1.00
O39    O     0.66779   0.77935   0.81554   0.00000  Uiso   1.00
O40    O     0.59871   0.40562   0.52608   0.00000  Uiso   1.00
N41    N     0.00945   0.05553   0.79015   0.00000  Uiso   1.00
N42    N     0.72592   0.84812   0.74317   0.00000  Uiso   1.00
N43    N     0.67667   0.29439   0.53689   0.00000  Uiso   1.00
N44    N     0.95622   0.09377   0.89206   0.00000  Uiso   1.00
N45    N     0.67268   0.88636   0.84508   0.00000  Uiso   1.00
N46    N     0.62344   0.33263   0.63880   0.00000  Uiso   1.00
C47    C     0.70247   0.86582   0.03277   0.00000  Uiso   1.00
C48    C     0.72710   0.90899   0.07578   0.00000  Uiso   1.00
C49    C     0.73496   0.97521   0.04943   0.00000  Uiso   1.00
C50    C     0.75811   0.00593   0.09736   0.00000  Uiso   1.00
C51    C     0.79414   0.07816   0.15324   0.00000  Uiso   1.00
C52    C     0.75336   0.79326   0.03258   0.00000  Uiso   1.00
C53    C     0.78329   0.76217   0.96991   0.00000  Uiso   1.00
C54    C     0.82854   0.69546   0.98148   0.00000  Uiso   1.00
C55    C     0.90531   0.58799   0.97028   0.00000  Uiso   1.00
C56    C     0.64556   0.85192   0.08038   0.00000  Uiso   1.00
C57    C     0.58485   0.87014   0.05789   0.00000  Uiso   1.00
C58    C     0.53935   0.85281   0.10969   0.00000  Uiso   1.00
C59    C     0.44873   0.83642   0.17271   0.00000  Uiso   1.00
C60    C     0.72960   0.80264   0.16476   0.00000  Uiso   1.00
C61    C     0.74183   0.87467   0.14748   0.00000  Uiso   1.00
C62    C     0.76497   0.90530   0.19546   0.00000  Uiso   1.00
C63    C     0.77287   0.97155   0.16918   0.00000  Uiso   1.00
C64    C     0.76809   0.75894   0.10427   0.00000  Uiso   1.00
C65    C     0.81331   0.69226   0.11594   0.00000  Uiso   1.00
C66    C     0.84331   0.66108   0.05330   0.00000  Uiso   1.00
C67    C     0.66029   0.81760   0.15207   0.00000  Uiso   1.00
C68    C     0.61487   0.80023   0.20392   0.00000  Uiso   1.00
C69    C     0.55411   0.81842   0.18151   0.00000  Uiso   1.00
H70    H     0.69100   0.89254   0.97695   0.00000  Uiso   1.00
H71    H     0.72356   0.00175   0.99394   0.00000  Uiso   1.00
H72    H     0.77188   0.78874   0.91443   0.00000  Uiso   1.00
H73    H     0.57347   0.89670   0.00240   0.00000  Uiso   1.00
H74    H     0.76617   0.10767   0.04438   0.00000  Uiso   1.00
H75    H     0.86804   0.65852   0.87674   0.00000  Uiso   1.00
H76    H     0.44966   0.88617   0.06224   0.00000  Uiso   1.00
H77    H     0.74107   0.77591   0.22058   0.00000  Uiso   1.00
H78    H     0.77637   0.87873   0.25094   0.00000  Uiso   1.00
H79    H     0.82469   0.66572   0.17143   0.00000  Uiso   1.00
H80    H     0.62629   0.77367   0.25940   0.00000  Uiso   1.00
H81    H     0.80904   0.00782   0.25297   0.00000  Uiso   1.00
H82    H     0.91091   0.55867   0.08533   0.00000  Uiso   1.00
H83    H     0.49253   0.78632   0.27083   0.00000  Uiso   1.00
O84    O     0.80995   0.12747   0.16425   0.00000  Uiso   1.00
O85    O     0.94358   0.53820   0.94430   0.00000  Uiso   1.00
O86    O     0.39468   0.83688   0.18767   0.00000  Uiso   1.00
N87    N     0.77141   0.07007   0.08932   0.00000  Uiso   1.00
N88    N     0.86665   0.65015   0.93258   0.00000  Uiso   1.00
N89    N     0.47550   0.86296   0.10599   0.00000  Uiso   1.00
N90    N     0.79447   0.01634   0.20156   0.00000  Uiso   1.00
N91    N     0.88972   0.59642   0.04482   0.00000  Uiso   1.00
N92    N     0.49857   0.80924   0.21823   0.00000  Uiso   1.00
C93    C     0.02089   0.69667   0.89194   0.00000  Uiso   1.00
C94    C     0.01522   0.74753   0.94762   0.00000  Uiso   1.00
C95    C     0.97571   0.75322   0.01273   0.00000  Uiso   1.00
C96    C     0.97744   0.80300   0.05617   0.00000  Uiso   1.00
C97    C     0.96255   0.87553   0.14579   0.00000  Uiso   1.00
C98    C     0.00706   0.74341   0.81724   0.00000  Uiso   1.00
C99    C     0.96069   0.74562   0.77272   0.00000  Uiso   1.00
C100   C     0.95555   0.79192   0.70640   0.00000  Uiso   1.00
C101   C     0.92801   0.85802   0.59358   0.00000  Uiso   1.00
C102   C     0.09065   0.65273   0.88449   0.00000  Uiso   1.00
C103   C     0.11457   0.57869   0.89650   0.00000  Uiso   1.00
C104   C     0.17981   0.54866   0.88678   0.00000  Uiso   1.00
C105   C     0.28207   0.47396   0.87838   0.00000  Uiso   1.00
C106   C     0.09422   0.77498   0.85332   0.00000  Uiso   1.00
C107   C     0.05505   0.79007   0.92664   0.00000  Uiso   1.00
C108   C     0.05684   0.83985   0.96999   0.00000  Uiso   1.00
C109   C     0.01734   0.84561   0.03515   0.00000  Uiso   1.00
C110   C     0.04688   0.78594   0.79626   0.00000  Uiso   1.00
C111   C     0.04181   0.83225   0.72998   0.00000  Uiso   1.00
C112   C     0.99545   0.83453   0.68537   0.00000  Uiso   1.00
C113   C     0.13048   0.69527   0.86351   0.00000  Uiso   1.00
C114   C     0.19570   0.66534   0.85377   0.00000  Uiso   1.00
C115   C     0.21971   0.59127   0.86576   0.00000  Uiso   1.00
H116   H     0.98988   0.66356   0.90827   0.00000  Uiso   1.00
H117   H     0.94489   0.72029   0.02894   0.00000  Uiso   1.00
H118   H     0.92988   0.71269   0.78897   0.00000  Uiso   1.00
H119   H     0.08373   0.54580   0.91273   0.00000  Uiso   1.00
H120   H     0.91256   0.80197   0.15346   0.00000  Uiso   1.00
H121   H     0.88091   0.78592   0.64745   0.00000  Uiso   1.00
H122   H     0.20535   0.43399   0.90843   0.00000  Uiso   1.00
H123   H     0.12523   0.80809   0.83698   0.00000  Uiso   1.00
H124   H     0.08767   0.87276   0.95374   0.00000  Uiso   1.00
H125   H     0.07265   0.86516   0.71376   0.00000  Uiso   1.00
H126   H     0.22650   0.69827   0.83753   0.00000  Uiso   1.00
H127   H     0.02844   0.92572   0.09242   0.00000  Uiso   1.00
H128   H     0.99679   0.90967   0.58640   0.00000  Uiso   1.00
H129   H     0.32123   0.55775   0.84739   0.00000  Uiso   1.00
O130   O     0.94333   0.90380   0.20102   0.00000  Uiso   1.00
O131   O     0.90181   0.88273   0.53715   0.00000  Uiso   1.00
O132   O     0.32747   0.42101   0.87955   0.00000  Uiso   1.00
N133   N     0.94500   0.82221   0.12308   0.00000  Uiso   1.00
N134   N     0.91540   0.80721   0.64999   0.00000  Uiso   1.00
N135   N     0.21872   0.47819   0.89397   0.00000  Uiso   1.00
N136   N     0.00735   0.88880   0.09023   0.00000  Uiso   1.00
N137   N     0.97775   0.87380   0.61715   0.00000  Uiso   1.00
N138   N     0.28107   0.54478   0.86112   0.00000  Uiso   1.00
C139   C     0.26829   0.22243   0.57922   0.00000  Uiso   1.00
C140   C     0.29993   0.25199   0.62940   0.00000  Uiso   1.00
C141   C     0.36287   0.25001   0.62121   0.00000  Uiso   1.00
C142   C     0.38269   0.27994   0.67289   0.00000  Uiso   1.00
C143   C     0.43816   0.32119   0.74199   0.00000  Uiso   1.00
C144   C     0.21211   0.28465   0.55112   0.00000  Uiso   1.00
C145   C     0.20120   0.31013   0.47710   0.00000  Uiso   1.00
C146   C     0.14710   0.36754   0.46289   0.00000  Uiso   1.00
C147   C     0.06619   0.45947   0.41045   0.00000  Uiso   1.00
C148   C     0.24025   0.16948   0.63003   0.00000  Uiso   1.00
C149   C     0.25299   0.09812   0.62236   0.00000  Uiso   1.00
C150   C     0.22257   0.05858   0.67457   0.00000  Uiso   1.00
C151   C     0.18536   0.97168   0.74466   0.00000  Uiso   1.00
C152   C     0.19158   0.27908   0.68558   0.00000  Uiso   1.00
C153   C     0.25826   0.28276   0.68717   0.00000  Uiso   1.00
C154   C     0.27800   0.31270   0.73888   0.00000  Uiso   1.00
C155   C     0.34096   0.31077   0.73076   0.00000  Uiso   1.00
C156   C     0.17045   0.31542   0.60888   0.00000  Uiso   1.00
C157   C     0.11634   0.37281   0.59477   0.00000  Uiso   1.00
C158   C     0.10536   0.39837   0.52076   0.00000  Uiso   1.00
C159   C     0.19859   0.20025   0.68780   0.00000  Uiso   1.00
C160   C     0.16813   0.16081   0.74003   0.00000  Uiso   1.00
C161   C     0.18083   0.08941   0.73244   0.00000  Uiso   1.00
H162   H     0.30072   0.19847   0.53425   0.00000  Uiso   1.00
H163   H     0.39509   0.22620   0.57649   0.00000  Uiso   1.00
H164   H     0.23345   0.28630   0.43241   0.00000  Uiso   1.00
H165   H     0.28524   0.07433   0.57765   0.00000  Uiso   1.00
H166   H     0.48135   0.27053   0.64879   0.00000  Uiso   1.00
H167   H     0.14050   0.39724   0.34499   0.00000  Uiso   1.00
H168   H     0.24970   0.95026   0.65124   0.00000  Uiso   1.00
H169   H     0.15914   0.30304   0.73055   0.00000  Uiso   1.00
H170   H     0.24575   0.33651   0.78357   0.00000  Uiso   1.00
H171   H     0.08411   0.39661   0.63949   0.00000  Uiso   1.00
H172   H     0.13589   0.18464   0.78472   0.00000  Uiso   1.00
H173   H     0.36013   0.36007   0.81686   0.00000  Uiso   1.00
H174   H     0.01929   0.48678   0.51306   0.00000  Uiso   1.00
H175   H     0.12849   0.03979   0.81931   0.00000  Uiso   1.00
O176   O     0.48026   0.33545   0.76414   0.00000  Uiso   1.00
O177   O     0.03308   0.50168   0.36557   0.00000  Uiso   1.00
O178   O     0.17635   0.91525   0.76737   0.00000  Uiso   1.00
N179   N     0.44094   0.28700   0.68108   0.00000  Uiso   1.00
N180   N     0.12227   0.40547   0.39704   0.00000  Uiso   1.00
N181   N     0.22435   0.98758   0.68335   0.00000  Uiso   1.00
N182   N     0.37571   0.33518   0.77151   0.00000  Uiso   1.00
N183   N     0.05705   0.45365   0.48748   0.00000  Uiso   1.00
N184   N     0.15913   0.03576   0.77379   0.00000  Uiso   1.00
C185   C     0.25195   0.55083   0.26918   0.00000  Uiso   1.00
C186   C     0.28770   0.56827   0.32497   0.00000  Uiso   1.00
C187   C     0.31804   0.52080   0.38331   0.00000  Uiso   1.00
C188   C     0.34810   0.54712   0.42813   0.00000  Uiso   1.00
C189   C     0.40369   0.56336   0.51673   0.00000  Uiso   1.00
C190   C     0.28245   0.57028   0.19257   0.00000  Uiso   1.00
C191   C     0.30836   0.52451   0.13959   0.00000  Uiso   1.00
C192   C     0.33399   0.55254   0.07295   0.00000  Uiso   1.00
C193   C     0.38138   0.57192   0.95598   0.00000  Uiso   1.00
C194   C     0.18532   0.60382   0.27344   0.00000  Uiso   1.00
C195   C     0.12955   0.58624   0.28844   0.00000  Uiso   1.00
C196   C     0.07340   0.64251   0.28987   0.00000  Uiso   1.00
C197   C     0.96998   0.71395   0.29846   0.00000  Uiso   1.00
C198   C     0.25139   0.68200   0.24503   0.00000  Uiso   1.00
C199   C     0.28740   0.63952   0.31185   0.00000  Uiso   1.00
C200   C     0.31742   0.66593   0.35660   0.00000  Uiso   1.00
C201   C     0.34779   0.61850   0.41499   0.00000  Uiso   1.00
C202   C     0.28215   0.64153   0.17945   0.00000  Uiso   1.00
C203   C     0.30774   0.66964   0.11288   0.00000  Uiso   1.00
C204   C     0.33368   0.62392   0.05981   0.00000  Uiso   1.00
C205   C     0.18501   0.67507   0.26033   0.00000  Uiso   1.00
C206   C     0.12893   0.73137   0.26173   0.00000  Uiso   1.00
C207   C     0.07309   0.71389   0.27673   0.00000  Uiso   1.00
H208   H     0.25219   0.49535   0.27938   0.00000  Uiso   1.00
H209   H     0.31827   0.46566   0.39344   0.00000  Uiso   1.00
H210   H     0.30858   0.46938   0.14975   0.00000  Uiso   1.00
H211   H     0.12981   0.53110   0.29858   0.00000  Uiso   1.00
H212   H     0.39142   0.46415   0.51409   0.00000  Uiso   1.00
H213   H     0.37097   0.47199   0.00025   0.00000  Uiso   1.00
H214   H     0.99399   0.60215   0.31409   0.00000  Uiso   1.00
H215   H     0.25115   0.73748   0.23482   0.00000  Uiso   1.00
H216   H     0.31717   0.72107   0.34643   0.00000  Uiso   1.00
H217   H     0.30749   0.72478   0.10274   0.00000  Uiso   1.00
H218   H     0.12871   0.78651   0.25157   0.00000  Uiso   1.00
H219   H     0.39053   0.67145   0.47593   0.00000  Uiso   1.00
H220   H     0.37009   0.67929   0.96210   0.00000  Uiso   1.00
H221   H     0.99310   0.80945   0.27593   0.00000  Uiso   1.00
O222   O     0.43444   0.55263   0.56922   0.00000  Uiso   1.00
O223   O     0.40761   0.56292   0.89509   0.00000  Uiso   1.00
O224   O     0.91302   0.73368   0.30684   0.00000  Uiso   1.00
N225   N     0.38214   0.51519   0.48980   0.00000  Uiso   1.00
N226   N     0.36303   0.52252   0.00940   0.00000  Uiso   1.00
N227   N     0.01058   0.64421   0.30279   0.00000  Uiso   1.00
N228   N     0.38166   0.62674   0.46927   0.00000  Uiso   1.00
N229   N     0.36256   0.63407   0.98887   0.00000  Uiso   1.00
N230   N     0.01010   0.75575   0.28226   0.00000  Uiso   1.00
C231   C     0.49162   0.37559   0.21966   0.00000  Uiso   1.00
C232   C     0.50106   0.43549   0.25385   0.00000  Uiso   1.00
C233   C     0.46444   0.50683   0.24371   0.00000  Uiso   1.00
C234   C     0.48074   0.55333   0.27979   0.00000  Uiso   1.00
C235   C     0.48761   0.64999   0.32613   0.00000  Uiso   1.00
C236   C     0.48392   0.31927   0.28456   0.00000  Uiso   1.00
C237   C     0.43288   0.29288   0.30023   0.00000  Uiso   1.00
C238   C     0.43475   0.24153   0.36216   0.00000  Uiso   1.00
C239   C     0.41502   0.15771   0.45614   0.00000  Uiso   1.00
C240   C     0.55434   0.34166   0.17685   0.00000  Uiso   1.00
C241   C     0.56251   0.33409   0.10196   0.00000  Uiso   1.00
C242   C     0.62367   0.30158   0.07321   0.00000  Uiso   1.00
C243   C     0.71329   0.25254   0.99996   0.00000  Uiso   1.00
C244   C     0.58569   0.33131   0.30178   0.00000  Uiso   1.00
C245   C     0.55216   0.41144   0.29846   0.00000  Uiso   1.00
C246   C     0.56852   0.45784   0.33457   0.00000  Uiso   1.00
C247   C     0.53193   0.52923   0.32448   0.00000  Uiso   1.00
C248   C     0.53501   0.29521   0.32916   0.00000  Uiso   1.00
C249   C     0.53696   0.24389   0.39109   0.00000  Uiso   1.00
C250   C     0.48594   0.21743   0.40685   0.00000  Uiso   1.00
C251   C     0.60544   0.31761   0.22145   0.00000  Uiso   1.00
C252   C     0.66660   0.28510   0.19282   0.00000  Uiso   1.00
C253   C     0.67486   0.27748   0.11790   0.00000  Uiso   1.00
H254   H     0.45183   0.39431   0.18493   0.00000  Uiso   1.00
H255   H     0.42489   0.52542   0.20919   0.00000  Uiso   1.00
H256   H     0.39334   0.31150   0.26569   0.00000  Uiso   1.00
H257   H     0.52296   0.35271   0.06746   0.00000  Uiso   1.00
H258   H     0.41755   0.66017   0.25577   0.00000  Uiso   1.00
H259   H     0.35103   0.20908   0.37491   0.00000  Uiso   1.00
H260   H     0.62435   0.29597   0.95688   0.00000  Uiso   1.00
H261   H     0.62548   0.31258   0.33651   0.00000  Uiso   1.00
H262   H     0.60807   0.43921   0.36908   0.00000  Uiso   1.00
H263   H     0.57651   0.22529   0.42559   0.00000  Uiso   1.00
H264   H     0.70613   0.26650   0.22735   0.00000  Uiso   1.00
H265   H     0.56622   0.59020   0.38555   0.00000  Uiso   1.00
H266   H     0.49970   0.13910   0.50468   0.00000  Uiso   1.00
H267   H     0.77302   0.22600   0.08666   0.00000  Uiso   1.00
O268   O     0.47728   0.70995   0.33937   0.00000  Uiso   1.00
O269   O     0.39002   0.11813   0.49566   0.00000  Uiso   1.00
O270   O     0.74861   0.23214   0.94723   0.00000  Uiso   1.00
N271   N     0.45493   0.62632   0.28183   0.00000  Uiso   1.00
N272   N     0.39274   0.20459   0.39322   0.00000  Uiso   1.00
N273   N     0.64827   0.28581   0.00241   0.00000  Uiso   1.00
N274   N     0.53493   0.58867   0.35166   0.00000  Uiso   1.00
N275   N     0.47274   0.16694   0.46306   0.00000  Uiso   1.00
N276   N     0.72826   0.24816   0.07224   0.00000  Uiso   1.00
C277   C     0.11074   0.98167   0.50302   0.00000  Uiso   1.00
C278   C     0.06043   0.97982   0.45548   0.00000  Uiso   1.00
C279   C     0.99555   0.00984   0.46908   0.00000  Uiso   1.00
C280   C     0.95743   0.00238   0.41901   0.00000  Uiso   1.00
C281   C     0.87538   0.00504   0.35451   0.00000  Uiso   1.00
C282   C     0.15501   0.01558   0.45094   0.00000  Uiso   1.00
C283   C     0.16965   0.07565   0.46074   0.00000  Uiso   1.00
C284   C     0.21116   0.09827   0.40685   0.00000  Uiso   1.00
C285   C     0.27598   0.15641   0.33535   0.00000  Uiso   1.00
C286   C     0.14946   0.90396   0.52511   0.00000  Uiso   1.00
C287   C     0.15944   0.87019   0.59727   0.00000  Uiso   1.00
C288   C     0.19628   0.79885   0.60583   0.00000  Uiso   1.00
C289   C     0.25247   0.68369   0.64948   0.00000  Uiso   1.00
C290   C     0.15843   0.91504   0.38990   0.00000  Uiso   1.00
C291   C     0.08634   0.94363   0.39404   0.00000  Uiso   1.00
C292   C     0.04831   0.93611   0.34393   0.00000  Uiso   1.00
C293   C     0.98338   0.96611   0.35746   0.00000  Uiso   1.00
C294   C     0.18092   0.97939   0.38951   0.00000  Uiso   1.00
C295   C     0.22241   0.00192   0.33559   0.00000  Uiso   1.00
C296   C     0.23711   0.06201   0.34530   0.00000  Uiso   1.00
C297   C     0.17536   0.86777   0.46367   0.00000  Uiso   1.00
C298   C     0.21220   0.79646   0.47212   0.00000  Uiso   1.00
C299   C     0.22223   0.76259   0.54428   0.00000  Uiso   1.00
H300   H     0.09058   0.00985   0.55085   0.00000  Uiso   1.00
H301   H     0.97552   0.03785   0.51663   0.00000  Uiso   1.00
H302   H     0.14961   0.10364   0.50829   0.00000  Uiso   1.00
H303   H     0.13939   0.89821   0.64480   0.00000  Uiso   1.00
H304   H     0.85939   0.05295   0.45158   0.00000  Uiso   1.00
H305   H     0.22647   0.19166   0.43402   0.00000  Uiso   1.00
H306   H     0.20493   0.75848   0.72187   0.00000  Uiso   1.00
H307   H     0.17860   0.88686   0.34207   0.00000  Uiso   1.00
H308   H     0.06837   0.90810   0.29639   0.00000  Uiso   1.00
H309   H     0.24245   0.97390   0.28806   0.00000  Uiso   1.00
H310   H     0.23224   0.76847   0.42456   0.00000  Uiso   1.00
H311   H     0.93474   0.94765   0.27283   0.00000  Uiso   1.00
H312   H     0.30183   0.08636   0.25527   0.00000  Uiso   1.00
H313   H     0.28028   0.65318   0.54312   0.00000  Uiso   1.00
O314   O     0.82297   0.01652   0.33591   0.00000  Uiso   1.00
O315   O     0.30457   0.19849   0.31288   0.00000  Uiso   1.00
O316   O     0.27631   0.63017   0.69053   0.00000  Uiso   1.00
N317   N     0.89225   0.02524   0.41579   0.00000  Uiso   1.00
N318   N     0.23544   0.15493   0.39936   0.00000  Uiso   1.00
N319   N     0.21531   0.74995   0.66848   0.00000  Uiso   1.00
N320   N     0.93280   0.96858   0.31960   0.00000  Uiso   1.00
N321   N     0.27599   0.09827   0.30318   0.00000  Uiso   1.00
N322   N     0.25586   0.69329   0.57229   0.00000  Uiso   1.00
C323   C     0.20446   0.24646   0.14772   0.00000  Uiso   1.00
C324   C     0.17829   0.19827   0.11380   0.00000  Uiso   1.00
C325   C     0.16609   0.13678   0.15057   0.00000  Uiso   1.00
C326   C     0.14221   0.10014   0.10978   0.00000  Uiso   1.00
C327   C     0.10325   0.02167   0.06851   0.00000  Uiso   1.00
C328   C     0.15674   0.32112   0.13586   0.00000  Uiso   1.00
C329   C     0.12644   0.36291   0.19118   0.00000  Uiso   1.00
C330   C     0.08442   0.42970   0.16896   0.00000  Uiso   1.00
C331   C     0.01204   0.54197   0.16193   0.00000  Uiso   1.00
C332   C     0.26413   0.25036   0.09905   0.00000  Uiso   1.00
C333   C     0.32414   0.23268   0.12342   0.00000  Uiso   1.00
C334   C     0.37254   0.23990   0.07020   0.00000  Uiso   1.00
C335   C     0.46691   0.24231   0.00601   0.00000  Uiso   1.00
C336   C     0.18372   0.29075   0.00988   0.00000  Uiso   1.00
C337   C     0.16702   0.22233   0.03893   0.00000  Uiso   1.00
C338   C     0.14315   0.18577   0.99807   0.00000  Uiso   1.00
C339   C     0.13092   0.12424   0.03478   0.00000  Uiso   1.00
C340   C     0.14547   0.34517   0.06100   0.00000  Uiso   1.00
C341   C     0.10349   0.41191   0.03868   0.00000  Uiso   1.00
C342   C     0.07313   0.45380   0.09395   0.00000  Uiso   1.00
C343   C     0.25287   0.27441   0.02418   0.00000  Uiso   1.00
C344   C     0.30119   0.28167   0.97091   0.00000  Uiso   1.00
C345   C     0.36125   0.26400   0.99519   0.00000  Uiso   1.00
H346   H     0.21323   0.22774   0.20601   0.00000  Uiso   1.00
H347   H     0.17481   0.11818   0.20852   0.00000  Uiso   1.00
H348   H     0.13517   0.34429   0.24911   0.00000  Uiso   1.00
H349   H     0.33284   0.21407   0.18136   0.00000  Uiso   1.00
H350   H     0.12724   0.00734   0.17828   0.00000  Uiso   1.00
H351   H     0.04366   0.48411   0.26389   0.00000  Uiso   1.00
H352   H     0.46048   0.20951   0.12101   0.00000  Uiso   1.00
H353   H     0.17494   0.30948   0.95159   0.00000  Uiso   1.00
H354   H     0.13443   0.20440   0.94013   0.00000  Uiso   1.00
H355   H     0.09478   0.43051   0.98074   0.00000  Uiso   1.00
H356   H     0.29245   0.30029   0.91298   0.00000  Uiso   1.00
H357   H     0.09446   0.07732   0.96045   0.00000  Uiso   1.00
H358   H     0.01088   0.55409   0.04606   0.00000  Uiso   1.00
H359   H     0.42770   0.27949   0.90318   0.00000  Uiso   1.00
O360   O     0.08487   0.97174   0.06643   0.00000  Uiso   1.00
O361   O     0.97522   0.59725   0.17874   0.00000  Uiso   1.00
O362   O     0.52208   0.23698   0.99128   0.00000  Uiso   1.00
N363   N     0.12509   0.03822   0.12858   0.00000  Uiso   1.00
N364   N     0.04694   0.48397   0.20862   0.00000  Uiso   1.00
N365   N     0.43663   0.22726   0.07505   0.00000  Uiso   1.00
N366   N     0.10746   0.07588   0.01137   0.00000  Uiso   1.00
N367   N     0.02930   0.52162   0.09141   0.00000  Uiso   1.00
N368   N     0.41900   0.26492   0.95784   0.00000  Uiso   1.00
C369   C     0.95776   0.35186   0.31431   0.00000  Uiso   1.00
C370   C     0.94378   0.30899   0.26101   0.00000  Uiso   1.00
C371   C     0.97858   0.29201   0.19459   0.00000  Uiso   1.00
C372   C     0.95809   0.25233   0.15378   0.00000  Uiso   1.00
C373   C     0.94452   0.18907   0.06727   0.00000  Uiso   1.00
C374   C     0.96447   0.30447   0.38937   0.00000  Uiso   1.00
C375   C     0.01666   0.28369   0.43087   0.00000  Uiso   1.00
C376   C     0.01357   0.24022   0.49812   0.00000  Uiso   1.00
C377   C     0.03210   0.16997   0.61091   0.00000  Uiso   1.00
C378   C     0.89770   0.41452   0.32382   0.00000  Uiso   1.00
C379   C     0.89374   0.48628   0.31023   0.00000  Uiso   1.00
C380   C     0.83444   0.53546   0.32230   0.00000  Uiso   1.00
C381   C     0.74930   0.63609   0.33332   0.00000  Uiso   1.00
C382   C     0.85949   0.31160   0.35994   0.00000  Uiso   1.00
C383   C     0.89040   0.28712   0.28580   0.00000  Uiso   1.00
C384   C     0.86985   0.24746   0.24507   0.00000  Uiso   1.00
C385   C     0.90461   0.23043   0.17860   0.00000  Uiso   1.00
C386   C     0.91109   0.28260   0.41415   0.00000  Uiso   1.00
C387   C     0.90793   0.23915   0.48136   0.00000  Uiso   1.00
C388   C     0.96010   0.21831   0.52295   0.00000  Uiso   1.00
C389   C     0.84431   0.39265   0.34860   0.00000  Uiso   1.00
C390   C     0.78501   0.44173   0.36071   0.00000  Uiso   1.00
C391   C     0.78097   0.51355   0.34713   0.00000  Uiso   1.00
H392   H     0.99932   0.36888   0.29502   0.00000  Uiso   1.00
H393   H     0.01989   0.30893   0.17543   0.00000  Uiso   1.00
H394   H     0.05795   0.30063   0.41168   0.00000  Uiso   1.00
H395   H     0.93506   0.50318   0.29105   0.00000  Uiso   1.00
H396   H     0.01917   0.23281   0.05379   0.00000  Uiso   1.00
H397   H     0.09942   0.21531   0.55195   0.00000  Uiso   1.00
H398   H     0.84028   0.64243   0.29758   0.00000  Uiso   1.00
H399   H     0.81793   0.29457   0.37924   0.00000  Uiso   1.00
H400   H     0.82854   0.23055   0.26427   0.00000  Uiso   1.00
H401   H     0.86661   0.22224   0.50052   0.00000  Uiso   1.00
H402   H     0.74372   0.42479   0.37989   0.00000  Uiso   1.00
H403   H     0.86387   0.16919   0.12590   0.00000  Uiso   1.00
H404   H     0.94412   0.15169   0.62406   0.00000  Uiso   1.00
H405   H     0.68497   0.57881   0.36968   0.00000  Uiso   1.00
O406   O     0.95179   0.16020   0.01271   0.00000  Uiso   1.00
O407   O     0.05707   0.13726   0.66628   0.00000  Uiso   1.00
O408   O     0.71708   0.69763   0.33254   0.00000  Uiso   1.00
N409   N     0.98116   0.22663   0.08653   0.00000  Uiso   1.00
N410   N     0.05619   0.21027   0.55228   0.00000  Uiso   1.00
N411   N     0.81391   0.60959   0.31448   0.00000  Uiso   1.00
N412   N     0.89759   0.19240   0.12533   0.00000  Uiso   1.00
N413   N     0.97262   0.17603   0.59107   0.00000  Uiso   1.00
N414   N     0.73035   0.57535   0.35327   0.00000  Uiso   1.00
C415   C     0.67766   0.82356   0.58460   0.00000  Uiso   1.00
C416   C     0.62525   0.80563   0.55445   0.00000  Uiso   1.00
C417   C     0.57193   0.79464   0.59562   0.00000  Uiso   1.00
C418   C     0.52954   0.77876   0.55778   0.00000  Uiso   1.00
C419   C     0.44655   0.75159   0.52259   0.00000  Uiso   1.00
C420   C     0.73907   0.76606   0.56499   0.00000  Uiso   1.00
C421   C     0.78147   0.72181   0.61502   0.00000  Uiso   1.00
C422   C     0.83490   0.67263   0.58604   0.00000  Uiso   1.00
C423   C     0.92866   0.58407   0.56719   0.00000  Uiso   1.00
C424   C     0.68205   0.89306   0.53812   0.00000  Uiso   1.00
C425   C     0.67652   0.95559   0.56556   0.00000  Uiso   1.00
C426   C     0.68196   0.01332   0.51396   0.00000  Uiso   1.00
C427   C     0.68718   0.12194   0.45340   0.00000  Uiso   1.00
C428   C     0.69719   0.81490   0.44418   0.00000  Uiso   1.00
C429   C     0.63585   0.80092   0.47818   0.00000  Uiso   1.00
C430   C     0.59353   0.78506   0.44027   0.00000  Uiso   1.00
C431   C     0.54016   0.77405   0.48138   0.00000  Uiso   1.00
C432   C     0.74968   0.76135   0.48872   0.00000  Uiso   1.00
C433   C     0.80307   0.71223   0.45966   0.00000  Uiso   1.00
C434   C     0.84553   0.66792   0.50963   0.00000  Uiso   1.00
C435   C     0.69266   0.88835   0.46185   0.00000  Uiso   1.00
C436   C     0.69811   0.94600   0.41020   0.00000  Uiso   1.00
C437   C     0.69259   0.00861   0.43755   0.00000  Uiso   1.00
H438   H     0.66941   0.82722   0.64397   0.00000  Uiso   1.00
H439   H     0.56375   0.79828   0.65465   0.00000  Uiso   1.00
H440   H     0.77325   0.72547   0.67403   0.00000  Uiso   1.00
H441   H     0.66832   0.95921   0.62458   0.00000  Uiso   1.00
H442   H     0.45128   0.76409   0.63285   0.00000  Uiso   1.00
H443   H     0.89305   0.61059   0.67372   0.00000  Uiso   1.00
H444   H     0.67177   0.10347   0.56945   0.00000  Uiso   1.00
H445   H     0.70544   0.81123   0.38480   0.00000  Uiso   1.00
H446   H     0.60175   0.78142   0.38125   0.00000  Uiso   1.00
H447   H     0.81126   0.70861   0.40064   0.00000  Uiso   1.00
H448   H     0.70632   0.94234   0.35119   0.00000  Uiso   1.00
H449   H     0.48213   0.75040   0.41095   0.00000  Uiso   1.00
H450   H     0.92390   0.59690   0.45183   0.00000  Uiso   1.00
H451   H     0.70262   0.08977   0.34755   0.00000  Uiso   1.00
O452   O     0.39785   0.73790   0.52425   0.00000  Uiso   1.00
O453   O     0.97744   0.53652   0.57787   0.00000  Uiso   1.00
O454   O     0.68713   0.18316   0.44106   0.00000  Uiso   1.00
N455   N     0.47277   0.76498   0.58111   0.00000  Uiso   1.00
N456   N     0.88579   0.62145   0.61933   0.00000  Uiso   1.00
N457   N     0.67893   0.08224   0.52184   0.00000  Uiso   1.00
N458   N     0.48936   0.75761   0.46171   0.00000  Uiso   1.00
N459   N     0.90238   0.61408   0.49993   0.00000  Uiso   1.00
N460   N     0.69553   0.07488   0.40244   0.00000  Uiso   1.00
C461   C     0.72784   0.56769   0.81765   0.00000  Uiso   1.00
C462   C     0.70313   0.55579   0.74877   0.00000  Uiso   1.00
C463   C     0.69858   0.59958   0.68087   0.00000  Uiso   1.00
C464   C     0.67473   0.57949   0.62476   0.00000  Uiso   1.00
C465   C     0.63917   0.57041   0.51608   0.00000  Uiso   1.00
C466   C     0.67507   0.56955   0.87960   0.00000  Uiso   1.00
C467   C     0.64694   0.62491   0.92170   0.00000  Uiso   1.00
C468   C     0.59948   0.61640   0.97574   0.00000  Uiso   1.00
C469   C     0.52039   0.62866   0.07021   0.00000  Uiso   1.00
C470   C     0.78182   0.49991   0.83904   0.00000  Uiso   1.00
C471   C     0.84343   0.49671   0.84706   0.00000  Uiso   1.00
C472   C     0.88584   0.42955   0.86696   0.00000  Uiso   1.00
C473   C     0.97249   0.33368   0.89845   0.00000  Uiso   1.00
C474   C     0.69357   0.45412   0.83876   0.00000  Uiso   1.00
C475   C     0.68452   0.49410   0.76024   0.00000  Uiso   1.00
C476   C     0.66067   0.47393   0.70422   0.00000  Uiso   1.00
C477   C     0.65609   0.51769   0.63624   0.00000  Uiso   1.00
C478   C     0.65646   0.50787   0.89107   0.00000  Uiso   1.00
C479   C     0.60903   0.49926   0.94505   0.00000  Uiso   1.00
C480   C     0.58083   0.55460   0.98722   0.00000  Uiso   1.00
C481   C     0.76321   0.43822   0.85051   0.00000  Uiso   1.00
C482   C     0.80552   0.37105   0.87041   0.00000  Uiso   1.00
C483   C     0.86719   0.36775   0.87845   0.00000  Uiso   1.00
H484   H     0.74232   0.61572   0.80873   0.00000  Uiso   1.00
H485   H     0.71298   0.64732   0.67202   0.00000  Uiso   1.00
H486   H     0.66136   0.67264   0.91282   0.00000  Uiso   1.00
H487   H     0.85782   0.54445   0.83818   0.00000  Uiso   1.00
H488   H     0.67222   0.65517   0.52552   0.00000  Uiso   1.00
H489   H     0.56339   0.70855   0.03328   0.00000  Uiso   1.00
H490   H     0.97766   0.43824   0.87589   0.00000  Uiso   1.00
H491   H     0.67908   0.40609   0.84768   0.00000  Uiso   1.00
H492   H     0.64627   0.42619   0.71311   0.00000  Uiso   1.00
H493   H     0.59465   0.45152   0.95391   0.00000  Uiso   1.00
H494   H     0.79111   0.32333   0.87927   0.00000  Uiso   1.00
H495   H     0.61808   0.47570   0.55886   0.00000  Uiso   1.00
H496   H     0.50924   0.52908   0.06663   0.00000  Uiso   1.00
H497   H     0.92351   0.25877   0.90924   0.00000  Uiso   1.00
O498   O     0.62469   0.58245   0.45297   0.00000  Uiso   1.00
O499   O     0.48191   0.65248   0.11914   0.00000  Uiso   1.00
O500   O     0.02542   0.29784   0.91265   0.00000  Uiso   1.00
N501   N     0.66400   0.61016   0.55183   0.00000  Uiso   1.00
N502   N     0.56223   0.66008   0.02655   0.00000  Uiso   1.00
N503   N     0.94954   0.40736   0.87943   0.00000  Uiso   1.00
N504   N     0.63486   0.51359   0.56977   0.00000  Uiso   1.00
N505   N     0.53309   0.56350   0.04449   0.00000  Uiso   1.00
N506   N     0.92040   0.31079   0.89737   0.00000  Uiso   1.00
C507   C     0.46455   0.80029   0.85384   0.00000  Uiso   1.00
C508   C     0.46168   0.73983   0.81501   0.00000  Uiso   1.00
C509   C     0.50572   0.67212   0.81779   0.00000  Uiso   1.00
C510   C     0.49461   0.62439   0.77844   0.00000  Uiso   1.00
C511   C     0.49827   0.52758   0.72430   0.00000  Uiso   1.00
C512   C     0.46225   0.86340   0.79303   0.00000  Uiso   1.00
C513   C     0.50676   0.89958   0.77733   0.00000  Uiso   1.00
C514   C     0.49611   0.95587   0.71949   0.00000  Uiso   1.00
C515   C     0.50063   0.05092   0.63125   0.00000  Uiso   1.00
C516   C     0.40252   0.82208   0.90222   0.00000  Uiso   1.00
C517   C     0.39682   0.82354   0.97832   0.00000  Uiso   1.00
C518   C     0.33589   0.84505   0.01241   0.00000  Uiso   1.00
C519   C     0.24768   0.87595   0.09370   0.00000  Uiso   1.00
C520   C     0.36649   0.83593   0.77903   0.00000  Uiso   1.00
C521   C     0.40842   0.75919   0.77437   0.00000  Uiso   1.00
C522   C     0.39723   0.71155   0.73502   0.00000  Uiso   1.00
C523   C     0.44125   0.64378   0.73774   0.00000  Uiso   1.00
C524   C     0.40899   0.88275   0.75239   0.00000  Uiso   1.00
C525   C     0.39827   0.93901   0.69456   0.00000  Uiso   1.00
C526   C     0.44275   0.97526   0.67878   0.00000  Uiso   1.00
C527   C     0.34926   0.84143   0.86158   0.00000  Uiso   1.00
C528   C     0.28833   0.86296   0.89555   0.00000  Uiso   1.00
C529   C     0.28253   0.86445   0.97170   0.00000  Uiso   1.00
H530   H     0.50602   0.78523   0.88548   0.00000  Uiso   1.00
H531   H     0.54694   0.65717   0.84924   0.00000  Uiso   1.00
H532   H     0.54797   0.88459   0.80879   0.00000  Uiso   1.00
H533   H     0.43805   0.80855   0.00975   0.00000  Uiso   1.00
H534   H     0.56883   0.52373   0.79112   0.00000  Uiso   1.00
H535   H     0.57099   0.00329   0.70585   0.00000  Uiso   1.00
H536   H     0.33920   0.84295   0.12962   0.00000  Uiso   1.00
H537   H     0.32502   0.85100   0.74739   0.00000  Uiso   1.00
H538   H     0.35601   0.72655   0.70358   0.00000  Uiso   1.00
H539   H     0.35704   0.95397   0.66313   0.00000  Uiso   1.00
H540   H     0.24712   0.87793   0.86409   0.00000  Uiso   1.00
H541   H     0.41387   0.58004   0.67289   0.00000  Uiso   1.00
H542   H     0.41603   0.05960   0.58762   0.00000  Uiso   1.00
H543   H     0.18424   0.89926   0.01139   0.00000  Uiso   1.00
O544   O     0.51501   0.46884   0.70565   0.00000  Uiso   1.00
O545   O     0.51784   0.09800   0.59380   0.00000  Uiso   1.00
O546   O     0.21374   0.88763   0.14976   0.00000  Uiso   1.00
N547   N     0.52810   0.55406   0.76932   0.00000  Uiso   1.00
N548   N     0.53013   0.00241   0.68959   0.00000  Uiso   1.00
N549   N     0.31342   0.85252   0.08577   0.00000  Uiso   1.00
N550   N     0.44472   0.58436   0.70570   0.00000  Uiso   1.00
N551   N     0.44674   0.03271   0.62597   0.00000  Uiso   1.00
N552   N     0.23004   0.88282   0.02216   0.00000  Uiso   1.00
