data_job_01862
_audit_creation_date              2018-12-19
_audit_creation_method            'Materials Studio'
_symmetry_space_group_name_H-M    'P1'
_symmetry_Int_Tables_number       1
_symmetry_cell_setting            triclinic
loop_
_symmetry_equiv_pos_as_xyz
  x,y,z
_cell_length_a                    42.3415
_cell_length_b                    14.2255
_cell_length_c                    9.3137
_cell_angle_alpha                 90.0000
_cell_angle_beta                  89.4611
_cell_angle_gamma                 90.0000
loop_
_atom_site_label
_atom_site_type_symbol
_atom_site_fract_x
_atom_site_fract_y
_atom_site_fract_z
_atom_site_U_iso_or_equiv
_atom_site_adp_type
_atom_site_occupancy
C1     C     0.14607   0.74155   0.87116   0.00000  Uiso   1.00
C2     C     0.14654   0.75560   0.70883   0.00000  Uiso   1.00
C3     C     0.14528   0.84145   0.63836   0.00000  Uiso   1.00
C4     C     0.14598   0.83940   0.48933   0.00000  Uiso   1.00
C5     C     0.14640   0.87413   0.24879   0.00000  Uiso   1.00
C6     C     0.11831   0.67631   0.90313   0.00000  Uiso   1.00
C7     C     0.09332   0.69549   0.99605   0.00000  Uiso   1.00
C8     C     0.07025   0.62668   0.01059   0.00000  Uiso   1.00
C9     C     0.02686   0.53827   0.07179   0.00000  Uiso   1.00
C10    C     0.17575   0.68562   0.90600   0.00000  Uiso   1.00
C11    C     0.19905   0.71262   0.00136   0.00000  Uiso   1.00
C12    C     0.22435   0.65164   0.01834   0.00000  Uiso   1.00
C13    C     0.27014   0.57771   0.08400   0.00000  Uiso   1.00
C14    C     0.14956   0.58523   0.73180   0.00000  Uiso   1.00
C15    C     0.14843   0.67069   0.63314   0.00000  Uiso   1.00
C16    C     0.14914   0.66851   0.48418   0.00000  Uiso   1.00
C17    C     0.14788   0.75434   0.41350   0.00000  Uiso   1.00
C18    C     0.12020   0.59140   0.82745   0.00000  Uiso   1.00
C19    C     0.09717   0.52254   0.84186   0.00000  Uiso   1.00
C20    C     0.07215   0.54162   0.93476   0.00000  Uiso   1.00
C21    C     0.17765   0.60072   0.83031   0.00000  Uiso   1.00
C22    C     0.20291   0.53968   0.84716   0.00000  Uiso   1.00
C23    C     0.22625   0.56658   0.94252   0.00000  Uiso   1.00
H24    H     0.14460   0.80765   0.93009   0.00000  Uiso   1.00
H25    H     0.14381   0.90715   0.69698   0.00000  Uiso   1.00
H26    H     0.09186   0.76120   0.05462   0.00000  Uiso   1.00
H27    H     0.19758   0.77833   0.05992   0.00000  Uiso   1.00
H28    H     0.14376   0.98001   0.40515   0.00000  Uiso   1.00
H29    H     0.03422   0.67226   0.15929   0.00000  Uiso   1.00
H30    H     0.25716   0.70839   0.17047   0.00000  Uiso   1.00
H31    H     0.15103   0.51913   0.67287   0.00000  Uiso   1.00
H32    H     0.15060   0.60279   0.42563   0.00000  Uiso   1.00
H33    H     0.09865   0.45684   0.78327   0.00000  Uiso   1.00
H34    H     0.20437   0.47398   0.78857   0.00000  Uiso   1.00
H35    H     0.14927   0.73298   0.18491   0.00000  Uiso   1.00
H36    H     0.03973   0.42523   0.93906   0.00000  Uiso   1.00
H37    H     0.26267   0.46136   0.95023   0.00000  Uiso   1.00
O38    O     0.14611   0.91674   0.13703   0.00000  Uiso   1.00
O39    O     0.00240   0.51297   0.12646   0.00000  Uiso   1.00
O40    O     0.29488   0.56038   0.14111   0.00000  Uiso   1.00
N41    N     0.14513   0.91039   0.38724   0.00000  Uiso   1.00
N42    N     0.04271   0.62267   0.09230   0.00000  Uiso   1.00
N43    N     0.25113   0.65644   0.10278   0.00000  Uiso   1.00
N44    N     0.14809   0.77747   0.26874   0.00000  Uiso   1.00
N45    N     0.04567   0.48975   0.97380   0.00000  Uiso   1.00
N46    N     0.25409   0.52351   0.98428   0.00000  Uiso   1.00
C47    C     0.84935   0.75141   0.63992   0.00000  Uiso   1.00
C48    C     0.84851   0.76411   0.80249   0.00000  Uiso   1.00
C49    C     0.83976   0.84550   0.87474   0.00000  Uiso   1.00
C50    C     0.84057   0.84296   0.02368   0.00000  Uiso   1.00
C51    C     0.83788   0.87504   0.26487   0.00000  Uiso   1.00
C52    C     0.88291   0.72068   0.60211   0.00000  Uiso   1.00
C53    C     0.90309   0.76554   0.50588   0.00000  Uiso   1.00
C54    C     0.93286   0.72642   0.48614   0.00000  Uiso   1.00
C55    C     0.98357   0.69103   0.41616   0.00000  Uiso   1.00
C56    C     0.82826   0.66714   0.60837   0.00000  Uiso   1.00
C57    C     0.80250   0.66697   0.51736   0.00000  Uiso   1.00
C58    C     0.78626   0.58276   0.50285   0.00000  Uiso   1.00
C59    C     0.75212   0.46424   0.44258   0.00000  Uiso   1.00
C60    C     0.86633   0.60214   0.77593   0.00000  Uiso   1.00
C61    C     0.85773   0.68304   0.87636   0.00000  Uiso   1.00
C62    C     0.85855   0.68036   0.02523   0.00000  Uiso   1.00
C63    C     0.84981   0.76174   0.09770   0.00000  Uiso   1.00
C64    C     0.89214   0.63961   0.67599   0.00000  Uiso   1.00
C65    C     0.92188   0.60040   0.65637   0.00000  Uiso   1.00
C66    C     0.94210   0.64520   0.56015   0.00000  Uiso   1.00
C67    C     0.83749   0.58606   0.68224   0.00000  Uiso   1.00
C68    C     0.82129   0.50183   0.66786   0.00000  Uiso   1.00
C69    C     0.79550   0.50154   0.57686   0.00000  Uiso   1.00
H70    H     0.84217   0.81452   0.58240   0.00000  Uiso   1.00
H71    H     0.83263   0.90824   0.81753   0.00000  Uiso   1.00
H72    H     0.89594   0.82828   0.44872   0.00000  Uiso   1.00
H73    H     0.79537   0.72972   0.46021   0.00000  Uiso   1.00
H74    H     0.82613   0.97639   0.11080   0.00000  Uiso   1.00
H75    H     0.95963   0.80778   0.33310   0.00000  Uiso   1.00
H76    H     0.74754   0.59996   0.35732   0.00000  Uiso   1.00
H77    H     0.87351   0.53902   0.83345   0.00000  Uiso   1.00
H78    H     0.86569   0.61761   0.08237   0.00000  Uiso   1.00
H79    H     0.92901   0.53766   0.71355   0.00000  Uiso   1.00
H80    H     0.82843   0.43911   0.72505   0.00000  Uiso   1.00
H81    H     0.85297   0.74051   0.32575   0.00000  Uiso   1.00
H82    H     0.98647   0.57190   0.54805   0.00000  Uiso   1.00
H83    H     0.77438   0.36408   0.57228   0.00000  Uiso   1.00
O84    O     0.83385   0.91513   0.37749   0.00000  Uiso   1.00
O85    O     0.00900   0.69391   0.35716   0.00000  Uiso   1.00
O86    O     0.73074   0.42126   0.38895   0.00000  Uiso   1.00
N87    N     0.83351   0.91008   0.12723   0.00000  Uiso   1.00
N88    N     0.95833   0.75245   0.40014   0.00000  Uiso   1.00
N89    N     0.76005   0.55815   0.42276   0.00000  Uiso   1.00
N90    N     0.84795   0.78316   0.24289   0.00000  Uiso   1.00
N91    N     0.97277   0.62553   0.51581   0.00000  Uiso   1.00
N92    N     0.77449   0.43123   0.53843   0.00000  Uiso   1.00
C93    C     0.64607   0.24155   0.87116   0.00000  Uiso   1.00
C94    C     0.64654   0.25560   0.70883   0.00000  Uiso   1.00
C95    C     0.64528   0.34145   0.63836   0.00000  Uiso   1.00
C96    C     0.64598   0.33940   0.48933   0.00000  Uiso   1.00
C97    C     0.64640   0.37413   0.24879   0.00000  Uiso   1.00
C98    C     0.61831   0.17631   0.90313   0.00000  Uiso   1.00
C99    C     0.59332   0.19549   0.99605   0.00000  Uiso   1.00
C100   C     0.57025   0.12668   0.01059   0.00000  Uiso   1.00
C101   C     0.52686   0.03827   0.07179   0.00000  Uiso   1.00
C102   C     0.67575   0.18562   0.90600   0.00000  Uiso   1.00
C103   C     0.69905   0.21262   0.00136   0.00000  Uiso   1.00
C104   C     0.72435   0.15164   0.01834   0.00000  Uiso   1.00
C105   C     0.77014   0.07771   0.08400   0.00000  Uiso   1.00
C106   C     0.64956   0.08523   0.73180   0.00000  Uiso   1.00
C107   C     0.64843   0.17069   0.63314   0.00000  Uiso   1.00
C108   C     0.64914   0.16851   0.48418   0.00000  Uiso   1.00
C109   C     0.64788   0.25434   0.41350   0.00000  Uiso   1.00
C110   C     0.62020   0.09140   0.82745   0.00000  Uiso   1.00
C111   C     0.59717   0.02254   0.84186   0.00000  Uiso   1.00
C112   C     0.57215   0.04162   0.93476   0.00000  Uiso   1.00
C113   C     0.67765   0.10072   0.83031   0.00000  Uiso   1.00
C114   C     0.70291   0.03968   0.84716   0.00000  Uiso   1.00
C115   C     0.72625   0.06658   0.94252   0.00000  Uiso   1.00
H116   H     0.64460   0.30765   0.93009   0.00000  Uiso   1.00
H117   H     0.64381   0.40715   0.69698   0.00000  Uiso   1.00
H118   H     0.59186   0.26120   0.05462   0.00000  Uiso   1.00
H119   H     0.69758   0.27833   0.05992   0.00000  Uiso   1.00
H120   H     0.64376   0.48001   0.40515   0.00000  Uiso   1.00
H121   H     0.53422   0.17226   0.15929   0.00000  Uiso   1.00
H122   H     0.75716   0.20839   0.17047   0.00000  Uiso   1.00
H123   H     0.65103   0.01913   0.67287   0.00000  Uiso   1.00
H124   H     0.65060   0.10279   0.42563   0.00000  Uiso   1.00
H125   H     0.59865   0.95684   0.78327   0.00000  Uiso   1.00
H126   H     0.70437   0.97398   0.78857   0.00000  Uiso   1.00
H127   H     0.64927   0.23298   0.18491   0.00000  Uiso   1.00
H128   H     0.53973   0.92523   0.93906   0.00000  Uiso   1.00
H129   H     0.76267   0.96136   0.95023   0.00000  Uiso   1.00
O130   O     0.64611   0.41674   0.13703   0.00000  Uiso   1.00
O131   O     0.50240   0.01297   0.12646   0.00000  Uiso   1.00
O132   O     0.79488   0.06038   0.14111   0.00000  Uiso   1.00
N133   N     0.64513   0.41039   0.38724   0.00000  Uiso   1.00
N134   N     0.54271   0.12267   0.09230   0.00000  Uiso   1.00
N135   N     0.75113   0.15644   0.10278   0.00000  Uiso   1.00
N136   N     0.64809   0.27747   0.26874   0.00000  Uiso   1.00
N137   N     0.54567   0.98975   0.97380   0.00000  Uiso   1.00
N138   N     0.75409   0.02351   0.98428   0.00000  Uiso   1.00
C139   C     0.34935   0.25141   0.63992   0.00000  Uiso   1.00
C140   C     0.34851   0.26411   0.80249   0.00000  Uiso   1.00
C141   C     0.33976   0.34550   0.87474   0.00000  Uiso   1.00
C142   C     0.34057   0.34296   0.02368   0.00000  Uiso   1.00
C143   C     0.33788   0.37504   0.26487   0.00000  Uiso   1.00
C144   C     0.38291   0.22068   0.60211   0.00000  Uiso   1.00
C145   C     0.40309   0.26554   0.50588   0.00000  Uiso   1.00
C146   C     0.43286   0.22642   0.48614   0.00000  Uiso   1.00
C147   C     0.48357   0.19103   0.41616   0.00000  Uiso   1.00
C148   C     0.32826   0.16714   0.60837   0.00000  Uiso   1.00
C149   C     0.30250   0.16697   0.51736   0.00000  Uiso   1.00
C150   C     0.28626   0.08276   0.50285   0.00000  Uiso   1.00
C151   C     0.25212   0.96424   0.44258   0.00000  Uiso   1.00
C152   C     0.36633   0.10214   0.77593   0.00000  Uiso   1.00
C153   C     0.35773   0.18304   0.87636   0.00000  Uiso   1.00
C154   C     0.35855   0.18036   0.02523   0.00000  Uiso   1.00
C155   C     0.34981   0.26174   0.09770   0.00000  Uiso   1.00
C156   C     0.39214   0.13961   0.67599   0.00000  Uiso   1.00
C157   C     0.42188   0.10040   0.65637   0.00000  Uiso   1.00
C158   C     0.44210   0.14520   0.56015   0.00000  Uiso   1.00
C159   C     0.33749   0.08606   0.68224   0.00000  Uiso   1.00
C160   C     0.32129   0.00183   0.66786   0.00000  Uiso   1.00
C161   C     0.29550   0.00154   0.57686   0.00000  Uiso   1.00
H162   H     0.34217   0.31452   0.58240   0.00000  Uiso   1.00
H163   H     0.33263   0.40824   0.81753   0.00000  Uiso   1.00
H164   H     0.39594   0.32828   0.44872   0.00000  Uiso   1.00
H165   H     0.29537   0.22972   0.46021   0.00000  Uiso   1.00
H166   H     0.32613   0.47639   0.11080   0.00000  Uiso   1.00
H167   H     0.45963   0.30778   0.33310   0.00000  Uiso   1.00
H168   H     0.24754   0.09996   0.35732   0.00000  Uiso   1.00
H169   H     0.37351   0.03902   0.83345   0.00000  Uiso   1.00
H170   H     0.36569   0.11761   0.08237   0.00000  Uiso   1.00
H171   H     0.42901   0.03766   0.71355   0.00000  Uiso   1.00
H172   H     0.32843   0.93911   0.72505   0.00000  Uiso   1.00
H173   H     0.35297   0.24051   0.32575   0.00000  Uiso   1.00
H174   H     0.48647   0.07190   0.54805   0.00000  Uiso   1.00
H175   H     0.27438   0.86408   0.57228   0.00000  Uiso   1.00
O176   O     0.33385   0.41513   0.37749   0.00000  Uiso   1.00
O177   O     0.50900   0.19391   0.35716   0.00000  Uiso   1.00
O178   O     0.23074   0.92126   0.38895   0.00000  Uiso   1.00
N179   N     0.33351   0.41008   0.12723   0.00000  Uiso   1.00
N180   N     0.45833   0.25245   0.40014   0.00000  Uiso   1.00
N181   N     0.26005   0.05815   0.42276   0.00000  Uiso   1.00
N182   N     0.34795   0.28316   0.24289   0.00000  Uiso   1.00
N183   N     0.47277   0.12553   0.51581   0.00000  Uiso   1.00
N184   N     0.27449   0.93123   0.53843   0.00000  Uiso   1.00
C185   C     0.14607   0.25845   0.37116   0.00000  Uiso   1.00
C186   C     0.14654   0.24440   0.20883   0.00000  Uiso   1.00
C187   C     0.14528   0.15855   0.13836   0.00000  Uiso   1.00
C188   C     0.14598   0.16060   0.98933   0.00000  Uiso   1.00
C189   C     0.14640   0.12587   0.74879   0.00000  Uiso   1.00
C190   C     0.11831   0.32369   0.40313   0.00000  Uiso   1.00
C191   C     0.09332   0.30451   0.49605   0.00000  Uiso   1.00
C192   C     0.07025   0.37332   0.51059   0.00000  Uiso   1.00
C193   C     0.02686   0.46173   0.57179   0.00000  Uiso   1.00
C194   C     0.17575   0.31438   0.40600   0.00000  Uiso   1.00
C195   C     0.19905   0.28738   0.50136   0.00000  Uiso   1.00
C196   C     0.22435   0.34836   0.51834   0.00000  Uiso   1.00
C197   C     0.27014   0.42229   0.58400   0.00000  Uiso   1.00
C198   C     0.14956   0.41477   0.23180   0.00000  Uiso   1.00
C199   C     0.14843   0.32931   0.13314   0.00000  Uiso   1.00
C200   C     0.14914   0.33149   0.98418   0.00000  Uiso   1.00
C201   C     0.14788   0.24566   0.91350   0.00000  Uiso   1.00
C202   C     0.12020   0.40860   0.32745   0.00000  Uiso   1.00
C203   C     0.09717   0.47746   0.34186   0.00000  Uiso   1.00
C204   C     0.07215   0.45838   0.43476   0.00000  Uiso   1.00
C205   C     0.17765   0.39928   0.33031   0.00000  Uiso   1.00
C206   C     0.20291   0.46032   0.34716   0.00000  Uiso   1.00
C207   C     0.22625   0.43342   0.44252   0.00000  Uiso   1.00
H208   H     0.14460   0.19235   0.43009   0.00000  Uiso   1.00
H209   H     0.14381   0.09285   0.19698   0.00000  Uiso   1.00
H210   H     0.09186   0.23880   0.55462   0.00000  Uiso   1.00
H211   H     0.19758   0.22167   0.55992   0.00000  Uiso   1.00
H212   H     0.14376   0.01999   0.90515   0.00000  Uiso   1.00
H213   H     0.03422   0.32774   0.65929   0.00000  Uiso   1.00
H214   H     0.25716   0.29161   0.67047   0.00000  Uiso   1.00
H215   H     0.15103   0.48087   0.17287   0.00000  Uiso   1.00
H216   H     0.15060   0.39721   0.92563   0.00000  Uiso   1.00
H217   H     0.09865   0.54316   0.28327   0.00000  Uiso   1.00
H218   H     0.20437   0.52602   0.28857   0.00000  Uiso   1.00
H219   H     0.14927   0.26702   0.68491   0.00000  Uiso   1.00
H220   H     0.03973   0.57477   0.43906   0.00000  Uiso   1.00
H221   H     0.26267   0.53864   0.45023   0.00000  Uiso   1.00
O222   O     0.14611   0.08326   0.63703   0.00000  Uiso   1.00
O223   O     0.00240   0.48703   0.62646   0.00000  Uiso   1.00
O224   O     0.29488   0.43962   0.64111   0.00000  Uiso   1.00
N225   N     0.14513   0.08961   0.88724   0.00000  Uiso   1.00
N226   N     0.04271   0.37733   0.59230   0.00000  Uiso   1.00
N227   N     0.25113   0.34356   0.60278   0.00000  Uiso   1.00
N228   N     0.14809   0.22253   0.76874   0.00000  Uiso   1.00
N229   N     0.04567   0.51025   0.47380   0.00000  Uiso   1.00
N230   N     0.25409   0.47649   0.48428   0.00000  Uiso   1.00
C231   C     0.84935   0.24859   0.13992   0.00000  Uiso   1.00
C232   C     0.84851   0.23589   0.30249   0.00000  Uiso   1.00
C233   C     0.83976   0.15450   0.37474   0.00000  Uiso   1.00
C234   C     0.84057   0.15704   0.52368   0.00000  Uiso   1.00
C235   C     0.83788   0.12496   0.76487   0.00000  Uiso   1.00
C236   C     0.88291   0.27932   0.10211   0.00000  Uiso   1.00
C237   C     0.90309   0.23446   0.00588   0.00000  Uiso   1.00
C238   C     0.93286   0.27358   0.98614   0.00000  Uiso   1.00
C239   C     0.98357   0.30897   0.91616   0.00000  Uiso   1.00
C240   C     0.82826   0.33286   0.10837   0.00000  Uiso   1.00
C241   C     0.80250   0.33303   0.01736   0.00000  Uiso   1.00
C242   C     0.78626   0.41724   0.00285   0.00000  Uiso   1.00
C243   C     0.75212   0.53576   0.94258   0.00000  Uiso   1.00
C244   C     0.86633   0.39786   0.27593   0.00000  Uiso   1.00
C245   C     0.85773   0.31696   0.37636   0.00000  Uiso   1.00
C246   C     0.85855   0.31964   0.52523   0.00000  Uiso   1.00
C247   C     0.84981   0.23826   0.59770   0.00000  Uiso   1.00
C248   C     0.89214   0.36039   0.17599   0.00000  Uiso   1.00
C249   C     0.92188   0.39960   0.15637   0.00000  Uiso   1.00
C250   C     0.94210   0.35480   0.06015   0.00000  Uiso   1.00
C251   C     0.83749   0.41394   0.18224   0.00000  Uiso   1.00
C252   C     0.82129   0.49817   0.16786   0.00000  Uiso   1.00
C253   C     0.79550   0.49846   0.07686   0.00000  Uiso   1.00
H254   H     0.84217   0.18548   0.08240   0.00000  Uiso   1.00
H255   H     0.83263   0.09176   0.31753   0.00000  Uiso   1.00
H256   H     0.89594   0.17172   0.94872   0.00000  Uiso   1.00
H257   H     0.79537   0.27028   0.96021   0.00000  Uiso   1.00
H258   H     0.82613   0.02361   0.61080   0.00000  Uiso   1.00
H259   H     0.95963   0.19222   0.83310   0.00000  Uiso   1.00
H260   H     0.74754   0.40004   0.85732   0.00000  Uiso   1.00
H261   H     0.87351   0.46098   0.33345   0.00000  Uiso   1.00
H262   H     0.86569   0.38239   0.58237   0.00000  Uiso   1.00
H263   H     0.92901   0.46234   0.21355   0.00000  Uiso   1.00
H264   H     0.82843   0.56089   0.22505   0.00000  Uiso   1.00
H265   H     0.85297   0.25949   0.82575   0.00000  Uiso   1.00
H266   H     0.98647   0.42810   0.04805   0.00000  Uiso   1.00
H267   H     0.77438   0.63592   0.07228   0.00000  Uiso   1.00
O268   O     0.83385   0.08487   0.87749   0.00000  Uiso   1.00
O269   O     0.00900   0.30609   0.85716   0.00000  Uiso   1.00
O270   O     0.73074   0.57874   0.88895   0.00000  Uiso   1.00
N271   N     0.83351   0.08992   0.62723   0.00000  Uiso   1.00
N272   N     0.95833   0.24755   0.90014   0.00000  Uiso   1.00
N273   N     0.76005   0.44185   0.92276   0.00000  Uiso   1.00
N274   N     0.84795   0.21684   0.74289   0.00000  Uiso   1.00
N275   N     0.97277   0.37447   0.01581   0.00000  Uiso   1.00
N276   N     0.77449   0.56877   0.03843   0.00000  Uiso   1.00
C277   C     0.64607   0.75845   0.37116   0.00000  Uiso   1.00
C278   C     0.64654   0.74440   0.20883   0.00000  Uiso   1.00
C279   C     0.64528   0.65855   0.13836   0.00000  Uiso   1.00
C280   C     0.64598   0.66060   0.98933   0.00000  Uiso   1.00
C281   C     0.64640   0.62587   0.74879   0.00000  Uiso   1.00
C282   C     0.61831   0.82369   0.40313   0.00000  Uiso   1.00
C283   C     0.59332   0.80451   0.49605   0.00000  Uiso   1.00
C284   C     0.57025   0.87332   0.51059   0.00000  Uiso   1.00
C285   C     0.52686   0.96173   0.57179   0.00000  Uiso   1.00
C286   C     0.67575   0.81438   0.40600   0.00000  Uiso   1.00
C287   C     0.69905   0.78738   0.50136   0.00000  Uiso   1.00
C288   C     0.72435   0.84836   0.51834   0.00000  Uiso   1.00
C289   C     0.77014   0.92229   0.58400   0.00000  Uiso   1.00
C290   C     0.64956   0.91477   0.23180   0.00000  Uiso   1.00
C291   C     0.64843   0.82931   0.13314   0.00000  Uiso   1.00
C292   C     0.64914   0.83149   0.98418   0.00000  Uiso   1.00
C293   C     0.64788   0.74566   0.91350   0.00000  Uiso   1.00
C294   C     0.62020   0.90860   0.32745   0.00000  Uiso   1.00
C295   C     0.59717   0.97746   0.34186   0.00000  Uiso   1.00
C296   C     0.57215   0.95838   0.43476   0.00000  Uiso   1.00
C297   C     0.67765   0.89928   0.33031   0.00000  Uiso   1.00
C298   C     0.70291   0.96032   0.34716   0.00000  Uiso   1.00
C299   C     0.72625   0.93342   0.44252   0.00000  Uiso   1.00
H300   H     0.64460   0.69235   0.43009   0.00000  Uiso   1.00
H301   H     0.64381   0.59285   0.19698   0.00000  Uiso   1.00
H302   H     0.59186   0.73880   0.55462   0.00000  Uiso   1.00
H303   H     0.69758   0.72167   0.55992   0.00000  Uiso   1.00
H304   H     0.64376   0.51999   0.90515   0.00000  Uiso   1.00
H305   H     0.53422   0.82774   0.65929   0.00000  Uiso   1.00
H306   H     0.75716   0.79161   0.67047   0.00000  Uiso   1.00
H307   H     0.65103   0.98087   0.17287   0.00000  Uiso   1.00
H308   H     0.65060   0.89721   0.92563   0.00000  Uiso   1.00
H309   H     0.59865   0.04316   0.28327   0.00000  Uiso   1.00
H310   H     0.70437   0.02602   0.28857   0.00000  Uiso   1.00
H311   H     0.64927   0.76702   0.68491   0.00000  Uiso   1.00
H312   H     0.53973   0.07477   0.43906   0.00000  Uiso   1.00
H313   H     0.76267   0.03864   0.45023   0.00000  Uiso   1.00
O314   O     0.64611   0.58326   0.63703   0.00000  Uiso   1.00
O315   O     0.50240   0.98703   0.62646   0.00000  Uiso   1.00
O316   O     0.79488   0.93962   0.64111   0.00000  Uiso   1.00
N317   N     0.64513   0.58961   0.88724   0.00000  Uiso   1.00
N318   N     0.54271   0.87733   0.59230   0.00000  Uiso   1.00
N319   N     0.75113   0.84356   0.60278   0.00000  Uiso   1.00
N320   N     0.64809   0.72253   0.76874   0.00000  Uiso   1.00
N321   N     0.54567   0.01025   0.47380   0.00000  Uiso   1.00
N322   N     0.75409   0.97649   0.48428   0.00000  Uiso   1.00
C323   C     0.34935   0.74859   0.13992   0.00000  Uiso   1.00
C324   C     0.34851   0.73589   0.30249   0.00000  Uiso   1.00
C325   C     0.33976   0.65450   0.37474   0.00000  Uiso   1.00
C326   C     0.34057   0.65704   0.52368   0.00000  Uiso   1.00
C327   C     0.33788   0.62496   0.76487   0.00000  Uiso   1.00
C328   C     0.38291   0.77932   0.10211   0.00000  Uiso   1.00
C329   C     0.40309   0.73446   0.00588   0.00000  Uiso   1.00
C330   C     0.43286   0.77358   0.98614   0.00000  Uiso   1.00
C331   C     0.48357   0.80897   0.91616   0.00000  Uiso   1.00
C332   C     0.32826   0.83286   0.10837   0.00000  Uiso   1.00
C333   C     0.30250   0.83303   0.01736   0.00000  Uiso   1.00
C334   C     0.28626   0.91724   0.00285   0.00000  Uiso   1.00
C335   C     0.25212   0.03576   0.94258   0.00000  Uiso   1.00
C336   C     0.36633   0.89786   0.27593   0.00000  Uiso   1.00
C337   C     0.35773   0.81696   0.37636   0.00000  Uiso   1.00
C338   C     0.35855   0.81964   0.52523   0.00000  Uiso   1.00
C339   C     0.34981   0.73826   0.59770   0.00000  Uiso   1.00
C340   C     0.39214   0.86039   0.17599   0.00000  Uiso   1.00
C341   C     0.42188   0.89960   0.15637   0.00000  Uiso   1.00
C342   C     0.44210   0.85480   0.06015   0.00000  Uiso   1.00
C343   C     0.33749   0.91394   0.18224   0.00000  Uiso   1.00
C344   C     0.32129   0.99817   0.16786   0.00000  Uiso   1.00
C345   C     0.29550   0.99846   0.07686   0.00000  Uiso   1.00
H346   H     0.34217   0.68548   0.08240   0.00000  Uiso   1.00
H347   H     0.33263   0.59176   0.31753   0.00000  Uiso   1.00
H348   H     0.39594   0.67172   0.94872   0.00000  Uiso   1.00
H349   H     0.29537   0.77028   0.96021   0.00000  Uiso   1.00
H350   H     0.32613   0.52361   0.61080   0.00000  Uiso   1.00
H351   H     0.45963   0.69222   0.83310   0.00000  Uiso   1.00
H352   H     0.24754   0.90004   0.85732   0.00000  Uiso   1.00
H353   H     0.37351   0.96098   0.33345   0.00000  Uiso   1.00
H354   H     0.36569   0.88239   0.58237   0.00000  Uiso   1.00
H355   H     0.42901   0.96234   0.21355   0.00000  Uiso   1.00
H356   H     0.32843   0.06089   0.22505   0.00000  Uiso   1.00
H357   H     0.35297   0.75949   0.82575   0.00000  Uiso   1.00
H358   H     0.48647   0.92810   0.04805   0.00000  Uiso   1.00
H359   H     0.27438   0.13592   0.07228   0.00000  Uiso   1.00
O360   O     0.33385   0.58487   0.87749   0.00000  Uiso   1.00
O361   O     0.50900   0.80609   0.85716   0.00000  Uiso   1.00
O362   O     0.23074   0.07874   0.88895   0.00000  Uiso   1.00
N363   N     0.33351   0.58992   0.62723   0.00000  Uiso   1.00
N364   N     0.45833   0.74755   0.90014   0.00000  Uiso   1.00
N365   N     0.26005   0.94185   0.92276   0.00000  Uiso   1.00
N366   N     0.34795   0.71684   0.74289   0.00000  Uiso   1.00
N367   N     0.47277   0.87447   0.01581   0.00000  Uiso   1.00
N368   N     0.27449   0.06877   0.03843   0.00000  Uiso   1.00
