data_job_03163
_audit_creation_date              2018-12-19
_audit_creation_method            'Materials Studio'
_symmetry_space_group_name_H-M    'P1'
_symmetry_Int_Tables_number       1
_symmetry_cell_setting            triclinic
loop_
_symmetry_equiv_pos_as_xyz
  x,y,z
_cell_length_a                    23.7336
_cell_length_b                    12.4452
_cell_length_c                    13.6493
_cell_angle_alpha                 90.0000
_cell_angle_beta                  119.3200
_cell_angle_gamma                 90.0000
loop_
_atom_site_label
_atom_site_type_symbol
_atom_site_fract_x
_atom_site_fract_y
_atom_site_fract_z
_atom_site_U_iso_or_equiv
_atom_site_adp_type
_atom_site_occupancy
C1     C     0.81836   0.99433   0.38116   0.00000  Uiso   1.00
C2     C     0.74852   0.02906   0.33796   0.00000  Uiso   1.00
C3     C     0.69593   0.99829   0.23667   0.00000  Uiso   1.00
C4     C     0.63597   0.03876   0.21249   0.00000  Uiso   1.00
C5     C     0.52858   0.08219   0.13410   0.00000  Uiso   1.00
C6     C     0.84033   0.94302   0.49569   0.00000  Uiso   1.00
C7     C     0.86494   0.83992   0.52703   0.00000  Uiso   1.00
C8     C     0.88228   0.80797   0.63564   0.00000  Uiso   1.00
C9     C     0.91747   0.71785   0.80217   0.00000  Uiso   1.00
C10    C     0.85736   0.09765   0.40383   0.00000  Uiso   1.00
C11    C     0.89632   0.12454   0.35795   0.00000  Uiso   1.00
C12    C     0.92801   0.22276   0.38924   0.00000  Uiso   1.00
C13    C     0.98965   0.37272   0.41314   0.00000  Uiso   1.00
C14    C     0.80540   0.12093   0.51834   0.00000  Uiso   1.00
C15    C     0.74147   0.09782   0.41248   0.00000  Uiso   1.00
C16    C     0.68158   0.13835   0.38844   0.00000  Uiso   1.00
C17    C     0.62891   0.10765   0.28713   0.00000  Uiso   1.00
C18    C     0.83328   0.01178   0.57021   0.00000  Uiso   1.00
C19    C     0.85059   0.97998   0.67880   0.00000  Uiso   1.00
C20    C     0.87522   0.87685   0.71029   0.00000  Uiso   1.00
C21    C     0.85032   0.16641   0.47834   0.00000  Uiso   1.00
C22    C     0.88196   0.26461   0.50972   0.00000  Uiso   1.00
C23    C     0.92095   0.29165   0.46389   0.00000  Uiso   1.00
H24    H     0.82385   0.94079   0.32315   0.00000  Uiso   1.00
H25    H     0.70140   0.94506   0.17903   0.00000  Uiso   1.00
H26    H     0.87039   0.78673   0.46935   0.00000  Uiso   1.00
H27    H     0.90176   0.07131   0.30029   0.00000  Uiso   1.00
H28    H     0.56253   0.98010   0.05212   0.00000  Uiso   1.00
H29    H     0.91888   0.64624   0.66429   0.00000  Uiso   1.00
H30    H     0.98502   0.24634   0.30780   0.00000  Uiso   1.00
H31    H     0.79991   0.17446   0.57636   0.00000  Uiso   1.00
H32    H     0.67614   0.19156   0.44612   0.00000  Uiso   1.00
H33    H     0.84514   0.03322   0.73644   0.00000  Uiso   1.00
H34    H     0.87650   0.31780   0.56739   0.00000  Uiso   1.00
H35    H     0.54203   0.18016   0.26891   0.00000  Uiso   1.00
H36    H     0.89839   0.84630   0.88108   0.00000  Uiso   1.00
H37    H     0.96452   0.44640   0.52459   0.00000  Uiso   1.00
O38    O     0.47129   0.08713   0.07029   0.00000  Uiso   1.00
O39    O     0.93883   0.64913   0.87343   0.00000  Uiso   1.00
O40    O     0.02559   0.43644   0.40573   0.00000  Uiso   1.00
N41    N     0.57469   0.02485   0.12100   0.00000  Uiso   1.00
N42    N     0.90785   0.71271   0.69334   0.00000  Uiso   1.00
N43    N     0.96970   0.27374   0.36008   0.00000  Uiso   1.00
N44    N     0.56366   0.13251   0.23765   0.00000  Uiso   1.00
N45    N     0.89682   0.82036   0.80999   0.00000  Uiso   1.00
N46    N     0.95867   0.38139   0.47673   0.00000  Uiso   1.00
C47    C     0.18164   0.49433   0.11884   0.00000  Uiso   1.00
C48    C     0.25148   0.52906   0.16204   0.00000  Uiso   1.00
C49    C     0.30407   0.49829   0.26333   0.00000  Uiso   1.00
C50    C     0.36403   0.53876   0.28751   0.00000  Uiso   1.00
C51    C     0.47142   0.58219   0.36590   0.00000  Uiso   1.00
C52    C     0.15967   0.44302   0.00431   0.00000  Uiso   1.00
C53    C     0.13506   0.33992   0.97297   0.00000  Uiso   1.00
C54    C     0.11772   0.30797   0.86436   0.00000  Uiso   1.00
C55    C     0.08253   0.21785   0.69783   0.00000  Uiso   1.00
C56    C     0.14264   0.59765   0.09617   0.00000  Uiso   1.00
C57    C     0.10368   0.62454   0.14205   0.00000  Uiso   1.00
C58    C     0.07199   0.72276   0.11076   0.00000  Uiso   1.00
C59    C     0.01035   0.87272   0.08686   0.00000  Uiso   1.00
C60    C     0.19460   0.62093   0.98166   0.00000  Uiso   1.00
C61    C     0.25853   0.59782   0.08752   0.00000  Uiso   1.00
C62    C     0.31842   0.63835   0.11156   0.00000  Uiso   1.00
C63    C     0.37109   0.60765   0.21287   0.00000  Uiso   1.00
C64    C     0.16672   0.51178   0.92979   0.00000  Uiso   1.00
C65    C     0.14941   0.47998   0.82120   0.00000  Uiso   1.00
C66    C     0.12478   0.37685   0.78971   0.00000  Uiso   1.00
C67    C     0.14968   0.66641   0.02166   0.00000  Uiso   1.00
C68    C     0.11804   0.76461   0.99028   0.00000  Uiso   1.00
C69    C     0.07905   0.79165   0.03611   0.00000  Uiso   1.00
H70    H     0.17615   0.44079   0.17685   0.00000  Uiso   1.00
H71    H     0.29860   0.44506   0.32097   0.00000  Uiso   1.00
H72    H     0.12961   0.28673   0.03065   0.00000  Uiso   1.00
H73    H     0.09824   0.57131   0.19971   0.00000  Uiso   1.00
H74    H     0.43747   0.48010   0.44788   0.00000  Uiso   1.00
H75    H     0.08112   0.14624   0.83571   0.00000  Uiso   1.00
H76    H     0.01498   0.74634   0.19220   0.00000  Uiso   1.00
H77    H     0.20009   0.67446   0.92364   0.00000  Uiso   1.00
H78    H     0.32386   0.69156   0.05388   0.00000  Uiso   1.00
H79    H     0.15486   0.53322   0.76356   0.00000  Uiso   1.00
H80    H     0.12350   0.81780   0.93261   0.00000  Uiso   1.00
H81    H     0.45797   0.68016   0.23109   0.00000  Uiso   1.00
H82    H     0.10161   0.34630   0.61892   0.00000  Uiso   1.00
H83    H     0.03548   0.94640   0.97541   0.00000  Uiso   1.00
O84    O     0.52871   0.58713   0.42971   0.00000  Uiso   1.00
O85    O     0.06117   0.14913   0.62657   0.00000  Uiso   1.00
O86    O     0.97441   0.93644   0.09427   0.00000  Uiso   1.00
N87    N     0.42531   0.52485   0.37900   0.00000  Uiso   1.00
N88    N     0.09215   0.21271   0.80666   0.00000  Uiso   1.00
N89    N     0.03030   0.77374   0.13992   0.00000  Uiso   1.00
N90    N     0.43634   0.63251   0.26235   0.00000  Uiso   1.00
N91    N     0.10318   0.32036   0.69001   0.00000  Uiso   1.00
N92    N     0.04133   0.88139   0.02327   0.00000  Uiso   1.00
C93    C     0.18164   0.00567   0.61884   0.00000  Uiso   1.00
C94    C     0.25148   0.97094   0.66204   0.00000  Uiso   1.00
C95    C     0.30407   0.00171   0.76333   0.00000  Uiso   1.00
C96    C     0.36403   0.96124   0.78751   0.00000  Uiso   1.00
C97    C     0.47142   0.91781   0.86590   0.00000  Uiso   1.00
C98    C     0.15967   0.05698   0.50431   0.00000  Uiso   1.00
C99    C     0.13506   0.16008   0.47297   0.00000  Uiso   1.00
C100   C     0.11772   0.19203   0.36436   0.00000  Uiso   1.00
C101   C     0.08253   0.28215   0.19783   0.00000  Uiso   1.00
C102   C     0.14264   0.90235   0.59617   0.00000  Uiso   1.00
C103   C     0.10368   0.87546   0.64205   0.00000  Uiso   1.00
C104   C     0.07199   0.77724   0.61076   0.00000  Uiso   1.00
C105   C     0.01035   0.62728   0.58686   0.00000  Uiso   1.00
C106   C     0.19460   0.87907   0.48166   0.00000  Uiso   1.00
C107   C     0.25853   0.90218   0.58752   0.00000  Uiso   1.00
C108   C     0.31842   0.86165   0.61156   0.00000  Uiso   1.00
C109   C     0.37109   0.89235   0.71287   0.00000  Uiso   1.00
C110   C     0.16672   0.98822   0.42979   0.00000  Uiso   1.00
C111   C     0.14941   0.02002   0.32120   0.00000  Uiso   1.00
C112   C     0.12478   0.12315   0.28971   0.00000  Uiso   1.00
C113   C     0.14968   0.83359   0.52166   0.00000  Uiso   1.00
C114   C     0.11804   0.73539   0.49028   0.00000  Uiso   1.00
C115   C     0.07905   0.70835   0.53611   0.00000  Uiso   1.00
H116   H     0.17615   0.05921   0.67685   0.00000  Uiso   1.00
H117   H     0.29860   0.05494   0.82097   0.00000  Uiso   1.00
H118   H     0.12961   0.21327   0.53065   0.00000  Uiso   1.00
H119   H     0.09824   0.92869   0.69971   0.00000  Uiso   1.00
H120   H     0.43747   0.01990   0.94788   0.00000  Uiso   1.00
H121   H     0.08112   0.35376   0.33571   0.00000  Uiso   1.00
H122   H     0.01498   0.75366   0.69220   0.00000  Uiso   1.00
H123   H     0.20009   0.82554   0.42364   0.00000  Uiso   1.00
H124   H     0.32386   0.80844   0.55388   0.00000  Uiso   1.00
H125   H     0.15486   0.96678   0.26356   0.00000  Uiso   1.00
H126   H     0.12350   0.68220   0.43261   0.00000  Uiso   1.00
H127   H     0.45797   0.81984   0.73109   0.00000  Uiso   1.00
H128   H     0.10161   0.15370   0.11892   0.00000  Uiso   1.00
H129   H     0.03548   0.55360   0.47541   0.00000  Uiso   1.00
O130   O     0.52871   0.91287   0.92971   0.00000  Uiso   1.00
O131   O     0.06117   0.35087   0.12657   0.00000  Uiso   1.00
O132   O     0.97441   0.56356   0.59427   0.00000  Uiso   1.00
N133   N     0.42531   0.97515   0.87900   0.00000  Uiso   1.00
N134   N     0.09215   0.28729   0.30666   0.00000  Uiso   1.00
N135   N     0.03030   0.72626   0.63992   0.00000  Uiso   1.00
N136   N     0.43634   0.86749   0.76235   0.00000  Uiso   1.00
N137   N     0.10318   0.17964   0.19001   0.00000  Uiso   1.00
N138   N     0.04133   0.61861   0.52327   0.00000  Uiso   1.00
C139   C     0.81836   0.50567   0.88116   0.00000  Uiso   1.00
C140   C     0.74852   0.47094   0.83796   0.00000  Uiso   1.00
C141   C     0.69593   0.50171   0.73667   0.00000  Uiso   1.00
C142   C     0.63597   0.46124   0.71249   0.00000  Uiso   1.00
C143   C     0.52858   0.41781   0.63410   0.00000  Uiso   1.00
C144   C     0.84033   0.55698   0.99569   0.00000  Uiso   1.00
C145   C     0.86494   0.66008   0.02703   0.00000  Uiso   1.00
C146   C     0.88228   0.69203   0.13564   0.00000  Uiso   1.00
C147   C     0.91747   0.78215   0.30217   0.00000  Uiso   1.00
C148   C     0.85736   0.40235   0.90383   0.00000  Uiso   1.00
C149   C     0.89632   0.37546   0.85795   0.00000  Uiso   1.00
C150   C     0.92801   0.27724   0.88924   0.00000  Uiso   1.00
C151   C     0.98965   0.12728   0.91314   0.00000  Uiso   1.00
C152   C     0.80540   0.37907   0.01834   0.00000  Uiso   1.00
C153   C     0.74147   0.40218   0.91248   0.00000  Uiso   1.00
C154   C     0.68158   0.36165   0.88844   0.00000  Uiso   1.00
C155   C     0.62891   0.39235   0.78713   0.00000  Uiso   1.00
C156   C     0.83328   0.48822   0.07021   0.00000  Uiso   1.00
C157   C     0.85059   0.52002   0.17880   0.00000  Uiso   1.00
C158   C     0.87522   0.62315   0.21029   0.00000  Uiso   1.00
C159   C     0.85032   0.33359   0.97834   0.00000  Uiso   1.00
C160   C     0.88196   0.23539   0.00972   0.00000  Uiso   1.00
C161   C     0.92095   0.20835   0.96389   0.00000  Uiso   1.00
H162   H     0.82385   0.55921   0.82315   0.00000  Uiso   1.00
H163   H     0.70140   0.55494   0.67903   0.00000  Uiso   1.00
H164   H     0.87039   0.71327   0.96935   0.00000  Uiso   1.00
H165   H     0.90176   0.42869   0.80029   0.00000  Uiso   1.00
H166   H     0.56253   0.51990   0.55212   0.00000  Uiso   1.00
H167   H     0.91888   0.85376   0.16429   0.00000  Uiso   1.00
H168   H     0.98502   0.25366   0.80780   0.00000  Uiso   1.00
H169   H     0.79991   0.32554   0.07636   0.00000  Uiso   1.00
H170   H     0.67614   0.30844   0.94612   0.00000  Uiso   1.00
H171   H     0.84514   0.46678   0.23644   0.00000  Uiso   1.00
H172   H     0.87650   0.18220   0.06739   0.00000  Uiso   1.00
H173   H     0.54203   0.31984   0.76891   0.00000  Uiso   1.00
H174   H     0.89839   0.65370   0.38108   0.00000  Uiso   1.00
H175   H     0.96452   0.05360   0.02459   0.00000  Uiso   1.00
O176   O     0.47129   0.41287   0.57029   0.00000  Uiso   1.00
O177   O     0.93883   0.85087   0.37343   0.00000  Uiso   1.00
O178   O     0.02559   0.06356   0.90573   0.00000  Uiso   1.00
N179   N     0.57469   0.47515   0.62100   0.00000  Uiso   1.00
N180   N     0.90785   0.78729   0.19334   0.00000  Uiso   1.00
N181   N     0.96970   0.22626   0.86008   0.00000  Uiso   1.00
N182   N     0.56366   0.36749   0.73765   0.00000  Uiso   1.00
N183   N     0.89682   0.67964   0.30999   0.00000  Uiso   1.00
N184   N     0.95867   0.11861   0.97673   0.00000  Uiso   1.00
