data_job_05054
_audit_creation_date              2018-12-19
_audit_creation_method            'Materials Studio'
_symmetry_space_group_name_H-M    'P1'
_symmetry_Int_Tables_number       1
_symmetry_cell_setting            triclinic
loop_
_symmetry_equiv_pos_as_xyz
  x,y,z
_cell_length_a                    24.2936
_cell_length_b                    13.7076
_cell_length_c                    9.8238
_cell_angle_alpha                 90.0000
_cell_angle_beta                  92.8377
_cell_angle_gamma                 90.0000
loop_
_atom_site_label
_atom_site_type_symbol
_atom_site_fract_x
_atom_site_fract_y
_atom_site_fract_z
_atom_site_U_iso_or_equiv
_atom_site_adp_type
_atom_site_occupancy
C1     C     0.76931   0.71479   0.22252   0.00000  Uiso   1.00
C2     C     0.71303   0.67373   0.17705   0.00000  Uiso   1.00
C3     C     0.67848   0.71034   0.07250   0.00000  Uiso   1.00
C4     C     0.62870   0.66245   0.04666   0.00000  Uiso   1.00
C5     C     0.54352   0.61113   0.96453   0.00000  Uiso   1.00
C6     C     0.76644   0.73707   0.37409   0.00000  Uiso   1.00
C7     C     0.77680   0.82693   0.43520   0.00000  Uiso   1.00
C8     C     0.77198   0.83235   0.57524   0.00000  Uiso   1.00
C9     C     0.76976   0.87935   0.79902   0.00000  Uiso   1.00
C10    C     0.80998   0.63068   0.21241   0.00000  Uiso   1.00
C11    C     0.85697   0.63109   0.13761   0.00000  Uiso   1.00
C12    C     0.88883   0.54694   0.14155   0.00000  Uiso   1.00
C13    C     0.95422   0.42875   0.11431   0.00000  Uiso   1.00
C14    C     0.74234   0.56463   0.36256   0.00000  Uiso   1.00
C15    C     0.69838   0.59217   0.25312   0.00000  Uiso   1.00
C16    C     0.64864   0.54421   0.22744   0.00000  Uiso   1.00
C17    C     0.61402   0.58074   0.12286   0.00000  Uiso   1.00
C18    C     0.75179   0.65551   0.45015   0.00000  Uiso   1.00
C19    C     0.74696   0.66080   0.59014   0.00000  Uiso   1.00
C20    C     0.75731   0.75065   0.65144   0.00000  Uiso   1.00
C21    C     0.79533   0.54912   0.28847   0.00000  Uiso   1.00
C22    C     0.82713   0.46496   0.29254   0.00000  Uiso   1.00
C23    C     0.87415   0.46524   0.21776   0.00000  Uiso   1.00
H24    H     0.78072   0.77829   0.16331   0.00000  Uiso   1.00
H25    H     0.68983   0.77346   0.01366   0.00000  Uiso   1.00
H26    H     0.78814   0.89003   0.37631   0.00000  Uiso   1.00
H27    H     0.86829   0.69421   0.07876   0.00000  Uiso   1.00
H28    H     0.58259   0.73216   0.88133   0.00000  Uiso   1.00
H29    H     0.78991   0.97795   0.64600   0.00000  Uiso   1.00
H30    H     0.95893   0.56504   0.01856   0.00000  Uiso   1.00
H31    H     0.73093   0.50114   0.42179   0.00000  Uiso   1.00
H32    H     0.63731   0.48110   0.28632   0.00000  Uiso   1.00
H33    H     0.73562   0.59767   0.64897   0.00000  Uiso   1.00
H34    H     0.81578   0.40186   0.35142   0.00000  Uiso   1.00
H35    H     0.53997   0.49488   0.10263   0.00000  Uiso   1.00
H36    H     0.74728   0.74066   0.86730   0.00000  Uiso   1.00
H37    H     0.91630   0.32775   0.23986   0.00000  Uiso   1.00
O38    O     0.50058   0.60536   0.89823   0.00000  Uiso   1.00
O39    O     0.77258   0.92781   0.90144   0.00000  Uiso   1.00
O40    O     0.99433   0.38608   0.07825   0.00000  Uiso   1.00
N41    N     0.58541   0.67906   0.95198   0.00000  Uiso   1.00
N42    N     0.77923   0.90885   0.66690   0.00000  Uiso   1.00
N43    N     0.93726   0.52282   0.08033   0.00000  Uiso   1.00
N44    N     0.56248   0.55137   0.07106   0.00000  Uiso   1.00
N45    N     0.75629   0.78117   0.78598   0.00000  Uiso   1.00
N46    N     0.91433   0.39514   0.19940   0.00000  Uiso   1.00
C47    C     0.23069   0.71479   0.27748   0.00000  Uiso   1.00
C48    C     0.28697   0.67373   0.32295   0.00000  Uiso   1.00
C49    C     0.32152   0.71034   0.42750   0.00000  Uiso   1.00
C50    C     0.37130   0.66245   0.45334   0.00000  Uiso   1.00
C51    C     0.45648   0.61113   0.53547   0.00000  Uiso   1.00
C52    C     0.23356   0.73707   0.12591   0.00000  Uiso   1.00
C53    C     0.22320   0.82693   0.06480   0.00000  Uiso   1.00
C54    C     0.22802   0.83235   0.92476   0.00000  Uiso   1.00
C55    C     0.23024   0.87935   0.70098   0.00000  Uiso   1.00
C56    C     0.19002   0.63068   0.28759   0.00000  Uiso   1.00
C57    C     0.14303   0.63109   0.36239   0.00000  Uiso   1.00
C58    C     0.11117   0.54694   0.35845   0.00000  Uiso   1.00
C59    C     0.04578   0.42875   0.38569   0.00000  Uiso   1.00
C60    C     0.25766   0.56463   0.13744   0.00000  Uiso   1.00
C61    C     0.30162   0.59217   0.24688   0.00000  Uiso   1.00
C62    C     0.35136   0.54421   0.27256   0.00000  Uiso   1.00
C63    C     0.38598   0.58074   0.37714   0.00000  Uiso   1.00
C64    C     0.24821   0.65551   0.04985   0.00000  Uiso   1.00
C65    C     0.25304   0.66080   0.90986   0.00000  Uiso   1.00
C66    C     0.24269   0.75065   0.84856   0.00000  Uiso   1.00
C67    C     0.20467   0.54912   0.21153   0.00000  Uiso   1.00
C68    C     0.17287   0.46496   0.20746   0.00000  Uiso   1.00
C69    C     0.12585   0.46524   0.28224   0.00000  Uiso   1.00
H70    H     0.21928   0.77829   0.33669   0.00000  Uiso   1.00
H71    H     0.31017   0.77346   0.48634   0.00000  Uiso   1.00
H72    H     0.21186   0.89003   0.12369   0.00000  Uiso   1.00
H73    H     0.13171   0.69421   0.42124   0.00000  Uiso   1.00
H74    H     0.41741   0.73216   0.61867   0.00000  Uiso   1.00
H75    H     0.21009   0.97795   0.85400   0.00000  Uiso   1.00
H76    H     0.04107   0.56504   0.48144   0.00000  Uiso   1.00
H77    H     0.26907   0.50114   0.07821   0.00000  Uiso   1.00
H78    H     0.36269   0.48110   0.21368   0.00000  Uiso   1.00
H79    H     0.26438   0.59767   0.85103   0.00000  Uiso   1.00
H80    H     0.18422   0.40186   0.14858   0.00000  Uiso   1.00
H81    H     0.46003   0.49488   0.39737   0.00000  Uiso   1.00
H82    H     0.25272   0.74066   0.63270   0.00000  Uiso   1.00
H83    H     0.08370   0.32775   0.26014   0.00000  Uiso   1.00
O84    O     0.49942   0.60536   0.60177   0.00000  Uiso   1.00
O85    O     0.22742   0.92781   0.59856   0.00000  Uiso   1.00
O86    O     0.00567   0.38608   0.42175   0.00000  Uiso   1.00
N87    N     0.41459   0.67906   0.54802   0.00000  Uiso   1.00
N88    N     0.22077   0.90885   0.83310   0.00000  Uiso   1.00
N89    N     0.06274   0.52282   0.41967   0.00000  Uiso   1.00
N90    N     0.43752   0.55137   0.42894   0.00000  Uiso   1.00
N91    N     0.24371   0.78117   0.71402   0.00000  Uiso   1.00
N92    N     0.08567   0.39514   0.30060   0.00000  Uiso   1.00
C93    C     0.23069   0.28521   0.77748   0.00000  Uiso   1.00
C94    C     0.28697   0.32627   0.82295   0.00000  Uiso   1.00
C95    C     0.32152   0.28966   0.92750   0.00000  Uiso   1.00
C96    C     0.37130   0.33755   0.95334   0.00000  Uiso   1.00
C97    C     0.45648   0.38887   0.03547   0.00000  Uiso   1.00
C98    C     0.23356   0.26293   0.62591   0.00000  Uiso   1.00
C99    C     0.22320   0.17307   0.56480   0.00000  Uiso   1.00
C100   C     0.22802   0.16765   0.42476   0.00000  Uiso   1.00
C101   C     0.23024   0.12065   0.20098   0.00000  Uiso   1.00
C102   C     0.19002   0.36932   0.78759   0.00000  Uiso   1.00
C103   C     0.14303   0.36891   0.86239   0.00000  Uiso   1.00
C104   C     0.11117   0.45306   0.85845   0.00000  Uiso   1.00
C105   C     0.04578   0.57125   0.88569   0.00000  Uiso   1.00
C106   C     0.25766   0.43537   0.63744   0.00000  Uiso   1.00
C107   C     0.30162   0.40783   0.74688   0.00000  Uiso   1.00
C108   C     0.35136   0.45579   0.77256   0.00000  Uiso   1.00
C109   C     0.38598   0.41926   0.87714   0.00000  Uiso   1.00
C110   C     0.24821   0.34449   0.54985   0.00000  Uiso   1.00
C111   C     0.25304   0.33920   0.40986   0.00000  Uiso   1.00
C112   C     0.24269   0.24935   0.34856   0.00000  Uiso   1.00
C113   C     0.20467   0.45088   0.71153   0.00000  Uiso   1.00
C114   C     0.17287   0.53504   0.70746   0.00000  Uiso   1.00
C115   C     0.12585   0.53476   0.78224   0.00000  Uiso   1.00
H116   H     0.21928   0.22171   0.83669   0.00000  Uiso   1.00
H117   H     0.31017   0.22654   0.98634   0.00000  Uiso   1.00
H118   H     0.21186   0.10997   0.62369   0.00000  Uiso   1.00
H119   H     0.13171   0.30579   0.92124   0.00000  Uiso   1.00
H120   H     0.41741   0.26784   0.11867   0.00000  Uiso   1.00
H121   H     0.21009   0.02205   0.35400   0.00000  Uiso   1.00
H122   H     0.04107   0.43496   0.98144   0.00000  Uiso   1.00
H123   H     0.26907   0.49886   0.57821   0.00000  Uiso   1.00
H124   H     0.36269   0.51890   0.71368   0.00000  Uiso   1.00
H125   H     0.26438   0.40233   0.35103   0.00000  Uiso   1.00
H126   H     0.18422   0.59814   0.64858   0.00000  Uiso   1.00
H127   H     0.46003   0.50512   0.89737   0.00000  Uiso   1.00
H128   H     0.25272   0.25934   0.13270   0.00000  Uiso   1.00
H129   H     0.08370   0.67225   0.76014   0.00000  Uiso   1.00
O130   O     0.49942   0.39464   0.10177   0.00000  Uiso   1.00
O131   O     0.22742   0.07219   0.09856   0.00000  Uiso   1.00
O132   O     0.00567   0.61392   0.92175   0.00000  Uiso   1.00
N133   N     0.41459   0.32094   0.04802   0.00000  Uiso   1.00
N134   N     0.22077   0.09115   0.33310   0.00000  Uiso   1.00
N135   N     0.06274   0.47718   0.91967   0.00000  Uiso   1.00
N136   N     0.43752   0.44863   0.92894   0.00000  Uiso   1.00
N137   N     0.24371   0.21883   0.21402   0.00000  Uiso   1.00
N138   N     0.08567   0.60486   0.80060   0.00000  Uiso   1.00
C139   C     0.76931   0.28521   0.72252   0.00000  Uiso   1.00
C140   C     0.71303   0.32627   0.67705   0.00000  Uiso   1.00
C141   C     0.67848   0.28966   0.57250   0.00000  Uiso   1.00
C142   C     0.62870   0.33755   0.54666   0.00000  Uiso   1.00
C143   C     0.54352   0.38887   0.46453   0.00000  Uiso   1.00
C144   C     0.76644   0.26293   0.87409   0.00000  Uiso   1.00
C145   C     0.77680   0.17307   0.93520   0.00000  Uiso   1.00
C146   C     0.77198   0.16765   0.07524   0.00000  Uiso   1.00
C147   C     0.76976   0.12065   0.29902   0.00000  Uiso   1.00
C148   C     0.80998   0.36932   0.71241   0.00000  Uiso   1.00
C149   C     0.85697   0.36891   0.63761   0.00000  Uiso   1.00
C150   C     0.88883   0.45306   0.64155   0.00000  Uiso   1.00
C151   C     0.95422   0.57125   0.61431   0.00000  Uiso   1.00
C152   C     0.74234   0.43537   0.86256   0.00000  Uiso   1.00
C153   C     0.69838   0.40783   0.75312   0.00000  Uiso   1.00
C154   C     0.64864   0.45579   0.72744   0.00000  Uiso   1.00
C155   C     0.61402   0.41926   0.62286   0.00000  Uiso   1.00
C156   C     0.75179   0.34449   0.95015   0.00000  Uiso   1.00
C157   C     0.74696   0.33920   0.09014   0.00000  Uiso   1.00
C158   C     0.75731   0.24935   0.15144   0.00000  Uiso   1.00
C159   C     0.79533   0.45088   0.78847   0.00000  Uiso   1.00
C160   C     0.82713   0.53504   0.79254   0.00000  Uiso   1.00
C161   C     0.87415   0.53476   0.71776   0.00000  Uiso   1.00
H162   H     0.78072   0.22171   0.66331   0.00000  Uiso   1.00
H163   H     0.68983   0.22654   0.51366   0.00000  Uiso   1.00
H164   H     0.78814   0.10997   0.87631   0.00000  Uiso   1.00
H165   H     0.86829   0.30579   0.57876   0.00000  Uiso   1.00
H166   H     0.58259   0.26784   0.38133   0.00000  Uiso   1.00
H167   H     0.78991   0.02205   0.14600   0.00000  Uiso   1.00
H168   H     0.95893   0.43496   0.51856   0.00000  Uiso   1.00
H169   H     0.73093   0.49886   0.92179   0.00000  Uiso   1.00
H170   H     0.63731   0.51890   0.78632   0.00000  Uiso   1.00
H171   H     0.73562   0.40233   0.14897   0.00000  Uiso   1.00
H172   H     0.81578   0.59814   0.85142   0.00000  Uiso   1.00
H173   H     0.53997   0.50512   0.60263   0.00000  Uiso   1.00
H174   H     0.74728   0.25934   0.36730   0.00000  Uiso   1.00
H175   H     0.91630   0.67225   0.73986   0.00000  Uiso   1.00
O176   O     0.50058   0.39464   0.39823   0.00000  Uiso   1.00
O177   O     0.77258   0.07219   0.40144   0.00000  Uiso   1.00
O178   O     0.99433   0.61392   0.57825   0.00000  Uiso   1.00
N179   N     0.58541   0.32094   0.45198   0.00000  Uiso   1.00
N180   N     0.77923   0.09115   0.16690   0.00000  Uiso   1.00
N181   N     0.93726   0.47718   0.58033   0.00000  Uiso   1.00
N182   N     0.56248   0.44863   0.57106   0.00000  Uiso   1.00
N183   N     0.75629   0.21883   0.28598   0.00000  Uiso   1.00
N184   N     0.91433   0.60486   0.69940   0.00000  Uiso   1.00
