data_job_03225
_audit_creation_date              2018-12-19
_audit_creation_method            'Materials Studio'
_symmetry_space_group_name_H-M    'P1'
_symmetry_Int_Tables_number       1
_symmetry_cell_setting            triclinic
loop_
_symmetry_equiv_pos_as_xyz
  x,y,z
_cell_length_a                    20.4221
_cell_length_b                    15.4985
_cell_length_c                    18.9232
_cell_angle_alpha                 90.0000
_cell_angle_beta                  90.0000
_cell_angle_gamma                 90.0000
loop_
_atom_site_label
_atom_site_type_symbol
_atom_site_fract_x
_atom_site_fract_y
_atom_site_fract_z
_atom_site_U_iso_or_equiv
_atom_site_adp_type
_atom_site_occupancy
C1     C     0.25478   0.69127   0.72345   0.00000  Uiso   1.00
C2     C     0.30209   0.66795   0.66410   0.00000  Uiso   1.00
C3     C     0.36974   0.66344   0.66994   0.00000  Uiso   1.00
C4     C     0.40435   0.64095   0.60953   0.00000  Uiso   1.00
C5     C     0.48267   0.60733   0.52711   0.00000  Uiso   1.00
C6     C     0.20686   0.61611   0.72899   0.00000  Uiso   1.00
C7     C     0.19444   0.56804   0.78940   0.00000  Uiso   1.00
C8     C     0.14887   0.50193   0.78361   0.00000  Uiso   1.00
C9     C     0.07931   0.38789   0.80195   0.00000  Uiso   1.00
C10    C     0.21506   0.76787   0.69661   0.00000  Uiso   1.00
C11    C     0.20952   0.84738   0.72980   0.00000  Uiso   1.00
C12    C     0.17084   0.90904   0.69677   0.00000  Uiso   1.00
C13    C     0.11401   0.03061   0.66483   0.00000  Uiso   1.00
C14    C     0.19593   0.65936   0.60577   0.00000  Uiso   1.00
C15    C     0.27013   0.65061   0.60018   0.00000  Uiso   1.00
C16    C     0.30464   0.62813   0.53975   0.00000  Uiso   1.00
C17    C     0.37233   0.62359   0.54550   0.00000  Uiso   1.00
C18    C     0.17490   0.59878   0.66508   0.00000  Uiso   1.00
C19    C     0.12933   0.53273   0.65921   0.00000  Uiso   1.00
C20    C     0.11685   0.48457   0.71958   0.00000  Uiso   1.00
C21    C     0.18310   0.75054   0.63270   0.00000  Uiso   1.00
C22    C     0.14442   0.81208   0.59961   0.00000  Uiso   1.00
C23    C     0.13882   0.89167   0.63274   0.00000  Uiso   1.00
H24    H     0.27967   0.70476   0.77321   0.00000  Uiso   1.00
H25    H     0.39446   0.67685   0.71942   0.00000  Uiso   1.00
H26    H     0.21918   0.58147   0.83885   0.00000  Uiso   1.00
H27    H     0.23426   0.86077   0.77926   0.00000  Uiso   1.00
H28    H     0.50764   0.63823   0.63159   0.00000  Uiso   1.00
H29    H     0.13804   0.43714   0.88344   0.00000  Uiso   1.00
H30    H     0.16983   0.02611   0.75779   0.00000  Uiso   1.00
H31    H     0.17105   0.64586   0.55601   0.00000  Uiso   1.00
H32    H     0.27989   0.61472   0.49029   0.00000  Uiso   1.00
H33    H     0.10460   0.51934   0.60974   0.00000  Uiso   1.00
H34    H     0.11969   0.79864   0.55015   0.00000  Uiso   1.00
H35    H     0.41464   0.58780   0.44563   0.00000  Uiso   1.00
H36    H     0.04504   0.38672   0.69748   0.00000  Uiso   1.00
H37    H     0.07684   0.97567   0.57183   0.00000  Uiso   1.00
O38    O     0.53470   0.59356   0.49931   0.00000  Uiso   1.00
O39    O     0.04978   0.32976   0.82973   0.00000  Uiso   1.00
O40    O     0.09151   0.10246   0.66487   0.00000  Uiso   1.00
N41    N     0.47082   0.63065   0.59684   0.00000  Uiso   1.00
N42    N     0.12527   0.44264   0.83230   0.00000  Uiso   1.00
N43    N     0.15498   0.99326   0.71484   0.00000  Uiso   1.00
N44    N     0.42078   0.60352   0.49678   0.00000  Uiso   1.00
N45    N     0.07523   0.41550   0.73224   0.00000  Uiso   1.00
N46    N     0.10494   0.96613   0.61477   0.00000  Uiso   1.00
C47    C     0.75478   0.19127   0.72345   0.00000  Uiso   1.00
C48    C     0.80209   0.16795   0.66410   0.00000  Uiso   1.00
C49    C     0.86974   0.16344   0.66994   0.00000  Uiso   1.00
C50    C     0.90435   0.14095   0.60953   0.00000  Uiso   1.00
C51    C     0.98267   0.10733   0.52711   0.00000  Uiso   1.00
C52    C     0.70686   0.11611   0.72899   0.00000  Uiso   1.00
C53    C     0.69444   0.06804   0.78940   0.00000  Uiso   1.00
C54    C     0.64887   0.00193   0.78361   0.00000  Uiso   1.00
C55    C     0.57931   0.88789   0.80195   0.00000  Uiso   1.00
C56    C     0.71506   0.26787   0.69661   0.00000  Uiso   1.00
C57    C     0.70952   0.34738   0.72980   0.00000  Uiso   1.00
C58    C     0.67084   0.40904   0.69677   0.00000  Uiso   1.00
C59    C     0.61401   0.53061   0.66483   0.00000  Uiso   1.00
C60    C     0.69593   0.15936   0.60577   0.00000  Uiso   1.00
C61    C     0.77013   0.15061   0.60018   0.00000  Uiso   1.00
C62    C     0.80464   0.12813   0.53975   0.00000  Uiso   1.00
C63    C     0.87233   0.12359   0.54550   0.00000  Uiso   1.00
C64    C     0.67490   0.09878   0.66508   0.00000  Uiso   1.00
C65    C     0.62933   0.03273   0.65921   0.00000  Uiso   1.00
C66    C     0.61685   0.98457   0.71958   0.00000  Uiso   1.00
C67    C     0.68310   0.25054   0.63270   0.00000  Uiso   1.00
C68    C     0.64442   0.31208   0.59961   0.00000  Uiso   1.00
C69    C     0.63882   0.39167   0.63274   0.00000  Uiso   1.00
H70    H     0.77967   0.20476   0.77321   0.00000  Uiso   1.00
H71    H     0.89446   0.17685   0.71942   0.00000  Uiso   1.00
H72    H     0.71918   0.08147   0.83885   0.00000  Uiso   1.00
H73    H     0.73426   0.36077   0.77926   0.00000  Uiso   1.00
H74    H     0.00764   0.13823   0.63159   0.00000  Uiso   1.00
H75    H     0.63804   0.93714   0.88344   0.00000  Uiso   1.00
H76    H     0.66983   0.52611   0.75779   0.00000  Uiso   1.00
H77    H     0.67105   0.14586   0.55601   0.00000  Uiso   1.00
H78    H     0.77989   0.11472   0.49029   0.00000  Uiso   1.00
H79    H     0.60460   0.01934   0.60974   0.00000  Uiso   1.00
H80    H     0.61969   0.29864   0.55015   0.00000  Uiso   1.00
H81    H     0.91464   0.08780   0.44563   0.00000  Uiso   1.00
H82    H     0.54504   0.88672   0.69748   0.00000  Uiso   1.00
H83    H     0.57684   0.47567   0.57183   0.00000  Uiso   1.00
O84    O     0.03470   0.09356   0.49931   0.00000  Uiso   1.00
O85    O     0.54978   0.82976   0.82973   0.00000  Uiso   1.00
O86    O     0.59151   0.60246   0.66487   0.00000  Uiso   1.00
N87    N     0.97082   0.13065   0.59684   0.00000  Uiso   1.00
N88    N     0.62527   0.94264   0.83230   0.00000  Uiso   1.00
N89    N     0.65498   0.49326   0.71484   0.00000  Uiso   1.00
N90    N     0.92078   0.10352   0.49678   0.00000  Uiso   1.00
N91    N     0.57523   0.91550   0.73224   0.00000  Uiso   1.00
N92    N     0.60494   0.46613   0.61477   0.00000  Uiso   1.00
C93    C     0.74522   0.30873   0.22345   0.00000  Uiso   1.00
C94    C     0.69791   0.33205   0.16410   0.00000  Uiso   1.00
C95    C     0.63026   0.33656   0.16994   0.00000  Uiso   1.00
C96    C     0.59565   0.35905   0.10953   0.00000  Uiso   1.00
C97    C     0.51733   0.39267   0.02711   0.00000  Uiso   1.00
C98    C     0.79314   0.38389   0.22899   0.00000  Uiso   1.00
C99    C     0.80556   0.43196   0.28940   0.00000  Uiso   1.00
C100   C     0.85113   0.49807   0.28361   0.00000  Uiso   1.00
C101   C     0.92069   0.61211   0.30195   0.00000  Uiso   1.00
C102   C     0.78494   0.23213   0.19661   0.00000  Uiso   1.00
C103   C     0.79048   0.15262   0.22980   0.00000  Uiso   1.00
C104   C     0.82916   0.09096   0.19677   0.00000  Uiso   1.00
C105   C     0.88599   0.96939   0.16483   0.00000  Uiso   1.00
C106   C     0.80407   0.34064   0.10577   0.00000  Uiso   1.00
C107   C     0.72987   0.34939   0.10018   0.00000  Uiso   1.00
C108   C     0.69536   0.37187   0.03975   0.00000  Uiso   1.00
C109   C     0.62767   0.37641   0.04550   0.00000  Uiso   1.00
C110   C     0.82510   0.40122   0.16508   0.00000  Uiso   1.00
C111   C     0.87067   0.46727   0.15921   0.00000  Uiso   1.00
C112   C     0.88315   0.51543   0.21958   0.00000  Uiso   1.00
C113   C     0.81690   0.24946   0.13270   0.00000  Uiso   1.00
C114   C     0.85558   0.18792   0.09961   0.00000  Uiso   1.00
C115   C     0.86118   0.10833   0.13274   0.00000  Uiso   1.00
H116   H     0.72033   0.29524   0.27321   0.00000  Uiso   1.00
H117   H     0.60554   0.32315   0.21942   0.00000  Uiso   1.00
H118   H     0.78082   0.41853   0.33885   0.00000  Uiso   1.00
H119   H     0.76574   0.13923   0.27926   0.00000  Uiso   1.00
H120   H     0.49236   0.36177   0.13159   0.00000  Uiso   1.00
H121   H     0.86196   0.56286   0.38344   0.00000  Uiso   1.00
H122   H     0.83017   0.97389   0.25779   0.00000  Uiso   1.00
H123   H     0.82895   0.35414   0.05601   0.00000  Uiso   1.00
H124   H     0.72011   0.38528   0.99029   0.00000  Uiso   1.00
H125   H     0.89540   0.48066   0.10974   0.00000  Uiso   1.00
H126   H     0.88031   0.20136   0.05015   0.00000  Uiso   1.00
H127   H     0.58536   0.41220   0.94563   0.00000  Uiso   1.00
H128   H     0.95496   0.61328   0.19748   0.00000  Uiso   1.00
H129   H     0.92316   0.02433   0.07183   0.00000  Uiso   1.00
O130   O     0.46530   0.40644   0.99931   0.00000  Uiso   1.00
O131   O     0.95022   0.67024   0.32973   0.00000  Uiso   1.00
O132   O     0.90849   0.89754   0.16487   0.00000  Uiso   1.00
N133   N     0.52918   0.36935   0.09684   0.00000  Uiso   1.00
N134   N     0.87473   0.55736   0.33230   0.00000  Uiso   1.00
N135   N     0.84502   0.00674   0.21484   0.00000  Uiso   1.00
N136   N     0.57922   0.39648   0.99678   0.00000  Uiso   1.00
N137   N     0.92477   0.58450   0.23224   0.00000  Uiso   1.00
N138   N     0.89506   0.03387   0.11477   0.00000  Uiso   1.00
C139   C     0.24522   0.80873   0.22345   0.00000  Uiso   1.00
C140   C     0.19791   0.83205   0.16410   0.00000  Uiso   1.00
C141   C     0.13026   0.83656   0.16994   0.00000  Uiso   1.00
C142   C     0.09565   0.85905   0.10953   0.00000  Uiso   1.00
C143   C     0.01733   0.89267   0.02711   0.00000  Uiso   1.00
C144   C     0.29314   0.88389   0.22899   0.00000  Uiso   1.00
C145   C     0.30556   0.93196   0.28940   0.00000  Uiso   1.00
C146   C     0.35113   0.99807   0.28361   0.00000  Uiso   1.00
C147   C     0.42069   0.11211   0.30195   0.00000  Uiso   1.00
C148   C     0.28494   0.73213   0.19661   0.00000  Uiso   1.00
C149   C     0.29048   0.65262   0.22980   0.00000  Uiso   1.00
C150   C     0.32916   0.59096   0.19677   0.00000  Uiso   1.00
C151   C     0.38599   0.46939   0.16483   0.00000  Uiso   1.00
C152   C     0.30407   0.84064   0.10577   0.00000  Uiso   1.00
C153   C     0.22987   0.84939   0.10018   0.00000  Uiso   1.00
C154   C     0.19536   0.87187   0.03975   0.00000  Uiso   1.00
C155   C     0.12767   0.87641   0.04550   0.00000  Uiso   1.00
C156   C     0.32510   0.90122   0.16508   0.00000  Uiso   1.00
C157   C     0.37067   0.96727   0.15921   0.00000  Uiso   1.00
C158   C     0.38315   0.01543   0.21958   0.00000  Uiso   1.00
C159   C     0.31690   0.74946   0.13270   0.00000  Uiso   1.00
C160   C     0.35558   0.68792   0.09961   0.00000  Uiso   1.00
C161   C     0.36118   0.60833   0.13274   0.00000  Uiso   1.00
H162   H     0.22033   0.79524   0.27321   0.00000  Uiso   1.00
H163   H     0.10554   0.82315   0.21942   0.00000  Uiso   1.00
H164   H     0.28082   0.91853   0.33885   0.00000  Uiso   1.00
H165   H     0.26574   0.63923   0.27926   0.00000  Uiso   1.00
H166   H     0.99236   0.86177   0.13159   0.00000  Uiso   1.00
H167   H     0.36196   0.06286   0.38344   0.00000  Uiso   1.00
H168   H     0.33017   0.47389   0.25779   0.00000  Uiso   1.00
H169   H     0.32895   0.85414   0.05601   0.00000  Uiso   1.00
H170   H     0.22011   0.88528   0.99029   0.00000  Uiso   1.00
H171   H     0.39540   0.98066   0.10974   0.00000  Uiso   1.00
H172   H     0.38031   0.70136   0.05015   0.00000  Uiso   1.00
H173   H     0.08536   0.91220   0.94563   0.00000  Uiso   1.00
H174   H     0.45496   0.11328   0.19748   0.00000  Uiso   1.00
H175   H     0.42316   0.52433   0.07183   0.00000  Uiso   1.00
O176   O     0.96530   0.90644   0.99931   0.00000  Uiso   1.00
O177   O     0.45022   0.17024   0.32973   0.00000  Uiso   1.00
O178   O     0.40849   0.39754   0.16487   0.00000  Uiso   1.00
N179   N     0.02918   0.86935   0.09684   0.00000  Uiso   1.00
N180   N     0.37473   0.05736   0.33230   0.00000  Uiso   1.00
N181   N     0.34502   0.50674   0.21484   0.00000  Uiso   1.00
N182   N     0.07922   0.89648   0.99678   0.00000  Uiso   1.00
N183   N     0.42477   0.08450   0.23224   0.00000  Uiso   1.00
N184   N     0.39506   0.53387   0.11477   0.00000  Uiso   1.00
C185   C     0.74522   0.69127   0.77655   0.00000  Uiso   1.00
C186   C     0.69791   0.66795   0.83590   0.00000  Uiso   1.00
C187   C     0.63026   0.66344   0.83006   0.00000  Uiso   1.00
C188   C     0.59565   0.64095   0.89047   0.00000  Uiso   1.00
C189   C     0.51733   0.60733   0.97289   0.00000  Uiso   1.00
C190   C     0.79314   0.61611   0.77101   0.00000  Uiso   1.00
C191   C     0.80556   0.56804   0.71060   0.00000  Uiso   1.00
C192   C     0.85113   0.50193   0.71639   0.00000  Uiso   1.00
C193   C     0.92069   0.38789   0.69805   0.00000  Uiso   1.00
C194   C     0.78494   0.76787   0.80339   0.00000  Uiso   1.00
C195   C     0.79048   0.84738   0.77020   0.00000  Uiso   1.00
C196   C     0.82916   0.90904   0.80323   0.00000  Uiso   1.00
C197   C     0.88599   0.03061   0.83517   0.00000  Uiso   1.00
C198   C     0.80407   0.65936   0.89423   0.00000  Uiso   1.00
C199   C     0.72987   0.65061   0.89982   0.00000  Uiso   1.00
C200   C     0.69536   0.62813   0.96025   0.00000  Uiso   1.00
C201   C     0.62767   0.62359   0.95450   0.00000  Uiso   1.00
C202   C     0.82510   0.59878   0.83492   0.00000  Uiso   1.00
C203   C     0.87067   0.53273   0.84079   0.00000  Uiso   1.00
C204   C     0.88315   0.48457   0.78042   0.00000  Uiso   1.00
C205   C     0.81690   0.75054   0.86730   0.00000  Uiso   1.00
C206   C     0.85558   0.81208   0.90039   0.00000  Uiso   1.00
C207   C     0.86118   0.89167   0.86726   0.00000  Uiso   1.00
H208   H     0.72033   0.70476   0.72679   0.00000  Uiso   1.00
H209   H     0.60554   0.67685   0.78058   0.00000  Uiso   1.00
H210   H     0.78082   0.58147   0.66115   0.00000  Uiso   1.00
H211   H     0.76574   0.86077   0.72074   0.00000  Uiso   1.00
H212   H     0.49236   0.63823   0.86841   0.00000  Uiso   1.00
H213   H     0.86196   0.43714   0.61656   0.00000  Uiso   1.00
H214   H     0.83017   0.02611   0.74221   0.00000  Uiso   1.00
H215   H     0.82895   0.64586   0.94399   0.00000  Uiso   1.00
H216   H     0.72011   0.61472   0.00971   0.00000  Uiso   1.00
H217   H     0.89540   0.51934   0.89026   0.00000  Uiso   1.00
H218   H     0.88031   0.79864   0.94985   0.00000  Uiso   1.00
H219   H     0.58536   0.58780   0.05437   0.00000  Uiso   1.00
H220   H     0.95496   0.38672   0.80252   0.00000  Uiso   1.00
H221   H     0.92316   0.97567   0.92817   0.00000  Uiso   1.00
O222   O     0.46530   0.59356   0.00069   0.00000  Uiso   1.00
O223   O     0.95022   0.32976   0.67027   0.00000  Uiso   1.00
O224   O     0.90849   0.10246   0.83513   0.00000  Uiso   1.00
N225   N     0.52918   0.63065   0.90316   0.00000  Uiso   1.00
N226   N     0.87473   0.44264   0.66770   0.00000  Uiso   1.00
N227   N     0.84502   0.99326   0.78516   0.00000  Uiso   1.00
N228   N     0.57922   0.60352   0.00322   0.00000  Uiso   1.00
N229   N     0.92477   0.41550   0.76776   0.00000  Uiso   1.00
N230   N     0.89506   0.96613   0.88523   0.00000  Uiso   1.00
C231   C     0.24522   0.19127   0.77655   0.00000  Uiso   1.00
C232   C     0.19791   0.16795   0.83590   0.00000  Uiso   1.00
C233   C     0.13026   0.16344   0.83006   0.00000  Uiso   1.00
C234   C     0.09565   0.14095   0.89047   0.00000  Uiso   1.00
C235   C     0.01733   0.10733   0.97289   0.00000  Uiso   1.00
C236   C     0.29314   0.11611   0.77101   0.00000  Uiso   1.00
C237   C     0.30556   0.06804   0.71060   0.00000  Uiso   1.00
C238   C     0.35113   0.00193   0.71639   0.00000  Uiso   1.00
C239   C     0.42069   0.88789   0.69805   0.00000  Uiso   1.00
C240   C     0.28494   0.26787   0.80339   0.00000  Uiso   1.00
C241   C     0.29048   0.34738   0.77020   0.00000  Uiso   1.00
C242   C     0.32916   0.40904   0.80323   0.00000  Uiso   1.00
C243   C     0.38599   0.53061   0.83517   0.00000  Uiso   1.00
C244   C     0.30407   0.15936   0.89423   0.00000  Uiso   1.00
C245   C     0.22987   0.15061   0.89982   0.00000  Uiso   1.00
C246   C     0.19536   0.12813   0.96025   0.00000  Uiso   1.00
C247   C     0.12767   0.12359   0.95450   0.00000  Uiso   1.00
C248   C     0.32510   0.09878   0.83492   0.00000  Uiso   1.00
C249   C     0.37067   0.03273   0.84079   0.00000  Uiso   1.00
C250   C     0.38315   0.98457   0.78042   0.00000  Uiso   1.00
C251   C     0.31690   0.25054   0.86730   0.00000  Uiso   1.00
C252   C     0.35558   0.31208   0.90039   0.00000  Uiso   1.00
C253   C     0.36118   0.39167   0.86726   0.00000  Uiso   1.00
H254   H     0.22033   0.20476   0.72679   0.00000  Uiso   1.00
H255   H     0.10554   0.17685   0.78058   0.00000  Uiso   1.00
H256   H     0.28082   0.08147   0.66115   0.00000  Uiso   1.00
H257   H     0.26574   0.36077   0.72074   0.00000  Uiso   1.00
H258   H     0.99236   0.13823   0.86841   0.00000  Uiso   1.00
H259   H     0.36196   0.93714   0.61656   0.00000  Uiso   1.00
H260   H     0.33017   0.52611   0.74221   0.00000  Uiso   1.00
H261   H     0.32895   0.14586   0.94399   0.00000  Uiso   1.00
H262   H     0.22011   0.11472   0.00971   0.00000  Uiso   1.00
H263   H     0.39540   0.01934   0.89026   0.00000  Uiso   1.00
H264   H     0.38031   0.29864   0.94985   0.00000  Uiso   1.00
H265   H     0.08536   0.08780   0.05437   0.00000  Uiso   1.00
H266   H     0.45496   0.88672   0.80252   0.00000  Uiso   1.00
H267   H     0.42316   0.47567   0.92817   0.00000  Uiso   1.00
O268   O     0.96530   0.09356   0.00069   0.00000  Uiso   1.00
O269   O     0.45022   0.82976   0.67027   0.00000  Uiso   1.00
O270   O     0.40849   0.60246   0.83513   0.00000  Uiso   1.00
N271   N     0.02918   0.13065   0.90316   0.00000  Uiso   1.00
N272   N     0.37473   0.94264   0.66770   0.00000  Uiso   1.00
N273   N     0.34502   0.49326   0.78516   0.00000  Uiso   1.00
N274   N     0.07922   0.10352   0.00322   0.00000  Uiso   1.00
N275   N     0.42477   0.91550   0.76776   0.00000  Uiso   1.00
N276   N     0.39506   0.46613   0.88523   0.00000  Uiso   1.00
C277   C     0.25478   0.30873   0.27655   0.00000  Uiso   1.00
C278   C     0.30209   0.33205   0.33590   0.00000  Uiso   1.00
C279   C     0.36974   0.33656   0.33006   0.00000  Uiso   1.00
C280   C     0.40435   0.35905   0.39047   0.00000  Uiso   1.00
C281   C     0.48267   0.39267   0.47289   0.00000  Uiso   1.00
C282   C     0.20686   0.38389   0.27101   0.00000  Uiso   1.00
C283   C     0.19444   0.43196   0.21060   0.00000  Uiso   1.00
C284   C     0.14887   0.49807   0.21639   0.00000  Uiso   1.00
C285   C     0.07931   0.61211   0.19805   0.00000  Uiso   1.00
C286   C     0.21506   0.23213   0.30339   0.00000  Uiso   1.00
C287   C     0.20952   0.15262   0.27020   0.00000  Uiso   1.00
C288   C     0.17084   0.09096   0.30323   0.00000  Uiso   1.00
C289   C     0.11401   0.96939   0.33517   0.00000  Uiso   1.00
C290   C     0.19593   0.34064   0.39423   0.00000  Uiso   1.00
C291   C     0.27013   0.34939   0.39982   0.00000  Uiso   1.00
C292   C     0.30464   0.37187   0.46025   0.00000  Uiso   1.00
C293   C     0.37233   0.37641   0.45450   0.00000  Uiso   1.00
C294   C     0.17490   0.40122   0.33492   0.00000  Uiso   1.00
C295   C     0.12933   0.46727   0.34079   0.00000  Uiso   1.00
C296   C     0.11685   0.51543   0.28042   0.00000  Uiso   1.00
C297   C     0.18310   0.24946   0.36730   0.00000  Uiso   1.00
C298   C     0.14442   0.18792   0.40039   0.00000  Uiso   1.00
C299   C     0.13882   0.10833   0.36726   0.00000  Uiso   1.00
H300   H     0.27967   0.29524   0.22679   0.00000  Uiso   1.00
H301   H     0.39446   0.32315   0.28058   0.00000  Uiso   1.00
H302   H     0.21918   0.41853   0.16115   0.00000  Uiso   1.00
H303   H     0.23426   0.13923   0.22074   0.00000  Uiso   1.00
H304   H     0.50764   0.36177   0.36841   0.00000  Uiso   1.00
H305   H     0.13804   0.56286   0.11656   0.00000  Uiso   1.00
H306   H     0.16983   0.97389   0.24221   0.00000  Uiso   1.00
H307   H     0.17105   0.35414   0.44399   0.00000  Uiso   1.00
H308   H     0.27989   0.38528   0.50971   0.00000  Uiso   1.00
H309   H     0.10460   0.48066   0.39026   0.00000  Uiso   1.00
H310   H     0.11969   0.20136   0.44985   0.00000  Uiso   1.00
H311   H     0.41464   0.41220   0.55437   0.00000  Uiso   1.00
H312   H     0.04504   0.61328   0.30252   0.00000  Uiso   1.00
H313   H     0.07684   0.02433   0.42817   0.00000  Uiso   1.00
O314   O     0.53470   0.40644   0.50069   0.00000  Uiso   1.00
O315   O     0.04978   0.67024   0.17027   0.00000  Uiso   1.00
O316   O     0.09151   0.89754   0.33513   0.00000  Uiso   1.00
N317   N     0.47082   0.36935   0.40316   0.00000  Uiso   1.00
N318   N     0.12527   0.55736   0.16770   0.00000  Uiso   1.00
N319   N     0.15498   0.00674   0.28516   0.00000  Uiso   1.00
N320   N     0.42078   0.39648   0.50322   0.00000  Uiso   1.00
N321   N     0.07523   0.58450   0.26776   0.00000  Uiso   1.00
N322   N     0.10494   0.03387   0.38523   0.00000  Uiso   1.00
C323   C     0.75478   0.80873   0.27655   0.00000  Uiso   1.00
C324   C     0.80209   0.83205   0.33590   0.00000  Uiso   1.00
C325   C     0.86974   0.83656   0.33006   0.00000  Uiso   1.00
C326   C     0.90435   0.85905   0.39047   0.00000  Uiso   1.00
C327   C     0.98267   0.89267   0.47289   0.00000  Uiso   1.00
C328   C     0.70686   0.88389   0.27101   0.00000  Uiso   1.00
C329   C     0.69444   0.93196   0.21060   0.00000  Uiso   1.00
C330   C     0.64887   0.99807   0.21639   0.00000  Uiso   1.00
C331   C     0.57931   0.11211   0.19805   0.00000  Uiso   1.00
C332   C     0.71506   0.73213   0.30339   0.00000  Uiso   1.00
C333   C     0.70952   0.65262   0.27020   0.00000  Uiso   1.00
C334   C     0.67084   0.59096   0.30323   0.00000  Uiso   1.00
C335   C     0.61401   0.46939   0.33517   0.00000  Uiso   1.00
C336   C     0.69593   0.84064   0.39423   0.00000  Uiso   1.00
C337   C     0.77013   0.84939   0.39982   0.00000  Uiso   1.00
C338   C     0.80464   0.87187   0.46025   0.00000  Uiso   1.00
C339   C     0.87233   0.87641   0.45450   0.00000  Uiso   1.00
C340   C     0.67490   0.90122   0.33492   0.00000  Uiso   1.00
C341   C     0.62933   0.96727   0.34079   0.00000  Uiso   1.00
C342   C     0.61685   0.01543   0.28042   0.00000  Uiso   1.00
C343   C     0.68310   0.74946   0.36730   0.00000  Uiso   1.00
C344   C     0.64442   0.68792   0.40039   0.00000  Uiso   1.00
C345   C     0.63882   0.60833   0.36726   0.00000  Uiso   1.00
H346   H     0.77967   0.79524   0.22679   0.00000  Uiso   1.00
H347   H     0.89446   0.82315   0.28058   0.00000  Uiso   1.00
H348   H     0.71918   0.91853   0.16115   0.00000  Uiso   1.00
H349   H     0.73426   0.63923   0.22074   0.00000  Uiso   1.00
H350   H     0.00764   0.86177   0.36841   0.00000  Uiso   1.00
H351   H     0.63804   0.06286   0.11656   0.00000  Uiso   1.00
H352   H     0.66983   0.47389   0.24221   0.00000  Uiso   1.00
H353   H     0.67105   0.85414   0.44399   0.00000  Uiso   1.00
H354   H     0.77989   0.88528   0.50971   0.00000  Uiso   1.00
H355   H     0.60460   0.98066   0.39026   0.00000  Uiso   1.00
H356   H     0.61969   0.70136   0.44985   0.00000  Uiso   1.00
H357   H     0.91464   0.91220   0.55437   0.00000  Uiso   1.00
H358   H     0.54504   0.11328   0.30252   0.00000  Uiso   1.00
H359   H     0.57684   0.52433   0.42817   0.00000  Uiso   1.00
O360   O     0.03470   0.90644   0.50069   0.00000  Uiso   1.00
O361   O     0.54978   0.17024   0.17027   0.00000  Uiso   1.00
O362   O     0.59151   0.39754   0.33513   0.00000  Uiso   1.00
N363   N     0.97082   0.86935   0.40316   0.00000  Uiso   1.00
N364   N     0.62527   0.05736   0.16770   0.00000  Uiso   1.00
N365   N     0.65498   0.50674   0.28516   0.00000  Uiso   1.00
N366   N     0.92078   0.89648   0.50322   0.00000  Uiso   1.00
N367   N     0.57523   0.08450   0.26776   0.00000  Uiso   1.00
N368   N     0.60494   0.53387   0.38523   0.00000  Uiso   1.00
