data_job_05492
_audit_creation_date              2018-12-19
_audit_creation_method            'Materials Studio'
_symmetry_space_group_name_H-M    'P1'
_symmetry_Int_Tables_number       1
_symmetry_cell_setting            triclinic
loop_
_symmetry_equiv_pos_as_xyz
  x,y,z
_cell_length_a                    15.4456
_cell_length_b                    15.8876
_cell_length_c                    28.6472
_cell_angle_alpha                 90.0000
_cell_angle_beta                  90.0000
_cell_angle_gamma                 90.0000
loop_
_atom_site_label
_atom_site_type_symbol
_atom_site_fract_x
_atom_site_fract_y
_atom_site_fract_z
_atom_site_U_iso_or_equiv
_atom_site_adp_type
_atom_site_occupancy
C1     C     0.64031   0.44843   0.55552   0.00000  Uiso   1.00
C2     C     0.62135   0.51185   0.59414   0.00000  Uiso   1.00
C3     C     0.64186   0.59687   0.59312   0.00000  Uiso   1.00
C4     C     0.61909   0.64432   0.63192   0.00000  Uiso   1.00
C5     C     0.59605   0.74833   0.68606   0.00000  Uiso   1.00
C6     C     0.69342   0.37854   0.57813   0.00000  Uiso   1.00
C7     C     0.77451   0.35146   0.56364   0.00000  Uiso   1.00
C8     C     0.81238   0.28668   0.58896   0.00000  Uiso   1.00
C9     C     0.90119   0.18367   0.61822   0.00000  Uiso   1.00
C10    C     0.55345   0.40903   0.54276   0.00000  Uiso   1.00
C11    C     0.51687   0.40757   0.49851   0.00000  Uiso   1.00
C12    C     0.43692   0.36844   0.49405   0.00000  Uiso   1.00
C13    C     0.30842   0.31278   0.46838   0.00000  Uiso   1.00
C14    C     0.56339   0.38150   0.62625   0.00000  Uiso   1.00
C15    C     0.57957   0.47550   0.63256   0.00000  Uiso   1.00
C16    C     0.55676   0.52283   0.67138   0.00000  Uiso   1.00
C17    C     0.57723   0.60791   0.67041   0.00000  Uiso   1.00
C18    C     0.65164   0.34219   0.61655   0.00000  Uiso   1.00
C19    C     0.68940   0.27742   0.64189   0.00000  Uiso   1.00
C20    C     0.77053   0.25026   0.62745   0.00000  Uiso   1.00
C21    C     0.51167   0.37268   0.58117   0.00000  Uiso   1.00
C22    C     0.43176   0.33354   0.57677   0.00000  Uiso   1.00
C23    C     0.39506   0.33203   0.53253   0.00000  Uiso   1.00
H24    H     0.67284   0.47672   0.52561   0.00000  Uiso   1.00
H25    H     0.67421   0.62498   0.56338   0.00000  Uiso   1.00
H26    H     0.80682   0.37960   0.53391   0.00000  Uiso   1.00
H27    H     0.54922   0.43571   0.46879   0.00000  Uiso   1.00
H28    H     0.65732   0.77331   0.62221   0.00000  Uiso   1.00
H29    H     0.93693   0.25590   0.56005   0.00000  Uiso   1.00
H30    H     0.39374   0.37421   0.42274   0.00000  Uiso   1.00
H31    H     0.53086   0.35320   0.65616   0.00000  Uiso   1.00
H32    H     0.52443   0.49469   0.70110   0.00000  Uiso   1.00
H33    H     0.65705   0.24931   0.67162   0.00000  Uiso   1.00
H34    H     0.39945   0.30541   0.60651   0.00000  Uiso   1.00
H35    H     0.53576   0.66756   0.73399   0.00000  Uiso   1.00
H36    H     0.81537   0.15014   0.67182   0.00000  Uiso   1.00
H37    H     0.27218   0.26846   0.53452   0.00000  Uiso   1.00
O38    O     0.59490   0.81573   0.70531   0.00000  Uiso   1.00
O39    O     0.96173   0.13690   0.62375   0.00000  Uiso   1.00
O40    O     0.24908   0.29212   0.44361   0.00000  Uiso   1.00
N41    N     0.62958   0.72901   0.64235   0.00000  Uiso   1.00
N42    N     0.89101   0.24527   0.58423   0.00000  Uiso   1.00
N43    N     0.38318   0.35586   0.45586   0.00000  Uiso   1.00
N44    N     0.56416   0.67211   0.70249   0.00000  Uiso   1.00
N45    N     0.82559   0.18837   0.64438   0.00000  Uiso   1.00
N46    N     0.31776   0.29896   0.51601   0.00000  Uiso   1.00
C47    C     0.29697   0.94686   0.44332   0.00000  Uiso   1.00
C48    C     0.31550   0.01074   0.40487   0.00000  Uiso   1.00
C49    C     0.29444   0.09563   0.40613   0.00000  Uiso   1.00
C50    C     0.31691   0.14357   0.36746   0.00000  Uiso   1.00
C51    C     0.33927   0.24820   0.31361   0.00000  Uiso   1.00
C52    C     0.24431   0.87685   0.42051   0.00000  Uiso   1.00
C53    C     0.16340   0.84915   0.43493   0.00000  Uiso   1.00
C54    C     0.12594   0.78436   0.40943   0.00000  Uiso   1.00
C55    C     0.03780   0.68107   0.37988   0.00000  Uiso   1.00
C56    C     0.38408   0.90788   0.45597   0.00000  Uiso   1.00
C57    C     0.42067   0.90624   0.50020   0.00000  Uiso   1.00
C58    C     0.50088   0.86757   0.50456   0.00000  Uiso   1.00
C59    C     0.62974   0.81246   0.53007   0.00000  Uiso   1.00
C60    C     0.37431   0.88105   0.37240   0.00000  Uiso   1.00
C61    C     0.35751   0.97500   0.36635   0.00000  Uiso   1.00
C62    C     0.38002   0.02282   0.32767   0.00000  Uiso   1.00
C63    C     0.35900   0.10776   0.32887   0.00000  Uiso   1.00
C64    C     0.28632   0.84110   0.38199   0.00000  Uiso   1.00
C65    C     0.24897   0.77634   0.35647   0.00000  Uiso   1.00
C66    C     0.16802   0.74855   0.37084   0.00000  Uiso   1.00
C67    C     0.42609   0.87213   0.41745   0.00000  Uiso   1.00
C68    C     0.50625   0.83344   0.42174   0.00000  Uiso   1.00
C69    C     0.54296   0.83176   0.46597   0.00000  Uiso   1.00
H70    H     0.26425   0.97468   0.47330   0.00000  Uiso   1.00
H71    H     0.26192   0.12327   0.43594   0.00000  Uiso   1.00
H72    H     0.13091   0.87682   0.46474   0.00000  Uiso   1.00
H73    H     0.38814   0.93391   0.53000   0.00000  Uiso   1.00
H74    H     0.27784   0.27223   0.37753   0.00000  Uiso   1.00
H75    H     0.00160   0.75256   0.43826   0.00000  Uiso   1.00
H76    H     0.54402   0.87295   0.57588   0.00000  Uiso   1.00
H77    H     0.40702   0.85321   0.34241   0.00000  Uiso   1.00
H78    H     0.41253   0.99514   0.29786   0.00000  Uiso   1.00
H79    H     0.28151   0.74869   0.32666   0.00000  Uiso   1.00
H80    H     0.53874   0.80579   0.39193   0.00000  Uiso   1.00
H81    H     0.40007   0.16824   0.26546   0.00000  Uiso   1.00
H82    H     0.12383   0.64856   0.32619   0.00000  Uiso   1.00
H83    H     0.66626   0.76896   0.46381   0.00000  Uiso   1.00
O84    O     0.33998   0.31578   0.29454   0.00000  Uiso   1.00
O85    O     0.97756   0.63398   0.37423   0.00000  Uiso   1.00
O86    O     0.68922   0.79194   0.55478   0.00000  Uiso   1.00
N87    N     0.30587   0.22828   0.35727   0.00000  Uiso   1.00
N88    N     0.04759   0.74243   0.41404   0.00000  Uiso   1.00
N89    N     0.55470   0.85497   0.54271   0.00000  Uiso   1.00
N90    N     0.37164   0.17233   0.29696   0.00000  Uiso   1.00
N91    N     0.11336   0.68647   0.35374   0.00000  Uiso   1.00
N92    N     0.62048   0.79901   0.48241   0.00000  Uiso   1.00
C93    C     0.35969   0.55157   0.05552   0.00000  Uiso   1.00
C94    C     0.37865   0.48815   0.09414   0.00000  Uiso   1.00
C95    C     0.35814   0.40313   0.09312   0.00000  Uiso   1.00
C96    C     0.38091   0.35568   0.13192   0.00000  Uiso   1.00
C97    C     0.40395   0.25167   0.18606   0.00000  Uiso   1.00
C98    C     0.30658   0.62146   0.07813   0.00000  Uiso   1.00
C99    C     0.22549   0.64854   0.06364   0.00000  Uiso   1.00
C100   C     0.18762   0.71332   0.08896   0.00000  Uiso   1.00
C101   C     0.09881   0.81633   0.11822   0.00000  Uiso   1.00
C102   C     0.44655   0.59097   0.04276   0.00000  Uiso   1.00
C103   C     0.48313   0.59243   0.99851   0.00000  Uiso   1.00
C104   C     0.56308   0.63156   0.99405   0.00000  Uiso   1.00
C105   C     0.69158   0.68722   0.96838   0.00000  Uiso   1.00
C106   C     0.43661   0.61850   0.12625   0.00000  Uiso   1.00
C107   C     0.42043   0.52450   0.13256   0.00000  Uiso   1.00
C108   C     0.44324   0.47717   0.17138   0.00000  Uiso   1.00
C109   C     0.42277   0.39209   0.17041   0.00000  Uiso   1.00
C110   C     0.34836   0.65781   0.11655   0.00000  Uiso   1.00
C111   C     0.31060   0.72258   0.14189   0.00000  Uiso   1.00
C112   C     0.22947   0.74974   0.12745   0.00000  Uiso   1.00
C113   C     0.48833   0.62732   0.08117   0.00000  Uiso   1.00
C114   C     0.56824   0.66646   0.07677   0.00000  Uiso   1.00
C115   C     0.60494   0.66797   0.03253   0.00000  Uiso   1.00
H116   H     0.32716   0.52328   0.02561   0.00000  Uiso   1.00
H117   H     0.32579   0.37502   0.06338   0.00000  Uiso   1.00
H118   H     0.19318   0.62040   0.03391   0.00000  Uiso   1.00
H119   H     0.45078   0.56429   0.96879   0.00000  Uiso   1.00
H120   H     0.34268   0.22669   0.12221   0.00000  Uiso   1.00
H121   H     0.06307   0.74410   0.06005   0.00000  Uiso   1.00
H122   H     0.60626   0.62579   0.92274   0.00000  Uiso   1.00
H123   H     0.46914   0.64680   0.15616   0.00000  Uiso   1.00
H124   H     0.47557   0.50531   0.20110   0.00000  Uiso   1.00
H125   H     0.34295   0.75069   0.17162   0.00000  Uiso   1.00
H126   H     0.60055   0.69459   0.10651   0.00000  Uiso   1.00
H127   H     0.46424   0.33244   0.23399   0.00000  Uiso   1.00
H128   H     0.18463   0.84986   0.17182   0.00000  Uiso   1.00
H129   H     0.72782   0.73154   0.03452   0.00000  Uiso   1.00
O130   O     0.40510   0.18427   0.20531   0.00000  Uiso   1.00
O131   O     0.03827   0.86310   0.12375   0.00000  Uiso   1.00
O132   O     0.75092   0.70788   0.94361   0.00000  Uiso   1.00
N133   N     0.37042   0.27099   0.14235   0.00000  Uiso   1.00
N134   N     0.10899   0.75473   0.08423   0.00000  Uiso   1.00
N135   N     0.61682   0.64414   0.95586   0.00000  Uiso   1.00
N136   N     0.43584   0.32789   0.20249   0.00000  Uiso   1.00
N137   N     0.17441   0.81163   0.14438   0.00000  Uiso   1.00
N138   N     0.68224   0.70104   0.01601   0.00000  Uiso   1.00
C139   C     0.70303   0.05314   0.94332   0.00000  Uiso   1.00
C140   C     0.68450   0.98926   0.90487   0.00000  Uiso   1.00
C141   C     0.70556   0.90437   0.90613   0.00000  Uiso   1.00
C142   C     0.68309   0.85643   0.86746   0.00000  Uiso   1.00
C143   C     0.66073   0.75180   0.81361   0.00000  Uiso   1.00
C144   C     0.75569   0.12315   0.92051   0.00000  Uiso   1.00
C145   C     0.83660   0.15085   0.93493   0.00000  Uiso   1.00
C146   C     0.87406   0.21564   0.90943   0.00000  Uiso   1.00
C147   C     0.96220   0.31893   0.87988   0.00000  Uiso   1.00
C148   C     0.61592   0.09212   0.95597   0.00000  Uiso   1.00
C149   C     0.57933   0.09376   0.00020   0.00000  Uiso   1.00
C150   C     0.49912   0.13243   0.00456   0.00000  Uiso   1.00
C151   C     0.37026   0.18754   0.03007   0.00000  Uiso   1.00
C152   C     0.62569   0.11895   0.87240   0.00000  Uiso   1.00
C153   C     0.64249   0.02500   0.86635   0.00000  Uiso   1.00
C154   C     0.61998   0.97718   0.82767   0.00000  Uiso   1.00
C155   C     0.64100   0.89224   0.82887   0.00000  Uiso   1.00
C156   C     0.71368   0.15890   0.88199   0.00000  Uiso   1.00
C157   C     0.75103   0.22366   0.85647   0.00000  Uiso   1.00
C158   C     0.83198   0.25145   0.87084   0.00000  Uiso   1.00
C159   C     0.57391   0.12787   0.91745   0.00000  Uiso   1.00
C160   C     0.49375   0.16656   0.92174   0.00000  Uiso   1.00
C161   C     0.45704   0.16824   0.96597   0.00000  Uiso   1.00
H162   H     0.73575   0.02532   0.97330   0.00000  Uiso   1.00
H163   H     0.73808   0.87673   0.93594   0.00000  Uiso   1.00
H164   H     0.86909   0.12318   0.96474   0.00000  Uiso   1.00
H165   H     0.61186   0.06609   0.03000   0.00000  Uiso   1.00
H166   H     0.72216   0.72777   0.87753   0.00000  Uiso   1.00
H167   H     0.99840   0.24744   0.93826   0.00000  Uiso   1.00
H168   H     0.45598   0.12705   0.07588   0.00000  Uiso   1.00
H169   H     0.59298   0.14679   0.84241   0.00000  Uiso   1.00
H170   H     0.58747   0.00486   0.79786   0.00000  Uiso   1.00
H171   H     0.71849   0.25131   0.82666   0.00000  Uiso   1.00
H172   H     0.46126   0.19421   0.89193   0.00000  Uiso   1.00
H173   H     0.59993   0.83176   0.76546   0.00000  Uiso   1.00
H174   H     0.87617   0.35144   0.82619   0.00000  Uiso   1.00
H175   H     0.33374   0.23104   0.96381   0.00000  Uiso   1.00
O176   O     0.66002   0.68422   0.79454   0.00000  Uiso   1.00
O177   O     0.02244   0.36602   0.87423   0.00000  Uiso   1.00
O178   O     0.31078   0.20806   0.05478   0.00000  Uiso   1.00
N179   N     0.69413   0.77172   0.85727   0.00000  Uiso   1.00
N180   N     0.95241   0.25757   0.91404   0.00000  Uiso   1.00
N181   N     0.44530   0.14503   0.04271   0.00000  Uiso   1.00
N182   N     0.62836   0.82767   0.79696   0.00000  Uiso   1.00
N183   N     0.88664   0.31353   0.85374   0.00000  Uiso   1.00
N184   N     0.37952   0.20099   0.98241   0.00000  Uiso   1.00
C185   C     0.14031   0.55157   0.55552   0.00000  Uiso   1.00
C186   C     0.12135   0.48815   0.59414   0.00000  Uiso   1.00
C187   C     0.14186   0.40313   0.59312   0.00000  Uiso   1.00
C188   C     0.11909   0.35568   0.63192   0.00000  Uiso   1.00
C189   C     0.09605   0.25167   0.68606   0.00000  Uiso   1.00
C190   C     0.19342   0.62146   0.57813   0.00000  Uiso   1.00
C191   C     0.27451   0.64854   0.56364   0.00000  Uiso   1.00
C192   C     0.31238   0.71332   0.58896   0.00000  Uiso   1.00
C193   C     0.40119   0.81633   0.61822   0.00000  Uiso   1.00
C194   C     0.05345   0.59097   0.54276   0.00000  Uiso   1.00
C195   C     0.01687   0.59243   0.49851   0.00000  Uiso   1.00
C196   C     0.93692   0.63156   0.49405   0.00000  Uiso   1.00
C197   C     0.80842   0.68722   0.46838   0.00000  Uiso   1.00
C198   C     0.06339   0.61850   0.62625   0.00000  Uiso   1.00
C199   C     0.07957   0.52450   0.63256   0.00000  Uiso   1.00
C200   C     0.05676   0.47717   0.67138   0.00000  Uiso   1.00
C201   C     0.07723   0.39209   0.67041   0.00000  Uiso   1.00
C202   C     0.15164   0.65781   0.61655   0.00000  Uiso   1.00
C203   C     0.18940   0.72258   0.64189   0.00000  Uiso   1.00
C204   C     0.27053   0.74974   0.62745   0.00000  Uiso   1.00
C205   C     0.01167   0.62732   0.58117   0.00000  Uiso   1.00
C206   C     0.93176   0.66646   0.57677   0.00000  Uiso   1.00
C207   C     0.89506   0.66797   0.53253   0.00000  Uiso   1.00
H208   H     0.17284   0.52328   0.52561   0.00000  Uiso   1.00
H209   H     0.17421   0.37502   0.56338   0.00000  Uiso   1.00
H210   H     0.30682   0.62040   0.53391   0.00000  Uiso   1.00
H211   H     0.04922   0.56429   0.46879   0.00000  Uiso   1.00
H212   H     0.15732   0.22669   0.62221   0.00000  Uiso   1.00
H213   H     0.43693   0.74410   0.56005   0.00000  Uiso   1.00
H214   H     0.89374   0.62579   0.42274   0.00000  Uiso   1.00
H215   H     0.03086   0.64680   0.65616   0.00000  Uiso   1.00
H216   H     0.02443   0.50531   0.70110   0.00000  Uiso   1.00
H217   H     0.15705   0.75069   0.67162   0.00000  Uiso   1.00
H218   H     0.89945   0.69459   0.60651   0.00000  Uiso   1.00
H219   H     0.03576   0.33244   0.73399   0.00000  Uiso   1.00
H220   H     0.31537   0.84986   0.67182   0.00000  Uiso   1.00
H221   H     0.77218   0.73154   0.53452   0.00000  Uiso   1.00
O222   O     0.09490   0.18427   0.70531   0.00000  Uiso   1.00
O223   O     0.46173   0.86310   0.62375   0.00000  Uiso   1.00
O224   O     0.74908   0.70788   0.44361   0.00000  Uiso   1.00
N225   N     0.12958   0.27099   0.64235   0.00000  Uiso   1.00
N226   N     0.39101   0.75473   0.58423   0.00000  Uiso   1.00
N227   N     0.88318   0.64414   0.45586   0.00000  Uiso   1.00
N228   N     0.06416   0.32789   0.70249   0.00000  Uiso   1.00
N229   N     0.32559   0.81163   0.64438   0.00000  Uiso   1.00
N230   N     0.81776   0.70104   0.51601   0.00000  Uiso   1.00
C231   C     0.79697   0.05314   0.44332   0.00000  Uiso   1.00
C232   C     0.81550   0.98926   0.40487   0.00000  Uiso   1.00
C233   C     0.79444   0.90437   0.40613   0.00000  Uiso   1.00
C234   C     0.81691   0.85643   0.36746   0.00000  Uiso   1.00
C235   C     0.83927   0.75180   0.31361   0.00000  Uiso   1.00
C236   C     0.74431   0.12315   0.42051   0.00000  Uiso   1.00
C237   C     0.66340   0.15085   0.43493   0.00000  Uiso   1.00
C238   C     0.62594   0.21564   0.40943   0.00000  Uiso   1.00
C239   C     0.53780   0.31893   0.37988   0.00000  Uiso   1.00
C240   C     0.88408   0.09212   0.45597   0.00000  Uiso   1.00
C241   C     0.92067   0.09376   0.50020   0.00000  Uiso   1.00
C242   C     0.00088   0.13243   0.50456   0.00000  Uiso   1.00
C243   C     0.12974   0.18754   0.53007   0.00000  Uiso   1.00
C244   C     0.87431   0.11895   0.37240   0.00000  Uiso   1.00
C245   C     0.85751   0.02500   0.36635   0.00000  Uiso   1.00
C246   C     0.88002   0.97718   0.32767   0.00000  Uiso   1.00
C247   C     0.85900   0.89224   0.32887   0.00000  Uiso   1.00
C248   C     0.78632   0.15890   0.38199   0.00000  Uiso   1.00
C249   C     0.74897   0.22366   0.35647   0.00000  Uiso   1.00
C250   C     0.66802   0.25145   0.37084   0.00000  Uiso   1.00
C251   C     0.92609   0.12787   0.41745   0.00000  Uiso   1.00
C252   C     0.00625   0.16656   0.42174   0.00000  Uiso   1.00
C253   C     0.04296   0.16824   0.46597   0.00000  Uiso   1.00
H254   H     0.76425   0.02532   0.47330   0.00000  Uiso   1.00
H255   H     0.76192   0.87673   0.43594   0.00000  Uiso   1.00
H256   H     0.63091   0.12318   0.46474   0.00000  Uiso   1.00
H257   H     0.88814   0.06609   0.53000   0.00000  Uiso   1.00
H258   H     0.77784   0.72777   0.37753   0.00000  Uiso   1.00
H259   H     0.50160   0.24744   0.43826   0.00000  Uiso   1.00
H260   H     0.04402   0.12705   0.57588   0.00000  Uiso   1.00
H261   H     0.90702   0.14679   0.34241   0.00000  Uiso   1.00
H262   H     0.91253   0.00486   0.29786   0.00000  Uiso   1.00
H263   H     0.78151   0.25131   0.32666   0.00000  Uiso   1.00
H264   H     0.03874   0.19421   0.39193   0.00000  Uiso   1.00
H265   H     0.90007   0.83176   0.26546   0.00000  Uiso   1.00
H266   H     0.62383   0.35144   0.32619   0.00000  Uiso   1.00
H267   H     0.16626   0.23104   0.46381   0.00000  Uiso   1.00
O268   O     0.83998   0.68422   0.29454   0.00000  Uiso   1.00
O269   O     0.47756   0.36602   0.37423   0.00000  Uiso   1.00
O270   O     0.18922   0.20806   0.55478   0.00000  Uiso   1.00
N271   N     0.80587   0.77172   0.35727   0.00000  Uiso   1.00
N272   N     0.54759   0.25757   0.41404   0.00000  Uiso   1.00
N273   N     0.05470   0.14503   0.54271   0.00000  Uiso   1.00
N274   N     0.87164   0.82767   0.29696   0.00000  Uiso   1.00
N275   N     0.61336   0.31353   0.35374   0.00000  Uiso   1.00
N276   N     0.12048   0.20099   0.48241   0.00000  Uiso   1.00
C277   C     0.85969   0.44843   0.05552   0.00000  Uiso   1.00
C278   C     0.87865   0.51185   0.09414   0.00000  Uiso   1.00
C279   C     0.85814   0.59687   0.09312   0.00000  Uiso   1.00
C280   C     0.88091   0.64432   0.13192   0.00000  Uiso   1.00
C281   C     0.90395   0.74833   0.18606   0.00000  Uiso   1.00
C282   C     0.80658   0.37854   0.07813   0.00000  Uiso   1.00
C283   C     0.72549   0.35146   0.06364   0.00000  Uiso   1.00
C284   C     0.68762   0.28668   0.08896   0.00000  Uiso   1.00
C285   C     0.59881   0.18367   0.11822   0.00000  Uiso   1.00
C286   C     0.94655   0.40903   0.04276   0.00000  Uiso   1.00
C287   C     0.98313   0.40757   0.99851   0.00000  Uiso   1.00
C288   C     0.06308   0.36844   0.99405   0.00000  Uiso   1.00
C289   C     0.19158   0.31278   0.96838   0.00000  Uiso   1.00
C290   C     0.93661   0.38150   0.12625   0.00000  Uiso   1.00
C291   C     0.92043   0.47550   0.13256   0.00000  Uiso   1.00
C292   C     0.94324   0.52283   0.17138   0.00000  Uiso   1.00
C293   C     0.92277   0.60791   0.17041   0.00000  Uiso   1.00
C294   C     0.84836   0.34219   0.11655   0.00000  Uiso   1.00
C295   C     0.81060   0.27742   0.14189   0.00000  Uiso   1.00
C296   C     0.72947   0.25026   0.12745   0.00000  Uiso   1.00
C297   C     0.98833   0.37268   0.08117   0.00000  Uiso   1.00
C298   C     0.06824   0.33354   0.07677   0.00000  Uiso   1.00
C299   C     0.10494   0.33203   0.03253   0.00000  Uiso   1.00
H300   H     0.82716   0.47672   0.02561   0.00000  Uiso   1.00
H301   H     0.82579   0.62498   0.06338   0.00000  Uiso   1.00
H302   H     0.69318   0.37960   0.03391   0.00000  Uiso   1.00
H303   H     0.95078   0.43571   0.96879   0.00000  Uiso   1.00
H304   H     0.84268   0.77331   0.12221   0.00000  Uiso   1.00
H305   H     0.56307   0.25590   0.06005   0.00000  Uiso   1.00
H306   H     0.10626   0.37421   0.92274   0.00000  Uiso   1.00
H307   H     0.96914   0.35320   0.15616   0.00000  Uiso   1.00
H308   H     0.97557   0.49469   0.20110   0.00000  Uiso   1.00
H309   H     0.84295   0.24931   0.17162   0.00000  Uiso   1.00
H310   H     0.10055   0.30541   0.10651   0.00000  Uiso   1.00
H311   H     0.96424   0.66756   0.23399   0.00000  Uiso   1.00
H312   H     0.68463   0.15014   0.17182   0.00000  Uiso   1.00
H313   H     0.22782   0.26846   0.03452   0.00000  Uiso   1.00
O314   O     0.90510   0.81573   0.20531   0.00000  Uiso   1.00
O315   O     0.53827   0.13690   0.12375   0.00000  Uiso   1.00
O316   O     0.25092   0.29212   0.94361   0.00000  Uiso   1.00
N317   N     0.87042   0.72901   0.14235   0.00000  Uiso   1.00
N318   N     0.60899   0.24527   0.08423   0.00000  Uiso   1.00
N319   N     0.11682   0.35586   0.95586   0.00000  Uiso   1.00
N320   N     0.93584   0.67211   0.20249   0.00000  Uiso   1.00
N321   N     0.67441   0.18837   0.14438   0.00000  Uiso   1.00
N322   N     0.18224   0.29896   0.01601   0.00000  Uiso   1.00
C323   C     0.20303   0.94686   0.94332   0.00000  Uiso   1.00
C324   C     0.18450   0.01074   0.90487   0.00000  Uiso   1.00
C325   C     0.20556   0.09563   0.90613   0.00000  Uiso   1.00
C326   C     0.18309   0.14357   0.86746   0.00000  Uiso   1.00
C327   C     0.16073   0.24820   0.81361   0.00000  Uiso   1.00
C328   C     0.25569   0.87685   0.92051   0.00000  Uiso   1.00
C329   C     0.33660   0.84915   0.93493   0.00000  Uiso   1.00
C330   C     0.37406   0.78436   0.90943   0.00000  Uiso   1.00
C331   C     0.46220   0.68107   0.87988   0.00000  Uiso   1.00
C332   C     0.11592   0.90788   0.95597   0.00000  Uiso   1.00
C333   C     0.07933   0.90624   0.00020   0.00000  Uiso   1.00
C334   C     0.99912   0.86757   0.00456   0.00000  Uiso   1.00
C335   C     0.87026   0.81246   0.03007   0.00000  Uiso   1.00
C336   C     0.12569   0.88105   0.87240   0.00000  Uiso   1.00
C337   C     0.14249   0.97500   0.86635   0.00000  Uiso   1.00
C338   C     0.11998   0.02282   0.82767   0.00000  Uiso   1.00
C339   C     0.14100   0.10776   0.82887   0.00000  Uiso   1.00
C340   C     0.21368   0.84110   0.88199   0.00000  Uiso   1.00
C341   C     0.25103   0.77634   0.85647   0.00000  Uiso   1.00
C342   C     0.33198   0.74855   0.87084   0.00000  Uiso   1.00
C343   C     0.07391   0.87213   0.91745   0.00000  Uiso   1.00
C344   C     0.99375   0.83344   0.92174   0.00000  Uiso   1.00
C345   C     0.95704   0.83176   0.96597   0.00000  Uiso   1.00
H346   H     0.23575   0.97468   0.97330   0.00000  Uiso   1.00
H347   H     0.23808   0.12327   0.93594   0.00000  Uiso   1.00
H348   H     0.36909   0.87682   0.96474   0.00000  Uiso   1.00
H349   H     0.11186   0.93391   0.03000   0.00000  Uiso   1.00
H350   H     0.22216   0.27223   0.87753   0.00000  Uiso   1.00
H351   H     0.49840   0.75256   0.93826   0.00000  Uiso   1.00
H352   H     0.95598   0.87295   0.07588   0.00000  Uiso   1.00
H353   H     0.09298   0.85321   0.84241   0.00000  Uiso   1.00
H354   H     0.08747   0.99514   0.79786   0.00000  Uiso   1.00
H355   H     0.21849   0.74869   0.82666   0.00000  Uiso   1.00
H356   H     0.96126   0.80579   0.89193   0.00000  Uiso   1.00
H357   H     0.09993   0.16824   0.76546   0.00000  Uiso   1.00
H358   H     0.37617   0.64856   0.82619   0.00000  Uiso   1.00
H359   H     0.83374   0.76896   0.96381   0.00000  Uiso   1.00
O360   O     0.16002   0.31578   0.79454   0.00000  Uiso   1.00
O361   O     0.52244   0.63398   0.87423   0.00000  Uiso   1.00
O362   O     0.81078   0.79194   0.05478   0.00000  Uiso   1.00
N363   N     0.19413   0.22828   0.85727   0.00000  Uiso   1.00
N364   N     0.45241   0.74243   0.91404   0.00000  Uiso   1.00
N365   N     0.94530   0.85497   0.04271   0.00000  Uiso   1.00
N366   N     0.12836   0.17233   0.79696   0.00000  Uiso   1.00
N367   N     0.38664   0.68647   0.85374   0.00000  Uiso   1.00
N368   N     0.87952   0.79901   0.98241   0.00000  Uiso   1.00
