data_job_02031
_audit_creation_date              2018-12-19
_audit_creation_method            'Materials Studio'
_symmetry_space_group_name_H-M    'P1'
_symmetry_Int_Tables_number       1
_symmetry_cell_setting            triclinic
loop_
_symmetry_equiv_pos_as_xyz
  x,y,z
_cell_length_a                    22.8720
_cell_length_b                    11.4514
_cell_length_c                    13.4734
_cell_angle_alpha                 90.0000
_cell_angle_beta                  126.0630
_cell_angle_gamma                 90.0000
loop_
_atom_site_label
_atom_site_type_symbol
_atom_site_fract_x
_atom_site_fract_y
_atom_site_fract_z
_atom_site_U_iso_or_equiv
_atom_site_adp_type
_atom_site_occupancy
C1     C     0.31361   0.60688   0.83264   0.00000  Uiso   1.00
C2     C     0.30525   0.52984   0.73268   0.00000  Uiso   1.00
C3     C     0.30306   0.40870   0.73014   0.00000  Uiso   1.00
C4     C     0.29513   0.35441   0.63073   0.00000  Uiso   1.00
C5     C     0.28302   0.22495   0.48977   0.00000  Uiso   1.00
C6     C     0.37980   0.68310   0.87972   0.00000  Uiso   1.00
C7     C     0.44028   0.69084   0.00082   0.00000  Uiso   1.00
C8     C     0.49510   0.76557   0.02518   0.00000  Uiso   1.00
C9     C     0.59871   0.87412   0.11251   0.00000  Uiso   1.00
C10    C     0.24880   0.68924   0.76762   0.00000  Uiso   1.00
C11    C     0.19915   0.70216   0.79447   0.00000  Uiso   1.00
C12    C     0.14369   0.78209   0.72446   0.00000  Uiso   1.00
C13    C     0.04391   0.90017   0.63774   0.00000  Uiso   1.00
C14    C     0.30341   0.72586   0.66060   0.00000  Uiso   1.00
C15    C     0.29971   0.59447   0.63924   0.00000  Uiso   1.00
C16    C     0.29178   0.54034   0.53980   0.00000  Uiso   1.00
C17    C     0.28958   0.41915   0.53711   0.00000  Uiso   1.00
C18    C     0.37426   0.74773   0.78628   0.00000  Uiso   1.00
C19    C     0.42900   0.82248   0.81047   0.00000  Uiso   1.00
C20    C     0.48956   0.83032   0.93156   0.00000  Uiso   1.00
C21    C     0.24326   0.75387   0.67417   0.00000  Uiso   1.00
C22    C     0.18787   0.83380   0.60412   0.00000  Uiso   1.00
C23    C     0.13814   0.84684   0.63085   0.00000  Uiso   1.00
H24    H     0.31792   0.55657   0.90540   0.00000  Uiso   1.00
H25    H     0.30735   0.35872   0.80248   0.00000  Uiso   1.00
H26    H     0.44455   0.64082   0.07311   0.00000  Uiso   1.00
H27    H     0.20346   0.65214   0.86679   0.00000  Uiso   1.00
H28    H     0.29322   0.16787   0.64720   0.00000  Uiso   1.00
H29    H     0.58249   0.76272   0.21784   0.00000  Uiso   1.00
H30    H     0.07410   0.78659   0.78278   0.00000  Uiso   1.00
H31    H     0.29910   0.77618   0.58784   0.00000  Uiso   1.00
H32    H     0.28750   0.59038   0.46750   0.00000  Uiso   1.00
H33    H     0.42470   0.87248   0.73813   0.00000  Uiso   1.00
H34    H     0.18360   0.88380   0.53181   0.00000  Uiso   1.00
H35    H     0.27710   0.35589   0.37531   0.00000  Uiso   1.00
H36    H     0.56638   0.95075   0.94596   0.00000  Uiso   1.00
H37    H     0.05799   0.97461   0.51089   0.00000  Uiso   1.00
O38    O     0.27789   0.13569   0.43784   0.00000  Uiso   1.00
O39    O     0.65740   0.91613   0.18651   0.00000  Uiso   1.00
O40    O     0.99040   0.94744   0.61571   0.00000  Uiso   1.00
N41    N     0.29100   0.23762   0.59971   0.00000  Uiso   1.00
N42    N     0.56146   0.79376   0.13323   0.00000  Uiso   1.00
N43    N     0.08617   0.81609   0.72650   0.00000  Uiso   1.00
N44    N     0.28233   0.33879   0.45341   0.00000  Uiso   1.00
N45    N     0.55279   0.89493   0.98693   0.00000  Uiso   1.00
N46    N     0.07750   0.91727   0.58020   0.00000  Uiso   1.00
C47    C     0.68639   0.10688   0.66736   0.00000  Uiso   1.00
C48    C     0.69475   0.02984   0.76732   0.00000  Uiso   1.00
C49    C     0.69694   0.90870   0.76986   0.00000  Uiso   1.00
C50    C     0.70487   0.85441   0.86927   0.00000  Uiso   1.00
C51    C     0.71698   0.72495   0.01023   0.00000  Uiso   1.00
C52    C     0.62020   0.18310   0.62028   0.00000  Uiso   1.00
C53    C     0.55972   0.19084   0.49918   0.00000  Uiso   1.00
C54    C     0.50490   0.26557   0.47482   0.00000  Uiso   1.00
C55    C     0.40129   0.37412   0.38749   0.00000  Uiso   1.00
C56    C     0.75120   0.18924   0.73238   0.00000  Uiso   1.00
C57    C     0.80085   0.20216   0.70553   0.00000  Uiso   1.00
C58    C     0.85631   0.28209   0.77554   0.00000  Uiso   1.00
C59    C     0.95609   0.40017   0.86226   0.00000  Uiso   1.00
C60    C     0.69659   0.22586   0.83940   0.00000  Uiso   1.00
C61    C     0.70029   0.09447   0.86076   0.00000  Uiso   1.00
C62    C     0.70822   0.04034   0.96020   0.00000  Uiso   1.00
C63    C     0.71042   0.91915   0.96289   0.00000  Uiso   1.00
C64    C     0.62574   0.24773   0.71372   0.00000  Uiso   1.00
C65    C     0.57100   0.32248   0.68953   0.00000  Uiso   1.00
C66    C     0.51044   0.33032   0.56844   0.00000  Uiso   1.00
C67    C     0.75674   0.25387   0.82583   0.00000  Uiso   1.00
C68    C     0.81213   0.33380   0.89588   0.00000  Uiso   1.00
C69    C     0.86186   0.34684   0.86915   0.00000  Uiso   1.00
H70    H     0.68208   0.05657   0.59460   0.00000  Uiso   1.00
H71    H     0.69265   0.85872   0.69752   0.00000  Uiso   1.00
H72    H     0.55545   0.14082   0.42689   0.00000  Uiso   1.00
H73    H     0.79654   0.15214   0.63321   0.00000  Uiso   1.00
H74    H     0.70678   0.66787   0.85280   0.00000  Uiso   1.00
H75    H     0.41751   0.26272   0.28216   0.00000  Uiso   1.00
H76    H     0.92590   0.28659   0.71722   0.00000  Uiso   1.00
H77    H     0.70090   0.27618   0.91216   0.00000  Uiso   1.00
H78    H     0.71250   0.09038   0.03250   0.00000  Uiso   1.00
H79    H     0.57530   0.37248   0.76187   0.00000  Uiso   1.00
H80    H     0.81640   0.38380   0.96819   0.00000  Uiso   1.00
H81    H     0.72290   0.85589   0.12469   0.00000  Uiso   1.00
H82    H     0.43362   0.45075   0.55404   0.00000  Uiso   1.00
H83    H     0.94201   0.47461   0.98911   0.00000  Uiso   1.00
O84    O     0.72211   0.63569   0.06216   0.00000  Uiso   1.00
O85    O     0.34260   0.41613   0.31349   0.00000  Uiso   1.00
O86    O     0.00960   0.44744   0.88429   0.00000  Uiso   1.00
N87    N     0.70900   0.73762   0.90029   0.00000  Uiso   1.00
N88    N     0.43854   0.29376   0.36677   0.00000  Uiso   1.00
N89    N     0.91383   0.31609   0.77350   0.00000  Uiso   1.00
N90    N     0.71767   0.83879   0.04659   0.00000  Uiso   1.00
N91    N     0.44721   0.39493   0.51307   0.00000  Uiso   1.00
N92    N     0.92250   0.41727   0.91980   0.00000  Uiso   1.00
C93    C     0.68639   0.39312   0.16736   0.00000  Uiso   1.00
C94    C     0.69475   0.47016   0.26732   0.00000  Uiso   1.00
C95    C     0.69694   0.59130   0.26986   0.00000  Uiso   1.00
C96    C     0.70487   0.64559   0.36927   0.00000  Uiso   1.00
C97    C     0.71698   0.77505   0.51023   0.00000  Uiso   1.00
C98    C     0.62020   0.31690   0.12028   0.00000  Uiso   1.00
C99    C     0.55972   0.30916   0.99918   0.00000  Uiso   1.00
C100   C     0.50490   0.23443   0.97482   0.00000  Uiso   1.00
C101   C     0.40129   0.12588   0.88749   0.00000  Uiso   1.00
C102   C     0.75120   0.31076   0.23238   0.00000  Uiso   1.00
C103   C     0.80085   0.29784   0.20553   0.00000  Uiso   1.00
C104   C     0.85631   0.21791   0.27554   0.00000  Uiso   1.00
C105   C     0.95609   0.09983   0.36226   0.00000  Uiso   1.00
C106   C     0.69659   0.27414   0.33940   0.00000  Uiso   1.00
C107   C     0.70029   0.40553   0.36076   0.00000  Uiso   1.00
C108   C     0.70822   0.45966   0.46020   0.00000  Uiso   1.00
C109   C     0.71042   0.58085   0.46289   0.00000  Uiso   1.00
C110   C     0.62574   0.25227   0.21372   0.00000  Uiso   1.00
C111   C     0.57100   0.17752   0.18953   0.00000  Uiso   1.00
C112   C     0.51044   0.16968   0.06844   0.00000  Uiso   1.00
C113   C     0.75674   0.24613   0.32583   0.00000  Uiso   1.00
C114   C     0.81213   0.16620   0.39588   0.00000  Uiso   1.00
C115   C     0.86186   0.15316   0.36915   0.00000  Uiso   1.00
H116   H     0.68208   0.44343   0.09460   0.00000  Uiso   1.00
H117   H     0.69265   0.64128   0.19752   0.00000  Uiso   1.00
H118   H     0.55545   0.35918   0.92689   0.00000  Uiso   1.00
H119   H     0.79654   0.34786   0.13321   0.00000  Uiso   1.00
H120   H     0.70678   0.83213   0.35280   0.00000  Uiso   1.00
H121   H     0.41751   0.23728   0.78216   0.00000  Uiso   1.00
H122   H     0.92590   0.21341   0.21722   0.00000  Uiso   1.00
H123   H     0.70090   0.22382   0.41216   0.00000  Uiso   1.00
H124   H     0.71250   0.40962   0.53250   0.00000  Uiso   1.00
H125   H     0.57530   0.12752   0.26187   0.00000  Uiso   1.00
H126   H     0.81640   0.11620   0.46819   0.00000  Uiso   1.00
H127   H     0.72290   0.64411   0.62469   0.00000  Uiso   1.00
H128   H     0.43362   0.04925   0.05404   0.00000  Uiso   1.00
H129   H     0.94201   0.02539   0.48911   0.00000  Uiso   1.00
O130   O     0.72211   0.86431   0.56216   0.00000  Uiso   1.00
O131   O     0.34260   0.08387   0.81349   0.00000  Uiso   1.00
O132   O     0.00960   0.05256   0.38429   0.00000  Uiso   1.00
N133   N     0.70900   0.76238   0.40029   0.00000  Uiso   1.00
N134   N     0.43854   0.20624   0.86677   0.00000  Uiso   1.00
N135   N     0.91383   0.18391   0.27350   0.00000  Uiso   1.00
N136   N     0.71767   0.66121   0.54659   0.00000  Uiso   1.00
N137   N     0.44721   0.10507   0.01307   0.00000  Uiso   1.00
N138   N     0.92250   0.08273   0.41980   0.00000  Uiso   1.00
C139   C     0.31361   0.89312   0.33264   0.00000  Uiso   1.00
C140   C     0.30525   0.97016   0.23268   0.00000  Uiso   1.00
C141   C     0.30306   0.09130   0.23014   0.00000  Uiso   1.00
C142   C     0.29513   0.14559   0.13073   0.00000  Uiso   1.00
C143   C     0.28302   0.27505   0.98977   0.00000  Uiso   1.00
C144   C     0.37980   0.81690   0.37972   0.00000  Uiso   1.00
C145   C     0.44028   0.80916   0.50082   0.00000  Uiso   1.00
C146   C     0.49510   0.73443   0.52518   0.00000  Uiso   1.00
C147   C     0.59871   0.62588   0.61251   0.00000  Uiso   1.00
C148   C     0.24880   0.81076   0.26762   0.00000  Uiso   1.00
C149   C     0.19915   0.79784   0.29447   0.00000  Uiso   1.00
C150   C     0.14369   0.71791   0.22446   0.00000  Uiso   1.00
C151   C     0.04391   0.59983   0.13774   0.00000  Uiso   1.00
C152   C     0.30341   0.77414   0.16060   0.00000  Uiso   1.00
C153   C     0.29971   0.90553   0.13924   0.00000  Uiso   1.00
C154   C     0.29178   0.95966   0.03980   0.00000  Uiso   1.00
C155   C     0.28958   0.08085   0.03711   0.00000  Uiso   1.00
C156   C     0.37426   0.75227   0.28628   0.00000  Uiso   1.00
C157   C     0.42900   0.67752   0.31047   0.00000  Uiso   1.00
C158   C     0.48956   0.66968   0.43156   0.00000  Uiso   1.00
C159   C     0.24326   0.74613   0.17417   0.00000  Uiso   1.00
C160   C     0.18787   0.66620   0.10412   0.00000  Uiso   1.00
C161   C     0.13814   0.65316   0.13085   0.00000  Uiso   1.00
H162   H     0.31792   0.94343   0.40540   0.00000  Uiso   1.00
H163   H     0.30735   0.14128   0.30248   0.00000  Uiso   1.00
H164   H     0.44455   0.85918   0.57311   0.00000  Uiso   1.00
H165   H     0.20346   0.84786   0.36679   0.00000  Uiso   1.00
H166   H     0.29322   0.33213   0.14720   0.00000  Uiso   1.00
H167   H     0.58249   0.73728   0.71784   0.00000  Uiso   1.00
H168   H     0.07410   0.71341   0.28278   0.00000  Uiso   1.00
H169   H     0.29910   0.72382   0.08784   0.00000  Uiso   1.00
H170   H     0.28750   0.90962   0.96750   0.00000  Uiso   1.00
H171   H     0.42470   0.62752   0.23813   0.00000  Uiso   1.00
H172   H     0.18360   0.61620   0.03181   0.00000  Uiso   1.00
H173   H     0.27710   0.14411   0.87531   0.00000  Uiso   1.00
H174   H     0.56638   0.54925   0.44596   0.00000  Uiso   1.00
H175   H     0.05799   0.52539   0.01089   0.00000  Uiso   1.00
O176   O     0.27789   0.36431   0.93784   0.00000  Uiso   1.00
O177   O     0.65740   0.58387   0.68651   0.00000  Uiso   1.00
O178   O     0.99040   0.55256   0.11571   0.00000  Uiso   1.00
N179   N     0.29100   0.26238   0.09971   0.00000  Uiso   1.00
N180   N     0.56146   0.70624   0.63323   0.00000  Uiso   1.00
N181   N     0.08617   0.68391   0.22650   0.00000  Uiso   1.00
N182   N     0.28233   0.16121   0.95341   0.00000  Uiso   1.00
N183   N     0.55279   0.60507   0.48693   0.00000  Uiso   1.00
N184   N     0.07750   0.58273   0.08020   0.00000  Uiso   1.00
