data_job_00692
_audit_creation_date              2018-12-19
_audit_creation_method            'Materials Studio'
_symmetry_space_group_name_H-M    'P1'
_symmetry_Int_Tables_number       1
_symmetry_cell_setting            triclinic
loop_
_symmetry_equiv_pos_as_xyz
  x,y,z
_cell_length_a                    14.1867
_cell_length_b                    12.4051
_cell_length_c                    25.4216
_cell_angle_alpha                 90.0000
_cell_angle_beta                  90.0000
_cell_angle_gamma                 90.0000
loop_
_atom_site_label
_atom_site_type_symbol
_atom_site_fract_x
_atom_site_fract_y
_atom_site_fract_z
_atom_site_U_iso_or_equiv
_atom_site_adp_type
_atom_site_occupancy
C1     C     0.36530   0.25388   0.10927   0.00000  Uiso   1.00
C2     C     0.47238   0.26039   0.11343   0.00000  Uiso   1.00
C3     C     0.53575   0.23868   0.07322   0.00000  Uiso   1.00
C4     C     0.63090   0.24923   0.08492   0.00000  Uiso   1.00
C5     C     0.79252   0.25454   0.08376   0.00000  Uiso   1.00
C6     C     0.33375   0.17606   0.15223   0.00000  Uiso   1.00
C7     C     0.28055   0.08346   0.14464   0.00000  Uiso   1.00
C8     C     0.25899   0.02303   0.18901   0.00000  Uiso   1.00
C9     C     0.20532   0.89746   0.24810   0.00000  Uiso   1.00
C10    C     0.32833   0.36448   0.12539   0.00000  Uiso   1.00
C11    C     0.27056   0.43030   0.09524   0.00000  Uiso   1.00
C12    C     0.24443   0.52850   0.11701   0.00000  Uiso   1.00
C13    C     0.18235   0.69549   0.13442   0.00000  Uiso   1.00
C14    C     0.42157   0.31121   0.20156   0.00000  Uiso   1.00
C15    C     0.50294   0.29152   0.16356   0.00000  Uiso   1.00
C16    C     0.59802   0.30211   0.17533   0.00000  Uiso   1.00
C17    C     0.66152   0.28043   0.13514   0.00000  Uiso   1.00
C18    C     0.36431   0.20719   0.20236   0.00000  Uiso   1.00
C19    C     0.34281   0.14689   0.24675   0.00000  Uiso   1.00
C20    C     0.28961   0.05422   0.23923   0.00000  Uiso   1.00
C21    C     0.35890   0.39562   0.17552   0.00000  Uiso   1.00
C22    C     0.33284   0.49373   0.19734   0.00000  Uiso   1.00
C23    C     0.27505   0.55970   0.16723   0.00000  Uiso   1.00
H24    H     0.34150   0.22964   0.07024   0.00000  Uiso   1.00
H25    H     0.51207   0.21458   0.03443   0.00000  Uiso   1.00
H26    H     0.25690   0.05939   0.10585   0.00000  Uiso   1.00
H27    H     0.24693   0.40618   0.05645   0.00000  Uiso   1.00
H28    H     0.71467   0.21158   0.01684   0.00000  Uiso   1.00
H29    H     0.17659   0.88438   0.16742   0.00000  Uiso   1.00
H30    H     0.15556   0.61565   0.06325   0.00000  Uiso   1.00
H31    H     0.44537   0.33545   0.24059   0.00000  Uiso   1.00
H32    H     0.62165   0.32621   0.21412   0.00000  Uiso   1.00
H33    H     0.36648   0.17101   0.28554   0.00000  Uiso   1.00
H34    H     0.35650   0.51780   0.23614   0.00000  Uiso   1.00
H35    H     0.80361   0.30217   0.16268   0.00000  Uiso   1.00
H36    H     0.26553   0.97497   0.31327   0.00000  Uiso   1.00
H37    H     0.24450   0.70624   0.20910   0.00000  Uiso   1.00
O38    O     0.87322   0.24885   0.06928   0.00000  Uiso   1.00
O39    O     0.16728   0.81958   0.26684   0.00000  Uiso   1.00
O40    O     0.13969   0.77900   0.13017   0.00000  Uiso   1.00
N41    N     0.71141   0.23419   0.05479   0.00000  Uiso   1.00
N42    N     0.20835   0.92826   0.19558   0.00000  Uiso   1.00
N43    N     0.18866   0.61193   0.09819   0.00000  Uiso   1.00
N44    N     0.75926   0.28294   0.13327   0.00000  Uiso   1.00
N45    N     0.25621   0.97701   0.27406   0.00000  Uiso   1.00
N46    N     0.23652   0.66068   0.17667   0.00000  Uiso   1.00
C47    C     0.35703   0.73378   0.94014   0.00000  Uiso   1.00
C48    C     0.25703   0.71093   0.92118   0.00000  Uiso   1.00
C49    C     0.17573   0.72015   0.95121   0.00000  Uiso   1.00
C50    C     0.09101   0.69560   0.92663   0.00000  Uiso   1.00
C51    C     0.93621   0.66513   0.90520   0.00000  Uiso   1.00
C52    C     0.39694   0.81834   0.90273   0.00000  Uiso   1.00
C53    C     0.43330   0.91785   0.91724   0.00000  Uiso   1.00
C54    C     0.46638   0.98372   0.87713   0.00000  Uiso   1.00
C55    C     0.52887   0.11996   0.82706   0.00000  Uiso   1.00
C56    C     0.41309   0.63098   0.93000   0.00000  Uiso   1.00
C57    C     0.46304   0.57297   0.96744   0.00000  Uiso   1.00
C58    C     0.50974   0.48110   0.95028   0.00000  Uiso   1.00
C59    C     0.59729   0.32645   0.94255   0.00000  Uiso   1.00
C60    C     0.35115   0.67380   0.84309   0.00000  Uiso   1.00
C61    C     0.25383   0.67836   0.86846   0.00000  Uiso   1.00
C62    C     0.16922   0.65378   0.84383   0.00000  Uiso   1.00
C63    C     0.08781   0.66296   0.87382   0.00000  Uiso   1.00
C64    C     0.39375   0.78576   0.85001   0.00000  Uiso   1.00
C65    C     0.42679   0.85149   0.80987   0.00000  Uiso   1.00
C66    C     0.46318   0.95108   0.82432   0.00000  Uiso   1.00
C67    C     0.40989   0.59840   0.87728   0.00000  Uiso   1.00
C68    C     0.45652   0.50661   0.86006   0.00000  Uiso   1.00
C69    C     0.50653   0.44847   0.89747   0.00000  Uiso   1.00
H70    H     0.35952   0.75915   0.98118   0.00000  Uiso   1.00
H71    H     0.17823   0.74537   0.99200   0.00000  Uiso   1.00
H72    H     0.43577   0.94304   0.95804   0.00000  Uiso   1.00
H73    H     0.46550   0.59821   0.00823   0.00000  Uiso   1.00
H74    H     0.97583   0.71577   0.98075   0.00000  Uiso   1.00
H75    H     0.51889   0.13254   0.90914   0.00000  Uiso   1.00
H76    H     0.58159   0.40540   0.01498   0.00000  Uiso   1.00
H77    H     0.34866   0.64844   0.80205   0.00000  Uiso   1.00
H78    H     0.16677   0.62857   0.80304   0.00000  Uiso   1.00
H79    H     0.42431   0.82625   0.76908   0.00000  Uiso   1.00
H80    H     0.45404   0.48142   0.81927   0.00000  Uiso   1.00
H81    H     0.96652   0.62097   0.82738   0.00000  Uiso   1.00
H82    H     0.50959   0.03775   0.75577   0.00000  Uiso   1.00
H83    H     0.57228   0.31061   0.86161   0.00000  Uiso   1.00
O84    O     0.85171   0.65734   0.90794   0.00000  Uiso   1.00
O85    O     0.56421   0.20412   0.81400   0.00000  Uiso   1.00
O86    O     0.64646   0.25013   0.95285   0.00000  Uiso   1.00
N87    N     0.99860   0.69616   0.94452   0.00000  Uiso   1.00
N88    N     0.50632   0.08583   0.87757   0.00000  Uiso   1.00
N89    N     0.56496   0.40603   0.97652   0.00000  Uiso   1.00
N90    N     0.99359   0.64515   0.86199   0.00000  Uiso   1.00
N91    N     0.50131   0.03482   0.79505   0.00000  Uiso   1.00
N92    N     0.55995   0.35502   0.89399   0.00000  Uiso   1.00
C93    C     0.13470   0.74612   0.60927   0.00000  Uiso   1.00
C94    C     0.02762   0.73961   0.61343   0.00000  Uiso   1.00
C95    C     0.96425   0.76132   0.57322   0.00000  Uiso   1.00
C96    C     0.86910   0.75077   0.58492   0.00000  Uiso   1.00
C97    C     0.70748   0.74546   0.58376   0.00000  Uiso   1.00
C98    C     0.16625   0.82394   0.65223   0.00000  Uiso   1.00
C99    C     0.21945   0.91654   0.64464   0.00000  Uiso   1.00
C100   C     0.24101   0.97697   0.68901   0.00000  Uiso   1.00
C101   C     0.29468   0.10254   0.74810   0.00000  Uiso   1.00
C102   C     0.17167   0.63552   0.62539   0.00000  Uiso   1.00
C103   C     0.22944   0.56970   0.59524   0.00000  Uiso   1.00
C104   C     0.25557   0.47150   0.61701   0.00000  Uiso   1.00
C105   C     0.31765   0.30451   0.63442   0.00000  Uiso   1.00
C106   C     0.07843   0.68879   0.70156   0.00000  Uiso   1.00
C107   C     0.99706   0.70848   0.66356   0.00000  Uiso   1.00
C108   C     0.90198   0.69789   0.67533   0.00000  Uiso   1.00
C109   C     0.83848   0.71957   0.63514   0.00000  Uiso   1.00
C110   C     0.13569   0.79281   0.70236   0.00000  Uiso   1.00
C111   C     0.15719   0.85311   0.74675   0.00000  Uiso   1.00
C112   C     0.21039   0.94578   0.73923   0.00000  Uiso   1.00
C113   C     0.14110   0.60438   0.67552   0.00000  Uiso   1.00
C114   C     0.16716   0.50627   0.69734   0.00000  Uiso   1.00
C115   C     0.22495   0.44030   0.66723   0.00000  Uiso   1.00
H116   H     0.15850   0.77036   0.57024   0.00000  Uiso   1.00
H117   H     0.98793   0.78542   0.53443   0.00000  Uiso   1.00
H118   H     0.24310   0.94061   0.60585   0.00000  Uiso   1.00
H119   H     0.25307   0.59382   0.55645   0.00000  Uiso   1.00
H120   H     0.78533   0.78842   0.51684   0.00000  Uiso   1.00
H121   H     0.32341   0.11562   0.66742   0.00000  Uiso   1.00
H122   H     0.34444   0.38435   0.56325   0.00000  Uiso   1.00
H123   H     0.05463   0.66455   0.74059   0.00000  Uiso   1.00
H124   H     0.87835   0.67379   0.71412   0.00000  Uiso   1.00
H125   H     0.13352   0.82899   0.78554   0.00000  Uiso   1.00
H126   H     0.14350   0.48220   0.73614   0.00000  Uiso   1.00
H127   H     0.69639   0.69783   0.66268   0.00000  Uiso   1.00
H128   H     0.23447   0.02503   0.81327   0.00000  Uiso   1.00
H129   H     0.25550   0.29376   0.70910   0.00000  Uiso   1.00
O130   O     0.62678   0.75115   0.56928   0.00000  Uiso   1.00
O131   O     0.33272   0.18042   0.76684   0.00000  Uiso   1.00
O132   O     0.36031   0.22100   0.63017   0.00000  Uiso   1.00
N133   N     0.78859   0.76581   0.55479   0.00000  Uiso   1.00
N134   N     0.29165   0.07174   0.69558   0.00000  Uiso   1.00
N135   N     0.31134   0.38807   0.59819   0.00000  Uiso   1.00
N136   N     0.74074   0.71706   0.63327   0.00000  Uiso   1.00
N137   N     0.24379   0.02299   0.77406   0.00000  Uiso   1.00
N138   N     0.26348   0.33932   0.67667   0.00000  Uiso   1.00
C139   C     0.14297   0.26622   0.44014   0.00000  Uiso   1.00
C140   C     0.24297   0.28907   0.42118   0.00000  Uiso   1.00
C141   C     0.32427   0.27985   0.45121   0.00000  Uiso   1.00
C142   C     0.40899   0.30440   0.42663   0.00000  Uiso   1.00
C143   C     0.56379   0.33487   0.40520   0.00000  Uiso   1.00
C144   C     0.10306   0.18166   0.40273   0.00000  Uiso   1.00
C145   C     0.06670   0.08215   0.41724   0.00000  Uiso   1.00
C146   C     0.03362   0.01628   0.37713   0.00000  Uiso   1.00
C147   C     0.97113   0.88004   0.32706   0.00000  Uiso   1.00
C148   C     0.08691   0.36902   0.43000   0.00000  Uiso   1.00
C149   C     0.03696   0.42703   0.46744   0.00000  Uiso   1.00
C150   C     0.99026   0.51890   0.45028   0.00000  Uiso   1.00
C151   C     0.90271   0.67355   0.44255   0.00000  Uiso   1.00
C152   C     0.14885   0.32620   0.34309   0.00000  Uiso   1.00
C153   C     0.24617   0.32164   0.36846   0.00000  Uiso   1.00
C154   C     0.33078   0.34622   0.34383   0.00000  Uiso   1.00
C155   C     0.41219   0.33704   0.37382   0.00000  Uiso   1.00
C156   C     0.10625   0.21424   0.35001   0.00000  Uiso   1.00
C157   C     0.07321   0.14851   0.30987   0.00000  Uiso   1.00
C158   C     0.03682   0.04892   0.32432   0.00000  Uiso   1.00
C159   C     0.09011   0.40160   0.37728   0.00000  Uiso   1.00
C160   C     0.04348   0.49339   0.36006   0.00000  Uiso   1.00
C161   C     0.99347   0.55153   0.39747   0.00000  Uiso   1.00
H162   H     0.14048   0.24085   0.48118   0.00000  Uiso   1.00
H163   H     0.32177   0.25463   0.49200   0.00000  Uiso   1.00
H164   H     0.06423   0.05696   0.45804   0.00000  Uiso   1.00
H165   H     0.03450   0.40179   0.50823   0.00000  Uiso   1.00
H166   H     0.52417   0.28423   0.48075   0.00000  Uiso   1.00
H167   H     0.98111   0.86746   0.40914   0.00000  Uiso   1.00
H168   H     0.91841   0.59460   0.51498   0.00000  Uiso   1.00
H169   H     0.15134   0.35156   0.30205   0.00000  Uiso   1.00
H170   H     0.33323   0.37143   0.30304   0.00000  Uiso   1.00
H171   H     0.07569   0.17375   0.26908   0.00000  Uiso   1.00
H172   H     0.04596   0.51858   0.31927   0.00000  Uiso   1.00
H173   H     0.53348   0.37903   0.32738   0.00000  Uiso   1.00
H174   H     0.99041   0.96225   0.25577   0.00000  Uiso   1.00
H175   H     0.92772   0.68939   0.36161   0.00000  Uiso   1.00
O176   O     0.64829   0.34266   0.40794   0.00000  Uiso   1.00
O177   O     0.93579   0.79588   0.31400   0.00000  Uiso   1.00
O178   O     0.85354   0.74987   0.45285   0.00000  Uiso   1.00
N179   N     0.50140   0.30384   0.44452   0.00000  Uiso   1.00
N180   N     0.99368   0.91417   0.37757   0.00000  Uiso   1.00
N181   N     0.93504   0.59397   0.47652   0.00000  Uiso   1.00
N182   N     0.50641   0.35485   0.36199   0.00000  Uiso   1.00
N183   N     0.99869   0.96518   0.29505   0.00000  Uiso   1.00
N184   N     0.94005   0.64498   0.39399   0.00000  Uiso   1.00
C185   C     0.63470   0.75388   0.39073   0.00000  Uiso   1.00
C186   C     0.52762   0.76039   0.38657   0.00000  Uiso   1.00
C187   C     0.46425   0.73868   0.42678   0.00000  Uiso   1.00
C188   C     0.36910   0.74923   0.41508   0.00000  Uiso   1.00
C189   C     0.20748   0.75454   0.41624   0.00000  Uiso   1.00
C190   C     0.66625   0.67606   0.34777   0.00000  Uiso   1.00
C191   C     0.71945   0.58346   0.35536   0.00000  Uiso   1.00
C192   C     0.74101   0.52303   0.31099   0.00000  Uiso   1.00
C193   C     0.79468   0.39746   0.25190   0.00000  Uiso   1.00
C194   C     0.67167   0.86448   0.37461   0.00000  Uiso   1.00
C195   C     0.72944   0.93030   0.40476   0.00000  Uiso   1.00
C196   C     0.75557   0.02850   0.38299   0.00000  Uiso   1.00
C197   C     0.81765   0.19549   0.36558   0.00000  Uiso   1.00
C198   C     0.57843   0.81121   0.29844   0.00000  Uiso   1.00
C199   C     0.49706   0.79152   0.33644   0.00000  Uiso   1.00
C200   C     0.40198   0.80211   0.32467   0.00000  Uiso   1.00
C201   C     0.33848   0.78043   0.36486   0.00000  Uiso   1.00
C202   C     0.63569   0.70719   0.29764   0.00000  Uiso   1.00
C203   C     0.65719   0.64689   0.25325   0.00000  Uiso   1.00
C204   C     0.71039   0.55422   0.26077   0.00000  Uiso   1.00
C205   C     0.64110   0.89562   0.32448   0.00000  Uiso   1.00
C206   C     0.66716   0.99373   0.30266   0.00000  Uiso   1.00
C207   C     0.72495   0.05970   0.33277   0.00000  Uiso   1.00
H208   H     0.65850   0.72964   0.42976   0.00000  Uiso   1.00
H209   H     0.48793   0.71458   0.46557   0.00000  Uiso   1.00
H210   H     0.74310   0.55939   0.39415   0.00000  Uiso   1.00
H211   H     0.75307   0.90618   0.44355   0.00000  Uiso   1.00
H212   H     0.28533   0.71158   0.48316   0.00000  Uiso   1.00
H213   H     0.82341   0.38438   0.33258   0.00000  Uiso   1.00
H214   H     0.84444   0.11565   0.43675   0.00000  Uiso   1.00
H215   H     0.55463   0.83545   0.25941   0.00000  Uiso   1.00
H216   H     0.37835   0.82621   0.28588   0.00000  Uiso   1.00
H217   H     0.63352   0.67101   0.21446   0.00000  Uiso   1.00
H218   H     0.64350   0.01780   0.26386   0.00000  Uiso   1.00
H219   H     0.19639   0.80217   0.33732   0.00000  Uiso   1.00
H220   H     0.73447   0.47497   0.18673   0.00000  Uiso   1.00
H221   H     0.75550   0.20624   0.29090   0.00000  Uiso   1.00
O222   O     0.12678   0.74885   0.43072   0.00000  Uiso   1.00
O223   O     0.83272   0.31958   0.23316   0.00000  Uiso   1.00
O224   O     0.86031   0.27900   0.36983   0.00000  Uiso   1.00
N225   N     0.28859   0.73419   0.44521   0.00000  Uiso   1.00
N226   N     0.79165   0.42826   0.30442   0.00000  Uiso   1.00
N227   N     0.81134   0.11193   0.40181   0.00000  Uiso   1.00
N228   N     0.24074   0.78294   0.36673   0.00000  Uiso   1.00
N229   N     0.74379   0.47701   0.22594   0.00000  Uiso   1.00
N230   N     0.76348   0.16068   0.32333   0.00000  Uiso   1.00
C231   C     0.64297   0.23378   0.55986   0.00000  Uiso   1.00
C232   C     0.74297   0.21093   0.57882   0.00000  Uiso   1.00
C233   C     0.82427   0.22015   0.54879   0.00000  Uiso   1.00
C234   C     0.90899   0.19560   0.57337   0.00000  Uiso   1.00
C235   C     0.06379   0.16513   0.59480   0.00000  Uiso   1.00
C236   C     0.60306   0.31834   0.59727   0.00000  Uiso   1.00
C237   C     0.56670   0.41785   0.58276   0.00000  Uiso   1.00
C238   C     0.53362   0.48372   0.62287   0.00000  Uiso   1.00
C239   C     0.47113   0.61996   0.67294   0.00000  Uiso   1.00
C240   C     0.58691   0.13098   0.57000   0.00000  Uiso   1.00
C241   C     0.53696   0.07297   0.53256   0.00000  Uiso   1.00
C242   C     0.49026   0.98110   0.54972   0.00000  Uiso   1.00
C243   C     0.40271   0.82645   0.55745   0.00000  Uiso   1.00
C244   C     0.64885   0.17380   0.65691   0.00000  Uiso   1.00
C245   C     0.74617   0.17836   0.63154   0.00000  Uiso   1.00
C246   C     0.83078   0.15378   0.65617   0.00000  Uiso   1.00
C247   C     0.91219   0.16296   0.62618   0.00000  Uiso   1.00
C248   C     0.60625   0.28576   0.64999   0.00000  Uiso   1.00
C249   C     0.57321   0.35149   0.69013   0.00000  Uiso   1.00
C250   C     0.53682   0.45108   0.67568   0.00000  Uiso   1.00
C251   C     0.59011   0.09840   0.62272   0.00000  Uiso   1.00
C252   C     0.54348   0.00661   0.63994   0.00000  Uiso   1.00
C253   C     0.49347   0.94847   0.60253   0.00000  Uiso   1.00
H254   H     0.64048   0.25915   0.51882   0.00000  Uiso   1.00
H255   H     0.82177   0.24537   0.50800   0.00000  Uiso   1.00
H256   H     0.56423   0.44304   0.54196   0.00000  Uiso   1.00
H257   H     0.53450   0.09821   0.49177   0.00000  Uiso   1.00
H258   H     0.02417   0.21577   0.51925   0.00000  Uiso   1.00
H259   H     0.48111   0.63254   0.59086   0.00000  Uiso   1.00
H260   H     0.41841   0.90540   0.48502   0.00000  Uiso   1.00
H261   H     0.65134   0.14844   0.69795   0.00000  Uiso   1.00
H262   H     0.83323   0.12857   0.69696   0.00000  Uiso   1.00
H263   H     0.57569   0.32625   0.73092   0.00000  Uiso   1.00
H264   H     0.54596   0.98142   0.68073   0.00000  Uiso   1.00
H265   H     0.03348   0.12097   0.67262   0.00000  Uiso   1.00
H266   H     0.49041   0.53775   0.74423   0.00000  Uiso   1.00
H267   H     0.42772   0.81061   0.63839   0.00000  Uiso   1.00
O268   O     0.14829   0.15734   0.59206   0.00000  Uiso   1.00
O269   O     0.43579   0.70412   0.68600   0.00000  Uiso   1.00
O270   O     0.35354   0.75013   0.54715   0.00000  Uiso   1.00
N271   N     0.00140   0.19616   0.55548   0.00000  Uiso   1.00
N272   N     0.49368   0.58583   0.62243   0.00000  Uiso   1.00
N273   N     0.43504   0.90603   0.52348   0.00000  Uiso   1.00
N274   N     0.00641   0.14515   0.63801   0.00000  Uiso   1.00
N275   N     0.49869   0.53482   0.70495   0.00000  Uiso   1.00
N276   N     0.44005   0.85502   0.60601   0.00000  Uiso   1.00
C277   C     0.86530   0.24612   0.89073   0.00000  Uiso   1.00
C278   C     0.97238   0.23961   0.88657   0.00000  Uiso   1.00
C279   C     0.03575   0.26132   0.92678   0.00000  Uiso   1.00
C280   C     0.13090   0.25077   0.91508   0.00000  Uiso   1.00
C281   C     0.29252   0.24546   0.91624   0.00000  Uiso   1.00
C282   C     0.83375   0.32394   0.84777   0.00000  Uiso   1.00
C283   C     0.78055   0.41654   0.85536   0.00000  Uiso   1.00
C284   C     0.75899   0.47697   0.81099   0.00000  Uiso   1.00
C285   C     0.70532   0.60254   0.75190   0.00000  Uiso   1.00
C286   C     0.82833   0.13552   0.87461   0.00000  Uiso   1.00
C287   C     0.77056   0.06970   0.90476   0.00000  Uiso   1.00
C288   C     0.74443   0.97150   0.88299   0.00000  Uiso   1.00
C289   C     0.68235   0.80451   0.86558   0.00000  Uiso   1.00
C290   C     0.92157   0.18879   0.79844   0.00000  Uiso   1.00
C291   C     0.00294   0.20848   0.83644   0.00000  Uiso   1.00
C292   C     0.09802   0.19789   0.82467   0.00000  Uiso   1.00
C293   C     0.16152   0.21957   0.86486   0.00000  Uiso   1.00
C294   C     0.86431   0.29281   0.79764   0.00000  Uiso   1.00
C295   C     0.84281   0.35311   0.75325   0.00000  Uiso   1.00
C296   C     0.78961   0.44578   0.76077   0.00000  Uiso   1.00
C297   C     0.85890   0.10438   0.82448   0.00000  Uiso   1.00
C298   C     0.83284   0.00627   0.80266   0.00000  Uiso   1.00
C299   C     0.77505   0.94030   0.83277   0.00000  Uiso   1.00
H300   H     0.84150   0.27036   0.92976   0.00000  Uiso   1.00
H301   H     0.01207   0.28542   0.96557   0.00000  Uiso   1.00
H302   H     0.75690   0.44061   0.89415   0.00000  Uiso   1.00
H303   H     0.74693   0.09382   0.94355   0.00000  Uiso   1.00
H304   H     0.21467   0.28842   0.98316   0.00000  Uiso   1.00
H305   H     0.67659   0.61562   0.83258   0.00000  Uiso   1.00
H306   H     0.65556   0.88435   0.93675   0.00000  Uiso   1.00
H307   H     0.94537   0.16455   0.75941   0.00000  Uiso   1.00
H308   H     0.12165   0.17379   0.78588   0.00000  Uiso   1.00
H309   H     0.86648   0.32899   0.71446   0.00000  Uiso   1.00
H310   H     0.85650   0.98220   0.76386   0.00000  Uiso   1.00
H311   H     0.30361   0.19783   0.83732   0.00000  Uiso   1.00
H312   H     0.76553   0.52503   0.68673   0.00000  Uiso   1.00
H313   H     0.74450   0.79376   0.79090   0.00000  Uiso   1.00
O314   O     0.37322   0.25115   0.93072   0.00000  Uiso   1.00
O315   O     0.66728   0.68042   0.73316   0.00000  Uiso   1.00
O316   O     0.63969   0.72100   0.86983   0.00000  Uiso   1.00
N317   N     0.21141   0.26581   0.94521   0.00000  Uiso   1.00
N318   N     0.70835   0.57174   0.80442   0.00000  Uiso   1.00
N319   N     0.68866   0.88807   0.90181   0.00000  Uiso   1.00
N320   N     0.25926   0.21706   0.86673   0.00000  Uiso   1.00
N321   N     0.75621   0.52299   0.72594   0.00000  Uiso   1.00
N322   N     0.73652   0.83932   0.82333   0.00000  Uiso   1.00
C323   C     0.85703   0.76622   0.05986   0.00000  Uiso   1.00
C324   C     0.75703   0.78907   0.07882   0.00000  Uiso   1.00
C325   C     0.67573   0.77985   0.04879   0.00000  Uiso   1.00
C326   C     0.59101   0.80440   0.07337   0.00000  Uiso   1.00
C327   C     0.43621   0.83487   0.09480   0.00000  Uiso   1.00
C328   C     0.89694   0.68166   0.09727   0.00000  Uiso   1.00
C329   C     0.93330   0.58215   0.08276   0.00000  Uiso   1.00
C330   C     0.96638   0.51628   0.12287   0.00000  Uiso   1.00
C331   C     0.02887   0.38004   0.17294   0.00000  Uiso   1.00
C332   C     0.91309   0.86902   0.07000   0.00000  Uiso   1.00
C333   C     0.96304   0.92703   0.03256   0.00000  Uiso   1.00
C334   C     0.00974   0.01890   0.04972   0.00000  Uiso   1.00
C335   C     0.09729   0.17355   0.05745   0.00000  Uiso   1.00
C336   C     0.85115   0.82620   0.15691   0.00000  Uiso   1.00
C337   C     0.75383   0.82164   0.13154   0.00000  Uiso   1.00
C338   C     0.66922   0.84622   0.15617   0.00000  Uiso   1.00
C339   C     0.58781   0.83704   0.12618   0.00000  Uiso   1.00
C340   C     0.89375   0.71424   0.14999   0.00000  Uiso   1.00
C341   C     0.92679   0.64851   0.19013   0.00000  Uiso   1.00
C342   C     0.96318   0.54892   0.17568   0.00000  Uiso   1.00
C343   C     0.90989   0.90160   0.12272   0.00000  Uiso   1.00
C344   C     0.95652   0.99339   0.13994   0.00000  Uiso   1.00
C345   C     0.00653   0.05153   0.10253   0.00000  Uiso   1.00
H346   H     0.85952   0.74085   0.01882   0.00000  Uiso   1.00
H347   H     0.67823   0.75463   0.00800   0.00000  Uiso   1.00
H348   H     0.93577   0.55696   0.04196   0.00000  Uiso   1.00
H349   H     0.96550   0.90179   0.99177   0.00000  Uiso   1.00
H350   H     0.47583   0.78423   0.01925   0.00000  Uiso   1.00
H351   H     0.01889   0.36746   0.09086   0.00000  Uiso   1.00
H352   H     0.08159   0.09460   0.98502   0.00000  Uiso   1.00
H353   H     0.84866   0.85156   0.19795   0.00000  Uiso   1.00
H354   H     0.66677   0.87143   0.19696   0.00000  Uiso   1.00
H355   H     0.92431   0.67375   0.23092   0.00000  Uiso   1.00
H356   H     0.95404   0.01858   0.18073   0.00000  Uiso   1.00
H357   H     0.46652   0.87903   0.17262   0.00000  Uiso   1.00
H358   H     0.00959   0.46225   0.24423   0.00000  Uiso   1.00
H359   H     0.07228   0.18939   0.13839   0.00000  Uiso   1.00
O360   O     0.35171   0.84266   0.09206   0.00000  Uiso   1.00
O361   O     0.06421   0.29588   0.18600   0.00000  Uiso   1.00
O362   O     0.14646   0.24987   0.04715   0.00000  Uiso   1.00
N363   N     0.49860   0.80384   0.05548   0.00000  Uiso   1.00
N364   N     0.00632   0.41417   0.12243   0.00000  Uiso   1.00
N365   N     0.06496   0.09397   0.02348   0.00000  Uiso   1.00
N366   N     0.49359   0.85485   0.13801   0.00000  Uiso   1.00
N367   N     0.00131   0.46518   0.20495   0.00000  Uiso   1.00
N368   N     0.05995   0.14498   0.10601   0.00000  Uiso   1.00
