data_job_03617
_audit_creation_date              2018-12-19
_audit_creation_method            'Materials Studio'
_symmetry_space_group_name_H-M    'P1'
_symmetry_Int_Tables_number       1
_symmetry_cell_setting            triclinic
loop_
_symmetry_equiv_pos_as_xyz
  x,y,z
_cell_length_a                    10.3546
_cell_length_b                    19.2279
_cell_length_c                    13.3711
_cell_angle_alpha                 90.0000
_cell_angle_beta                  90.0000
_cell_angle_gamma                 90.0000
loop_
_atom_site_label
_atom_site_type_symbol
_atom_site_fract_x
_atom_site_fract_y
_atom_site_fract_z
_atom_site_U_iso_or_equiv
_atom_site_adp_type
_atom_site_occupancy
C1     C     0.85627   0.95438   0.44003   0.00000  Uiso   1.00
C2     C     0.76267   0.94416   0.35322   0.00000  Uiso   1.00
C3     C     0.63049   0.95590   0.35620   0.00000  Uiso   1.00
C4     C     0.56171   0.94347   0.26888   0.00000  Uiso   1.00
C5     C     0.40703   0.93112   0.14734   0.00000  Uiso   1.00
C6     C     0.92432   0.88475   0.45437   0.00000  Uiso   1.00
C7     C     0.92806   0.84656   0.54240   0.00000  Uiso   1.00
C8     C     0.99538   0.78413   0.54022   0.00000  Uiso   1.00
C9     C     0.09174   0.67958   0.57575   0.00000  Uiso   1.00
C10    C     0.95920   0.00477   0.40261   0.00000  Uiso   1.00
C11    C     0.99231   0.06749   0.44713   0.00000  Uiso   1.00
C12    C     0.08901   0.10610   0.40139   0.00000  Uiso   1.00
C13    C     0.23953   0.18789   0.35655   0.00000  Uiso   1.00
C14    C     0.96918   0.91141   0.27966   0.00000  Uiso   1.00
C15    C     0.82400   0.92082   0.26611   0.00000  Uiso   1.00
C16    C     0.75541   0.90837   0.17876   0.00000  Uiso   1.00
C17    C     0.62314   0.92009   0.18161   0.00000  Uiso   1.00
C18    C     0.98565   0.86141   0.36727   0.00000  Uiso   1.00
C19    C     0.05298   0.79903   0.36496   0.00000  Uiso   1.00
C20    C     0.05681   0.76075   0.45296   0.00000  Uiso   1.00
C21    C     0.02053   0.98144   0.31550   0.00000  Uiso   1.00
C22    C     0.11721   0.01995   0.26969   0.00000  Uiso   1.00
C23    C     0.15045   0.08272   0.31412   0.00000  Uiso   1.00
H24    H     0.80854   0.97254   0.50785   0.00000  Uiso   1.00
H25    H     0.58306   0.97396   0.42363   0.00000  Uiso   1.00
H26    H     0.88061   0.86464   0.60980   0.00000  Uiso   1.00
H27    H     0.94483   0.08553   0.51454   0.00000  Uiso   1.00
H28    H     0.36013   0.96521   0.29184   0.00000  Uiso   1.00
H29    H     0.98754   0.73472   0.68440   0.00000  Uiso   1.00
H30    H     0.12298   0.20051   0.48353   0.00000  Uiso   1.00
H31    H     0.01693   0.89324   0.21184   0.00000  Uiso   1.00
H32    H     0.80289   0.89031   0.11136   0.00000  Uiso   1.00
H33    H     0.10043   0.78098   0.29754   0.00000  Uiso   1.00
H34    H     0.16465   0.00188   0.20228   0.00000  Uiso   1.00
H35    H     0.53854   0.89731   0.03840   0.00000  Uiso   1.00
H36    H     0.16597   0.66682   0.43097   0.00000  Uiso   1.00
H37    H     0.30139   0.13262   0.23009   0.00000  Uiso   1.00
O38    O     0.30477   0.93074   0.10438   0.00000  Uiso   1.00
O39    O     0.12793   0.62835   0.61941   0.00000  Uiso   1.00
O40    O     0.30561   0.23946   0.35587   0.00000  Uiso   1.00
N41    N     0.43150   0.94965   0.24598   0.00000  Uiso   1.00
N42    N     0.01808   0.73414   0.61300   0.00000  Uiso   1.00
N43    N     0.14472   0.16962   0.42521   0.00000  Uiso   1.00
N44    N     0.52750   0.91311   0.10960   0.00000  Uiso   1.00
N45    N     0.11408   0.69761   0.47662   0.00000  Uiso   1.00
N46    N     0.24072   0.13308   0.28884   0.00000  Uiso   1.00
C47    C     0.14373   0.04562   0.94003   0.00000  Uiso   1.00
C48    C     0.23733   0.05584   0.85322   0.00000  Uiso   1.00
C49    C     0.36951   0.04410   0.85620   0.00000  Uiso   1.00
C50    C     0.43829   0.05653   0.76888   0.00000  Uiso   1.00
C51    C     0.59297   0.06888   0.64734   0.00000  Uiso   1.00
C52    C     0.07568   0.11525   0.95437   0.00000  Uiso   1.00
C53    C     0.07194   0.15344   0.04240   0.00000  Uiso   1.00
C54    C     0.00462   0.21587   0.04022   0.00000  Uiso   1.00
C55    C     0.90826   0.32042   0.07575   0.00000  Uiso   1.00
C56    C     0.04080   0.99523   0.90261   0.00000  Uiso   1.00
C57    C     0.00769   0.93251   0.94713   0.00000  Uiso   1.00
C58    C     0.91099   0.89390   0.90139   0.00000  Uiso   1.00
C59    C     0.76047   0.81211   0.85655   0.00000  Uiso   1.00
C60    C     0.03082   0.08859   0.77966   0.00000  Uiso   1.00
C61    C     0.17600   0.07918   0.76611   0.00000  Uiso   1.00
C62    C     0.24459   0.09163   0.67876   0.00000  Uiso   1.00
C63    C     0.37686   0.07991   0.68161   0.00000  Uiso   1.00
C64    C     0.01435   0.13859   0.86727   0.00000  Uiso   1.00
C65    C     0.94702   0.20097   0.86496   0.00000  Uiso   1.00
C66    C     0.94319   0.23925   0.95296   0.00000  Uiso   1.00
C67    C     0.97947   0.01856   0.81550   0.00000  Uiso   1.00
C68    C     0.88279   0.98005   0.76969   0.00000  Uiso   1.00
C69    C     0.84955   0.91728   0.81412   0.00000  Uiso   1.00
H70    H     0.19146   0.02746   0.00785   0.00000  Uiso   1.00
H71    H     0.41694   0.02604   0.92363   0.00000  Uiso   1.00
H72    H     0.11939   0.13536   0.10980   0.00000  Uiso   1.00
H73    H     0.05517   0.91447   0.01454   0.00000  Uiso   1.00
H74    H     0.63987   0.03479   0.79184   0.00000  Uiso   1.00
H75    H     0.01246   0.26528   0.18440   0.00000  Uiso   1.00
H76    H     0.87702   0.79949   0.98353   0.00000  Uiso   1.00
H77    H     0.98307   0.10676   0.71184   0.00000  Uiso   1.00
H78    H     0.19711   0.10969   0.61136   0.00000  Uiso   1.00
H79    H     0.89957   0.21902   0.79754   0.00000  Uiso   1.00
H80    H     0.83535   0.99812   0.70228   0.00000  Uiso   1.00
H81    H     0.46146   0.10269   0.53840   0.00000  Uiso   1.00
H82    H     0.83403   0.33318   0.93097   0.00000  Uiso   1.00
H83    H     0.69861   0.86738   0.73009   0.00000  Uiso   1.00
O84    O     0.69523   0.06926   0.60438   0.00000  Uiso   1.00
O85    O     0.87207   0.37165   0.11941   0.00000  Uiso   1.00
O86    O     0.69439   0.76054   0.85587   0.00000  Uiso   1.00
N87    N     0.56850   0.05035   0.74598   0.00000  Uiso   1.00
N88    N     0.98192   0.26586   0.11300   0.00000  Uiso   1.00
N89    N     0.85528   0.83038   0.92521   0.00000  Uiso   1.00
N90    N     0.47250   0.08689   0.60960   0.00000  Uiso   1.00
N91    N     0.88592   0.30239   0.97662   0.00000  Uiso   1.00
N92    N     0.75928   0.86692   0.78884   0.00000  Uiso   1.00
C93    C     0.35627   0.54562   0.44003   0.00000  Uiso   1.00
C94    C     0.26267   0.55584   0.35322   0.00000  Uiso   1.00
C95    C     0.13049   0.54410   0.35620   0.00000  Uiso   1.00
C96    C     0.06171   0.55653   0.26888   0.00000  Uiso   1.00
C97    C     0.90703   0.56888   0.14734   0.00000  Uiso   1.00
C98    C     0.42432   0.61525   0.45437   0.00000  Uiso   1.00
C99    C     0.42806   0.65344   0.54240   0.00000  Uiso   1.00
C100   C     0.49538   0.71587   0.54022   0.00000  Uiso   1.00
C101   C     0.59174   0.82042   0.57575   0.00000  Uiso   1.00
C102   C     0.45920   0.49523   0.40261   0.00000  Uiso   1.00
C103   C     0.49231   0.43251   0.44713   0.00000  Uiso   1.00
C104   C     0.58901   0.39390   0.40139   0.00000  Uiso   1.00
C105   C     0.73953   0.31211   0.35655   0.00000  Uiso   1.00
C106   C     0.46918   0.58859   0.27966   0.00000  Uiso   1.00
C107   C     0.32400   0.57918   0.26611   0.00000  Uiso   1.00
C108   C     0.25541   0.59163   0.17876   0.00000  Uiso   1.00
C109   C     0.12314   0.57991   0.18161   0.00000  Uiso   1.00
C110   C     0.48565   0.63859   0.36727   0.00000  Uiso   1.00
C111   C     0.55298   0.70097   0.36496   0.00000  Uiso   1.00
C112   C     0.55681   0.73925   0.45296   0.00000  Uiso   1.00
C113   C     0.52053   0.51856   0.31550   0.00000  Uiso   1.00
C114   C     0.61721   0.48005   0.26969   0.00000  Uiso   1.00
C115   C     0.65045   0.41728   0.31412   0.00000  Uiso   1.00
H116   H     0.30854   0.52746   0.50785   0.00000  Uiso   1.00
H117   H     0.08306   0.52604   0.42363   0.00000  Uiso   1.00
H118   H     0.38061   0.63536   0.60980   0.00000  Uiso   1.00
H119   H     0.44483   0.41447   0.51454   0.00000  Uiso   1.00
H120   H     0.86013   0.53479   0.29184   0.00000  Uiso   1.00
H121   H     0.48754   0.76528   0.68440   0.00000  Uiso   1.00
H122   H     0.62298   0.29949   0.48353   0.00000  Uiso   1.00
H123   H     0.51693   0.60676   0.21184   0.00000  Uiso   1.00
H124   H     0.30289   0.60969   0.11136   0.00000  Uiso   1.00
H125   H     0.60043   0.71902   0.29754   0.00000  Uiso   1.00
H126   H     0.66465   0.49812   0.20228   0.00000  Uiso   1.00
H127   H     0.03854   0.60269   0.03840   0.00000  Uiso   1.00
H128   H     0.66597   0.83318   0.43097   0.00000  Uiso   1.00
H129   H     0.80139   0.36738   0.23009   0.00000  Uiso   1.00
O130   O     0.80477   0.56926   0.10438   0.00000  Uiso   1.00
O131   O     0.62793   0.87165   0.61941   0.00000  Uiso   1.00
O132   O     0.80561   0.26054   0.35587   0.00000  Uiso   1.00
N133   N     0.93150   0.55035   0.24598   0.00000  Uiso   1.00
N134   N     0.51808   0.76586   0.61300   0.00000  Uiso   1.00
N135   N     0.64472   0.33038   0.42521   0.00000  Uiso   1.00
N136   N     0.02750   0.58689   0.10960   0.00000  Uiso   1.00
N137   N     0.61408   0.80239   0.47662   0.00000  Uiso   1.00
N138   N     0.74072   0.36692   0.28884   0.00000  Uiso   1.00
C139   C     0.64373   0.45438   0.94003   0.00000  Uiso   1.00
C140   C     0.73733   0.44416   0.85322   0.00000  Uiso   1.00
C141   C     0.86951   0.45590   0.85620   0.00000  Uiso   1.00
C142   C     0.93829   0.44347   0.76888   0.00000  Uiso   1.00
C143   C     0.09297   0.43112   0.64734   0.00000  Uiso   1.00
C144   C     0.57568   0.38475   0.95437   0.00000  Uiso   1.00
C145   C     0.57194   0.34656   0.04240   0.00000  Uiso   1.00
C146   C     0.50462   0.28413   0.04022   0.00000  Uiso   1.00
C147   C     0.40826   0.17958   0.07575   0.00000  Uiso   1.00
C148   C     0.54080   0.50477   0.90261   0.00000  Uiso   1.00
C149   C     0.50769   0.56749   0.94713   0.00000  Uiso   1.00
C150   C     0.41099   0.60610   0.90139   0.00000  Uiso   1.00
C151   C     0.26047   0.68789   0.85655   0.00000  Uiso   1.00
C152   C     0.53082   0.41141   0.77966   0.00000  Uiso   1.00
C153   C     0.67600   0.42082   0.76611   0.00000  Uiso   1.00
C154   C     0.74459   0.40837   0.67876   0.00000  Uiso   1.00
C155   C     0.87686   0.42009   0.68161   0.00000  Uiso   1.00
C156   C     0.51435   0.36141   0.86727   0.00000  Uiso   1.00
C157   C     0.44702   0.29903   0.86496   0.00000  Uiso   1.00
C158   C     0.44319   0.26075   0.95296   0.00000  Uiso   1.00
C159   C     0.47947   0.48144   0.81550   0.00000  Uiso   1.00
C160   C     0.38279   0.51995   0.76969   0.00000  Uiso   1.00
C161   C     0.34955   0.58272   0.81412   0.00000  Uiso   1.00
H162   H     0.69146   0.47254   0.00785   0.00000  Uiso   1.00
H163   H     0.91694   0.47396   0.92363   0.00000  Uiso   1.00
H164   H     0.61939   0.36464   0.10980   0.00000  Uiso   1.00
H165   H     0.55517   0.58553   0.01454   0.00000  Uiso   1.00
H166   H     0.13987   0.46521   0.79184   0.00000  Uiso   1.00
H167   H     0.51246   0.23472   0.18440   0.00000  Uiso   1.00
H168   H     0.37702   0.70051   0.98353   0.00000  Uiso   1.00
H169   H     0.48307   0.39324   0.71184   0.00000  Uiso   1.00
H170   H     0.69711   0.39031   0.61136   0.00000  Uiso   1.00
H171   H     0.39957   0.28098   0.79754   0.00000  Uiso   1.00
H172   H     0.33535   0.50188   0.70228   0.00000  Uiso   1.00
H173   H     0.96146   0.39731   0.53840   0.00000  Uiso   1.00
H174   H     0.33403   0.16682   0.93097   0.00000  Uiso   1.00
H175   H     0.19861   0.63262   0.73009   0.00000  Uiso   1.00
O176   O     0.19523   0.43074   0.60438   0.00000  Uiso   1.00
O177   O     0.37207   0.12835   0.11941   0.00000  Uiso   1.00
O178   O     0.19439   0.73946   0.85587   0.00000  Uiso   1.00
N179   N     0.06850   0.44965   0.74598   0.00000  Uiso   1.00
N180   N     0.48192   0.23414   0.11300   0.00000  Uiso   1.00
N181   N     0.35528   0.66962   0.92521   0.00000  Uiso   1.00
N182   N     0.97250   0.41311   0.60960   0.00000  Uiso   1.00
N183   N     0.38592   0.19761   0.97662   0.00000  Uiso   1.00
N184   N     0.25928   0.63308   0.78884   0.00000  Uiso   1.00
