data_job_02295
_audit_creation_date              2018-12-19
_audit_creation_method            'Materials Studio'
_symmetry_space_group_name_H-M    'P1'
_symmetry_Int_Tables_number       1
_symmetry_cell_setting            triclinic
loop_
_symmetry_equiv_pos_as_xyz
  x,y,z
_cell_length_a                    22.4299
_cell_length_b                    14.6383
_cell_length_c                    18.3334
_cell_angle_alpha                 90.0000
_cell_angle_beta                  90.0000
_cell_angle_gamma                 90.0000
loop_
_atom_site_label
_atom_site_type_symbol
_atom_site_fract_x
_atom_site_fract_y
_atom_site_fract_z
_atom_site_U_iso_or_equiv
_atom_site_adp_type
_atom_site_occupancy
C1     C     0.19899   0.56575   0.89516   0.00000  Uiso   1.00
C2     C     0.25150   0.54279   0.94471   0.00000  Uiso   1.00
C3     C     0.30852   0.57894   0.93916   0.00000  Uiso   1.00
C4     C     0.35032   0.54920   0.98971   0.00000  Uiso   1.00
C5     C     0.43410   0.52320   0.05839   0.00000  Uiso   1.00
C6     C     0.17756   0.47502   0.86379   0.00000  Uiso   1.00
C7     C     0.17239   0.45421   0.79021   0.00000  Uiso   1.00
C8     C     0.15194   0.36743   0.77265   0.00000  Uiso   1.00
C9     C     0.12088   0.23624   0.71571   0.00000  Uiso   1.00
C10    C     0.14930   0.59917   0.94527   0.00000  Uiso   1.00
C11    C     0.12037   0.68273   0.94018   0.00000  Uiso   1.00
C12    C     0.07612   0.70046   0.99120   0.00000  Uiso   1.00
C13    C     0.00120   0.76203   0.06076   0.00000  Uiso   1.00
C14    C     0.17183   0.44864   0.99482   0.00000  Uiso   1.00
C15    C     0.23675   0.47918   0.99884   0.00000  Uiso   1.00
C16    C     0.27847   0.44938   0.04942   0.00000  Uiso   1.00
C17    C     0.33554   0.48549   0.04394   0.00000  Uiso   1.00
C18    C     0.16281   0.41142   0.91792   0.00000  Uiso   1.00
C19    C     0.14235   0.32465   0.90047   0.00000  Uiso   1.00
C20    C     0.13716   0.30371   0.82688   0.00000  Uiso   1.00
C21    C     0.13455   0.53556   0.99940   0.00000  Uiso   1.00
C22    C     0.09033   0.55317   0.05044   0.00000  Uiso   1.00
C23    C     0.06134   0.63674   0.04543   0.00000  Uiso   1.00
H24    H     0.21047   0.61526   0.85301   0.00000  Uiso   1.00
H25    H     0.31991   0.62816   0.89725   0.00000  Uiso   1.00
H26    H     0.18380   0.50345   0.74833   0.00000  Uiso   1.00
H27    H     0.13180   0.73193   0.89828   0.00000  Uiso   1.00
H28    H     0.43475   0.61438   0.97016   0.00000  Uiso   1.00
H29    H     0.14774   0.35144   0.65615   0.00000  Uiso   1.00
H30    H     0.03807   0.83324   0.97234   0.00000  Uiso   1.00
H31    H     0.16035   0.39912   0.03696   0.00000  Uiso   1.00
H32    H     0.26705   0.40016   0.09130   0.00000  Uiso   1.00
H33    H     0.13094   0.27545   0.94238   0.00000  Uiso   1.00
H34    H     0.07893   0.50393   0.09232   0.00000  Uiso   1.00
H35    H     0.39185   0.42932   0.12765   0.00000  Uiso   1.00
H36    H     0.10483   0.16638   0.81364   0.00000  Uiso   1.00
H37    H     0.99516   0.64819   0.12983   0.00000  Uiso   1.00
O38    O     0.48440   0.52641   0.08132   0.00000  Uiso   1.00
O39    O     0.10784   0.18145   0.66935   0.00000  Uiso   1.00
O40    O     0.96395   0.81357   0.08418   0.00000  Uiso   1.00
N41    N     0.41001   0.57070   0.99978   0.00000  Uiso   1.00
N42    N     0.14168   0.32486   0.70620   0.00000  Uiso   1.00
N43    N     0.03913   0.77529   0.00179   0.00000  Uiso   1.00
N44    N     0.38692   0.47112   0.08452   0.00000  Uiso   1.00
N45    N     0.11859   0.22528   0.79094   0.00000  Uiso   1.00
N46    N     0.01604   0.67572   0.08654   0.00000  Uiso   1.00
C47    C     0.30101   0.93425   0.39516   0.00000  Uiso   1.00
C48    C     0.24850   0.95721   0.44471   0.00000  Uiso   1.00
C49    C     0.19148   0.92106   0.43916   0.00000  Uiso   1.00
C50    C     0.14968   0.95080   0.48971   0.00000  Uiso   1.00
C51    C     0.06590   0.97680   0.55839   0.00000  Uiso   1.00
C52    C     0.32244   0.02498   0.36379   0.00000  Uiso   1.00
C53    C     0.32761   0.04579   0.29021   0.00000  Uiso   1.00
C54    C     0.34806   0.13257   0.27265   0.00000  Uiso   1.00
C55    C     0.37912   0.26376   0.21571   0.00000  Uiso   1.00
C56    C     0.35070   0.90083   0.44527   0.00000  Uiso   1.00
C57    C     0.37963   0.81727   0.44018   0.00000  Uiso   1.00
C58    C     0.42388   0.79954   0.49120   0.00000  Uiso   1.00
C59    C     0.49880   0.73797   0.56076   0.00000  Uiso   1.00
C60    C     0.32817   0.05136   0.49482   0.00000  Uiso   1.00
C61    C     0.26325   0.02082   0.49884   0.00000  Uiso   1.00
C62    C     0.22153   0.05062   0.54942   0.00000  Uiso   1.00
C63    C     0.16446   0.01451   0.54394   0.00000  Uiso   1.00
C64    C     0.33719   0.08858   0.41792   0.00000  Uiso   1.00
C65    C     0.35765   0.17535   0.40047   0.00000  Uiso   1.00
C66    C     0.36284   0.19629   0.32688   0.00000  Uiso   1.00
C67    C     0.36545   0.96444   0.49940   0.00000  Uiso   1.00
C68    C     0.40967   0.94683   0.55044   0.00000  Uiso   1.00
C69    C     0.43866   0.86326   0.54543   0.00000  Uiso   1.00
H70    H     0.28953   0.88474   0.35301   0.00000  Uiso   1.00
H71    H     0.18009   0.87184   0.39725   0.00000  Uiso   1.00
H72    H     0.31620   0.99655   0.24833   0.00000  Uiso   1.00
H73    H     0.36820   0.76807   0.39828   0.00000  Uiso   1.00
H74    H     0.06525   0.88562   0.47016   0.00000  Uiso   1.00
H75    H     0.35226   0.14856   0.15615   0.00000  Uiso   1.00
H76    H     0.46193   0.66676   0.47234   0.00000  Uiso   1.00
H77    H     0.33965   0.10088   0.53696   0.00000  Uiso   1.00
H78    H     0.23295   0.09984   0.59130   0.00000  Uiso   1.00
H79    H     0.36906   0.22455   0.44238   0.00000  Uiso   1.00
H80    H     0.42107   0.99607   0.59232   0.00000  Uiso   1.00
H81    H     0.10815   0.07068   0.62765   0.00000  Uiso   1.00
H82    H     0.39517   0.33362   0.31364   0.00000  Uiso   1.00
H83    H     0.50484   0.85181   0.62983   0.00000  Uiso   1.00
O84    O     0.01560   0.97359   0.58132   0.00000  Uiso   1.00
O85    O     0.39216   0.31855   0.16935   0.00000  Uiso   1.00
O86    O     0.53605   0.68643   0.58418   0.00000  Uiso   1.00
N87    N     0.08999   0.92930   0.49978   0.00000  Uiso   1.00
N88    N     0.35832   0.17514   0.20620   0.00000  Uiso   1.00
N89    N     0.46087   0.72471   0.50179   0.00000  Uiso   1.00
N90    N     0.11308   0.02888   0.58452   0.00000  Uiso   1.00
N91    N     0.38141   0.27472   0.29094   0.00000  Uiso   1.00
N92    N     0.48396   0.82428   0.58654   0.00000  Uiso   1.00
C93    C     0.80101   0.56575   0.60484   0.00000  Uiso   1.00
C94    C     0.74850   0.54279   0.55529   0.00000  Uiso   1.00
C95    C     0.69148   0.57894   0.56084   0.00000  Uiso   1.00
C96    C     0.64968   0.54920   0.51029   0.00000  Uiso   1.00
C97    C     0.56590   0.52320   0.44161   0.00000  Uiso   1.00
C98    C     0.82244   0.47502   0.63621   0.00000  Uiso   1.00
C99    C     0.82761   0.45421   0.70979   0.00000  Uiso   1.00
C100   C     0.84806   0.36743   0.72735   0.00000  Uiso   1.00
C101   C     0.87912   0.23624   0.78429   0.00000  Uiso   1.00
C102   C     0.85070   0.59917   0.55473   0.00000  Uiso   1.00
C103   C     0.87963   0.68273   0.55982   0.00000  Uiso   1.00
C104   C     0.92388   0.70046   0.50880   0.00000  Uiso   1.00
C105   C     0.99880   0.76203   0.43924   0.00000  Uiso   1.00
C106   C     0.82817   0.44864   0.50518   0.00000  Uiso   1.00
C107   C     0.76325   0.47918   0.50116   0.00000  Uiso   1.00
C108   C     0.72153   0.44938   0.45058   0.00000  Uiso   1.00
C109   C     0.66446   0.48549   0.45606   0.00000  Uiso   1.00
C110   C     0.83719   0.41142   0.58208   0.00000  Uiso   1.00
C111   C     0.85765   0.32465   0.59953   0.00000  Uiso   1.00
C112   C     0.86284   0.30371   0.67312   0.00000  Uiso   1.00
C113   C     0.86545   0.53556   0.50060   0.00000  Uiso   1.00
C114   C     0.90967   0.55317   0.44956   0.00000  Uiso   1.00
C115   C     0.93866   0.63674   0.45457   0.00000  Uiso   1.00
H116   H     0.78953   0.61526   0.64699   0.00000  Uiso   1.00
H117   H     0.68009   0.62816   0.60275   0.00000  Uiso   1.00
H118   H     0.81620   0.50345   0.75167   0.00000  Uiso   1.00
H119   H     0.86820   0.73193   0.60172   0.00000  Uiso   1.00
H120   H     0.56525   0.61438   0.52984   0.00000  Uiso   1.00
H121   H     0.85226   0.35144   0.84385   0.00000  Uiso   1.00
H122   H     0.96193   0.83324   0.52766   0.00000  Uiso   1.00
H123   H     0.83965   0.39912   0.46304   0.00000  Uiso   1.00
H124   H     0.73295   0.40016   0.40870   0.00000  Uiso   1.00
H125   H     0.86906   0.27545   0.55762   0.00000  Uiso   1.00
H126   H     0.92107   0.50393   0.40768   0.00000  Uiso   1.00
H127   H     0.60815   0.42932   0.37235   0.00000  Uiso   1.00
H128   H     0.89517   0.16638   0.68636   0.00000  Uiso   1.00
H129   H     0.00484   0.64819   0.37017   0.00000  Uiso   1.00
O130   O     0.51560   0.52641   0.41868   0.00000  Uiso   1.00
O131   O     0.89216   0.18145   0.83065   0.00000  Uiso   1.00
O132   O     0.03605   0.81357   0.41582   0.00000  Uiso   1.00
N133   N     0.58999   0.57070   0.50022   0.00000  Uiso   1.00
N134   N     0.85832   0.32486   0.79380   0.00000  Uiso   1.00
N135   N     0.96087   0.77529   0.49821   0.00000  Uiso   1.00
N136   N     0.61308   0.47112   0.41548   0.00000  Uiso   1.00
N137   N     0.88141   0.22528   0.70906   0.00000  Uiso   1.00
N138   N     0.98396   0.67572   0.41346   0.00000  Uiso   1.00
C139   C     0.69899   0.93425   0.10484   0.00000  Uiso   1.00
C140   C     0.75150   0.95721   0.05529   0.00000  Uiso   1.00
C141   C     0.80852   0.92106   0.06084   0.00000  Uiso   1.00
C142   C     0.85032   0.95080   0.01029   0.00000  Uiso   1.00
C143   C     0.93410   0.97680   0.94161   0.00000  Uiso   1.00
C144   C     0.67756   0.02498   0.13621   0.00000  Uiso   1.00
C145   C     0.67239   0.04579   0.20979   0.00000  Uiso   1.00
C146   C     0.65194   0.13257   0.22735   0.00000  Uiso   1.00
C147   C     0.62088   0.26376   0.28429   0.00000  Uiso   1.00
C148   C     0.64930   0.90083   0.05473   0.00000  Uiso   1.00
C149   C     0.62037   0.81727   0.05982   0.00000  Uiso   1.00
C150   C     0.57612   0.79954   0.00880   0.00000  Uiso   1.00
C151   C     0.50120   0.73797   0.93924   0.00000  Uiso   1.00
C152   C     0.67183   0.05136   0.00518   0.00000  Uiso   1.00
C153   C     0.73675   0.02082   0.00116   0.00000  Uiso   1.00
C154   C     0.77847   0.05062   0.95058   0.00000  Uiso   1.00
C155   C     0.83554   0.01451   0.95606   0.00000  Uiso   1.00
C156   C     0.66281   0.08858   0.08208   0.00000  Uiso   1.00
C157   C     0.64235   0.17535   0.09953   0.00000  Uiso   1.00
C158   C     0.63716   0.19629   0.17312   0.00000  Uiso   1.00
C159   C     0.63455   0.96444   0.00060   0.00000  Uiso   1.00
C160   C     0.59033   0.94683   0.94956   0.00000  Uiso   1.00
C161   C     0.56134   0.86326   0.95457   0.00000  Uiso   1.00
H162   H     0.71047   0.88474   0.14699   0.00000  Uiso   1.00
H163   H     0.81991   0.87184   0.10275   0.00000  Uiso   1.00
H164   H     0.68380   0.99655   0.25167   0.00000  Uiso   1.00
H165   H     0.63180   0.76807   0.10172   0.00000  Uiso   1.00
H166   H     0.93475   0.88562   0.02984   0.00000  Uiso   1.00
H167   H     0.64774   0.14856   0.34385   0.00000  Uiso   1.00
H168   H     0.53807   0.66676   0.02766   0.00000  Uiso   1.00
H169   H     0.66035   0.10088   0.96304   0.00000  Uiso   1.00
H170   H     0.76705   0.09984   0.90870   0.00000  Uiso   1.00
H171   H     0.63094   0.22455   0.05762   0.00000  Uiso   1.00
H172   H     0.57893   0.99607   0.90768   0.00000  Uiso   1.00
H173   H     0.89185   0.07068   0.87235   0.00000  Uiso   1.00
H174   H     0.60483   0.33362   0.18636   0.00000  Uiso   1.00
H175   H     0.49516   0.85181   0.87017   0.00000  Uiso   1.00
O176   O     0.98440   0.97359   0.91868   0.00000  Uiso   1.00
O177   O     0.60784   0.31855   0.33065   0.00000  Uiso   1.00
O178   O     0.46395   0.68643   0.91582   0.00000  Uiso   1.00
N179   N     0.91001   0.92930   0.00022   0.00000  Uiso   1.00
N180   N     0.64168   0.17514   0.29380   0.00000  Uiso   1.00
N181   N     0.53913   0.72471   0.99821   0.00000  Uiso   1.00
N182   N     0.88692   0.02888   0.91548   0.00000  Uiso   1.00
N183   N     0.61859   0.27472   0.20906   0.00000  Uiso   1.00
N184   N     0.51604   0.82428   0.91346   0.00000  Uiso   1.00
C185   C     0.80101   0.43425   0.10484   0.00000  Uiso   1.00
C186   C     0.74850   0.45721   0.05529   0.00000  Uiso   1.00
C187   C     0.69148   0.42106   0.06084   0.00000  Uiso   1.00
C188   C     0.64968   0.45080   0.01029   0.00000  Uiso   1.00
C189   C     0.56590   0.47680   0.94161   0.00000  Uiso   1.00
C190   C     0.82244   0.52498   0.13621   0.00000  Uiso   1.00
C191   C     0.82761   0.54579   0.20979   0.00000  Uiso   1.00
C192   C     0.84806   0.63257   0.22735   0.00000  Uiso   1.00
C193   C     0.87912   0.76376   0.28429   0.00000  Uiso   1.00
C194   C     0.85070   0.40083   0.05473   0.00000  Uiso   1.00
C195   C     0.87963   0.31727   0.05982   0.00000  Uiso   1.00
C196   C     0.92388   0.29954   0.00880   0.00000  Uiso   1.00
C197   C     0.99880   0.23797   0.93924   0.00000  Uiso   1.00
C198   C     0.82817   0.55136   0.00518   0.00000  Uiso   1.00
C199   C     0.76325   0.52082   0.00116   0.00000  Uiso   1.00
C200   C     0.72153   0.55062   0.95058   0.00000  Uiso   1.00
C201   C     0.66446   0.51451   0.95606   0.00000  Uiso   1.00
C202   C     0.83719   0.58858   0.08208   0.00000  Uiso   1.00
C203   C     0.85765   0.67535   0.09953   0.00000  Uiso   1.00
C204   C     0.86284   0.69629   0.17312   0.00000  Uiso   1.00
C205   C     0.86545   0.46444   0.00060   0.00000  Uiso   1.00
C206   C     0.90967   0.44683   0.94956   0.00000  Uiso   1.00
C207   C     0.93866   0.36326   0.95457   0.00000  Uiso   1.00
H208   H     0.78953   0.38474   0.14699   0.00000  Uiso   1.00
H209   H     0.68009   0.37184   0.10275   0.00000  Uiso   1.00
H210   H     0.81620   0.49655   0.25167   0.00000  Uiso   1.00
H211   H     0.86820   0.26807   0.10172   0.00000  Uiso   1.00
H212   H     0.56525   0.38562   0.02984   0.00000  Uiso   1.00
H213   H     0.85226   0.64856   0.34385   0.00000  Uiso   1.00
H214   H     0.96193   0.16676   0.02766   0.00000  Uiso   1.00
H215   H     0.83965   0.60088   0.96304   0.00000  Uiso   1.00
H216   H     0.73295   0.59984   0.90870   0.00000  Uiso   1.00
H217   H     0.86906   0.72455   0.05762   0.00000  Uiso   1.00
H218   H     0.92107   0.49607   0.90768   0.00000  Uiso   1.00
H219   H     0.60815   0.57068   0.87235   0.00000  Uiso   1.00
H220   H     0.89517   0.83362   0.18636   0.00000  Uiso   1.00
H221   H     0.00484   0.35181   0.87017   0.00000  Uiso   1.00
O222   O     0.51560   0.47359   0.91868   0.00000  Uiso   1.00
O223   O     0.89216   0.81855   0.33065   0.00000  Uiso   1.00
O224   O     0.03605   0.18643   0.91582   0.00000  Uiso   1.00
N225   N     0.58999   0.42930   0.00022   0.00000  Uiso   1.00
N226   N     0.85832   0.67514   0.29380   0.00000  Uiso   1.00
N227   N     0.96087   0.22471   0.99821   0.00000  Uiso   1.00
N228   N     0.61308   0.52888   0.91548   0.00000  Uiso   1.00
N229   N     0.88141   0.77472   0.20906   0.00000  Uiso   1.00
N230   N     0.98396   0.32428   0.91346   0.00000  Uiso   1.00
C231   C     0.69899   0.06575   0.60484   0.00000  Uiso   1.00
C232   C     0.75150   0.04279   0.55529   0.00000  Uiso   1.00
C233   C     0.80852   0.07894   0.56084   0.00000  Uiso   1.00
C234   C     0.85032   0.04920   0.51029   0.00000  Uiso   1.00
C235   C     0.93410   0.02320   0.44161   0.00000  Uiso   1.00
C236   C     0.67756   0.97502   0.63621   0.00000  Uiso   1.00
C237   C     0.67239   0.95421   0.70979   0.00000  Uiso   1.00
C238   C     0.65194   0.86743   0.72735   0.00000  Uiso   1.00
C239   C     0.62088   0.73624   0.78429   0.00000  Uiso   1.00
C240   C     0.64930   0.09917   0.55473   0.00000  Uiso   1.00
C241   C     0.62037   0.18273   0.55982   0.00000  Uiso   1.00
C242   C     0.57612   0.20046   0.50880   0.00000  Uiso   1.00
C243   C     0.50120   0.26203   0.43924   0.00000  Uiso   1.00
C244   C     0.67183   0.94864   0.50518   0.00000  Uiso   1.00
C245   C     0.73675   0.97918   0.50116   0.00000  Uiso   1.00
C246   C     0.77847   0.94938   0.45058   0.00000  Uiso   1.00
C247   C     0.83554   0.98549   0.45606   0.00000  Uiso   1.00
C248   C     0.66281   0.91142   0.58208   0.00000  Uiso   1.00
C249   C     0.64235   0.82465   0.59953   0.00000  Uiso   1.00
C250   C     0.63716   0.80371   0.67312   0.00000  Uiso   1.00
C251   C     0.63455   0.03556   0.50060   0.00000  Uiso   1.00
C252   C     0.59033   0.05317   0.44956   0.00000  Uiso   1.00
C253   C     0.56134   0.13674   0.45457   0.00000  Uiso   1.00
H254   H     0.71047   0.11526   0.64699   0.00000  Uiso   1.00
H255   H     0.81991   0.12816   0.60275   0.00000  Uiso   1.00
H256   H     0.68380   0.00345   0.75167   0.00000  Uiso   1.00
H257   H     0.63180   0.23193   0.60172   0.00000  Uiso   1.00
H258   H     0.93475   0.11438   0.52984   0.00000  Uiso   1.00
H259   H     0.64774   0.85144   0.84385   0.00000  Uiso   1.00
H260   H     0.53807   0.33324   0.52766   0.00000  Uiso   1.00
H261   H     0.66035   0.89912   0.46304   0.00000  Uiso   1.00
H262   H     0.76705   0.90016   0.40870   0.00000  Uiso   1.00
H263   H     0.63094   0.77545   0.55762   0.00000  Uiso   1.00
H264   H     0.57893   0.00393   0.40768   0.00000  Uiso   1.00
H265   H     0.89185   0.92932   0.37235   0.00000  Uiso   1.00
H266   H     0.60483   0.66638   0.68636   0.00000  Uiso   1.00
H267   H     0.49516   0.14819   0.37017   0.00000  Uiso   1.00
O268   O     0.98440   0.02641   0.41868   0.00000  Uiso   1.00
O269   O     0.60784   0.68145   0.83065   0.00000  Uiso   1.00
O270   O     0.46395   0.31357   0.41582   0.00000  Uiso   1.00
N271   N     0.91001   0.07070   0.50022   0.00000  Uiso   1.00
N272   N     0.64168   0.82486   0.79380   0.00000  Uiso   1.00
N273   N     0.53913   0.27529   0.49821   0.00000  Uiso   1.00
N274   N     0.88692   0.97112   0.41548   0.00000  Uiso   1.00
N275   N     0.61859   0.72528   0.70906   0.00000  Uiso   1.00
N276   N     0.51604   0.17572   0.41346   0.00000  Uiso   1.00
C277   C     0.19899   0.43425   0.39516   0.00000  Uiso   1.00
C278   C     0.25150   0.45721   0.44471   0.00000  Uiso   1.00
C279   C     0.30852   0.42106   0.43916   0.00000  Uiso   1.00
C280   C     0.35032   0.45080   0.48971   0.00000  Uiso   1.00
C281   C     0.43410   0.47680   0.55839   0.00000  Uiso   1.00
C282   C     0.17756   0.52498   0.36379   0.00000  Uiso   1.00
C283   C     0.17239   0.54579   0.29021   0.00000  Uiso   1.00
C284   C     0.15194   0.63257   0.27265   0.00000  Uiso   1.00
C285   C     0.12088   0.76376   0.21571   0.00000  Uiso   1.00
C286   C     0.14930   0.40083   0.44527   0.00000  Uiso   1.00
C287   C     0.12037   0.31727   0.44018   0.00000  Uiso   1.00
C288   C     0.07612   0.29954   0.49120   0.00000  Uiso   1.00
C289   C     0.00120   0.23797   0.56076   0.00000  Uiso   1.00
C290   C     0.17183   0.55136   0.49482   0.00000  Uiso   1.00
C291   C     0.23675   0.52082   0.49884   0.00000  Uiso   1.00
C292   C     0.27847   0.55062   0.54942   0.00000  Uiso   1.00
C293   C     0.33554   0.51451   0.54394   0.00000  Uiso   1.00
C294   C     0.16281   0.58858   0.41792   0.00000  Uiso   1.00
C295   C     0.14235   0.67535   0.40047   0.00000  Uiso   1.00
C296   C     0.13716   0.69629   0.32688   0.00000  Uiso   1.00
C297   C     0.13455   0.46444   0.49940   0.00000  Uiso   1.00
C298   C     0.09033   0.44683   0.55044   0.00000  Uiso   1.00
C299   C     0.06134   0.36326   0.54543   0.00000  Uiso   1.00
H300   H     0.21047   0.38474   0.35301   0.00000  Uiso   1.00
H301   H     0.31991   0.37184   0.39725   0.00000  Uiso   1.00
H302   H     0.18380   0.49655   0.24833   0.00000  Uiso   1.00
H303   H     0.13180   0.26807   0.39828   0.00000  Uiso   1.00
H304   H     0.43475   0.38562   0.47016   0.00000  Uiso   1.00
H305   H     0.14774   0.64856   0.15615   0.00000  Uiso   1.00
H306   H     0.03807   0.16676   0.47234   0.00000  Uiso   1.00
H307   H     0.16035   0.60088   0.53696   0.00000  Uiso   1.00
H308   H     0.26705   0.59984   0.59130   0.00000  Uiso   1.00
H309   H     0.13094   0.72455   0.44238   0.00000  Uiso   1.00
H310   H     0.07893   0.49607   0.59232   0.00000  Uiso   1.00
H311   H     0.39185   0.57068   0.62765   0.00000  Uiso   1.00
H312   H     0.10483   0.83362   0.31364   0.00000  Uiso   1.00
H313   H     0.99516   0.35181   0.62983   0.00000  Uiso   1.00
O314   O     0.48440   0.47359   0.58132   0.00000  Uiso   1.00
O315   O     0.10784   0.81855   0.16935   0.00000  Uiso   1.00
O316   O     0.96395   0.18643   0.58418   0.00000  Uiso   1.00
N317   N     0.41001   0.42930   0.49978   0.00000  Uiso   1.00
N318   N     0.14168   0.67514   0.20620   0.00000  Uiso   1.00
N319   N     0.03913   0.22471   0.50179   0.00000  Uiso   1.00
N320   N     0.38692   0.52888   0.58452   0.00000  Uiso   1.00
N321   N     0.11859   0.77472   0.29094   0.00000  Uiso   1.00
N322   N     0.01604   0.32428   0.58654   0.00000  Uiso   1.00
C323   C     0.30101   0.06575   0.89516   0.00000  Uiso   1.00
C324   C     0.24850   0.04279   0.94471   0.00000  Uiso   1.00
C325   C     0.19148   0.07894   0.93916   0.00000  Uiso   1.00
C326   C     0.14968   0.04920   0.98971   0.00000  Uiso   1.00
C327   C     0.06590   0.02320   0.05839   0.00000  Uiso   1.00
C328   C     0.32244   0.97502   0.86379   0.00000  Uiso   1.00
C329   C     0.32761   0.95421   0.79021   0.00000  Uiso   1.00
C330   C     0.34806   0.86743   0.77265   0.00000  Uiso   1.00
C331   C     0.37912   0.73624   0.71571   0.00000  Uiso   1.00
C332   C     0.35070   0.09917   0.94527   0.00000  Uiso   1.00
C333   C     0.37963   0.18273   0.94018   0.00000  Uiso   1.00
C334   C     0.42388   0.20046   0.99120   0.00000  Uiso   1.00
C335   C     0.49880   0.26203   0.06076   0.00000  Uiso   1.00
C336   C     0.32817   0.94864   0.99482   0.00000  Uiso   1.00
C337   C     0.26325   0.97918   0.99884   0.00000  Uiso   1.00
C338   C     0.22153   0.94938   0.04942   0.00000  Uiso   1.00
C339   C     0.16446   0.98549   0.04394   0.00000  Uiso   1.00
C340   C     0.33719   0.91142   0.91792   0.00000  Uiso   1.00
C341   C     0.35765   0.82465   0.90047   0.00000  Uiso   1.00
C342   C     0.36284   0.80371   0.82688   0.00000  Uiso   1.00
C343   C     0.36545   0.03556   0.99940   0.00000  Uiso   1.00
C344   C     0.40967   0.05317   0.05044   0.00000  Uiso   1.00
C345   C     0.43866   0.13674   0.04543   0.00000  Uiso   1.00
H346   H     0.28953   0.11526   0.85301   0.00000  Uiso   1.00
H347   H     0.18009   0.12816   0.89725   0.00000  Uiso   1.00
H348   H     0.31620   0.00345   0.74833   0.00000  Uiso   1.00
H349   H     0.36820   0.23193   0.89828   0.00000  Uiso   1.00
H350   H     0.06525   0.11438   0.97016   0.00000  Uiso   1.00
H351   H     0.35226   0.85144   0.65615   0.00000  Uiso   1.00
H352   H     0.46193   0.33324   0.97234   0.00000  Uiso   1.00
H353   H     0.33965   0.89912   0.03696   0.00000  Uiso   1.00
H354   H     0.23295   0.90016   0.09130   0.00000  Uiso   1.00
H355   H     0.36906   0.77545   0.94238   0.00000  Uiso   1.00
H356   H     0.42107   0.00393   0.09232   0.00000  Uiso   1.00
H357   H     0.10815   0.92932   0.12765   0.00000  Uiso   1.00
H358   H     0.39517   0.66638   0.81364   0.00000  Uiso   1.00
H359   H     0.50484   0.14819   0.12983   0.00000  Uiso   1.00
O360   O     0.01560   0.02641   0.08132   0.00000  Uiso   1.00
O361   O     0.39216   0.68145   0.66935   0.00000  Uiso   1.00
O362   O     0.53605   0.31357   0.08418   0.00000  Uiso   1.00
N363   N     0.08999   0.07070   0.99978   0.00000  Uiso   1.00
N364   N     0.35832   0.82486   0.70620   0.00000  Uiso   1.00
N365   N     0.46087   0.27529   0.00179   0.00000  Uiso   1.00
N366   N     0.11308   0.97112   0.08452   0.00000  Uiso   1.00
N367   N     0.38141   0.72528   0.79094   0.00000  Uiso   1.00
N368   N     0.48396   0.17572   0.08654   0.00000  Uiso   1.00
