data_job_01938
_audit_creation_date              2018-12-19
_audit_creation_method            'Materials Studio'
_symmetry_space_group_name_H-M    'P1'
_symmetry_Int_Tables_number       1
_symmetry_cell_setting            triclinic
loop_
_symmetry_equiv_pos_as_xyz
  x,y,z
_cell_length_a                    15.0579
_cell_length_b                    12.0347
_cell_length_c                    22.2776
_cell_angle_alpha                 90.0000
_cell_angle_beta                  131.5174
_cell_angle_gamma                 90.0000
loop_
_atom_site_label
_atom_site_type_symbol
_atom_site_fract_x
_atom_site_fract_y
_atom_site_fract_z
_atom_site_U_iso_or_equiv
_atom_site_adp_type
_atom_site_occupancy
C1     C     0.60707   0.60748   0.75492   0.00000  Uiso   1.00
C2     C     0.55228   0.53329   0.68231   0.00000  Uiso   1.00
C3     C     0.45082   0.55698   0.60399   0.00000  Uiso   1.00
C4     C     0.41507   0.47837   0.54610   0.00000  Uiso   1.00
C5     C     0.32031   0.37815   0.43034   0.00000  Uiso   1.00
C6     C     0.61419   0.53679   0.81480   0.00000  Uiso   1.00
C7     C     0.56480   0.56343   0.84789   0.00000  Uiso   1.00
C8     C     0.58118   0.48778   0.90154   0.00000  Uiso   1.00
C9     C     0.58260   0.39303   0.99154   0.00000  Uiso   1.00
C10    C     0.73486   0.62782   0.79264   0.00000  Uiso   1.00
C11    C     0.78694   0.73102   0.80711   0.00000  Uiso   1.00
C12    C     0.90493   0.73201   0.84212   0.00000  Uiso   1.00
C13    C     0.09370   0.77862   0.89770   0.00000  Uiso   1.00
C14    C     0.72401   0.42575   0.79139   0.00000  Uiso   1.00
C15    C     0.61580   0.43457   0.70212   0.00000  Uiso   1.00
C16    C     0.58020   0.35591   0.64433   0.00000  Uiso   1.00
C17    C     0.47870   0.37948   0.56594   0.00000  Uiso   1.00
C18    C     0.67770   0.43808   0.83461   0.00000  Uiso   1.00
C19    C     0.69417   0.36237   0.88823   0.00000  Uiso   1.00
C20    C     0.64481   0.38889   0.92139   0.00000  Uiso   1.00
C21    C     0.79838   0.52911   0.81244   0.00000  Uiso   1.00
C22    C     0.91631   0.52994   0.84745   0.00000  Uiso   1.00
C23    C     0.96855   0.63312   0.86196   0.00000  Uiso   1.00
H24    H     0.55762   0.68433   0.73950   0.00000  Uiso   1.00
H25    H     0.40169   0.63338   0.58868   0.00000  Uiso   1.00
H26    H     0.51566   0.63983   0.83256   0.00000  Uiso   1.00
H27    H     0.73776   0.80739   0.79177   0.00000  Uiso   1.00
H28    H     0.25679   0.53333   0.43021   0.00000  Uiso   1.00
H29    H     0.49714   0.54697   0.94445   0.00000  Uiso   1.00
H30    H     0.96549   0.90029   0.85846   0.00000  Uiso   1.00
H31    H     0.77346   0.34889   0.80681   0.00000  Uiso   1.00
H32    H     0.62937   0.27953   0.65968   0.00000  Uiso   1.00
H33    H     0.74333   0.28599   0.90355   0.00000  Uiso   1.00
H34    H     0.96543   0.45354   0.86277   0.00000  Uiso   1.00
H35    H     0.44158   0.24613   0.48783   0.00000  Uiso   1.00
H36    H     0.68193   0.25977   0.00207   0.00000  Uiso   1.00
H37    H     0.15027   0.61309   0.91608   0.00000  Uiso   1.00
O38    O     0.25048   0.35014   0.36103   0.00000  Uiso   1.00
O39    O     0.56583   0.36804   0.03569   0.00000  Uiso   1.00
O40    O     0.18028   0.83159   0.92287   0.00000  Uiso   1.00
N41    N     0.32007   0.47527   0.46396   0.00000  Uiso   1.00
N42    N     0.54476   0.48801   0.94473   0.00000  Uiso   1.00
N43    N     0.98264   0.81834   0.86436   0.00000  Uiso   1.00
N44    N     0.41950   0.32073   0.49497   0.00000  Uiso   1.00
N45    N     0.64420   0.33347   0.97574   0.00000  Uiso   1.00
N46    N     0.08207   0.66380   0.89536   0.00000  Uiso   1.00
C47    C     0.39293   0.10748   0.74508   0.00000  Uiso   1.00
C48    C     0.44772   0.03329   0.81769   0.00000  Uiso   1.00
C49    C     0.54918   0.05698   0.89601   0.00000  Uiso   1.00
C50    C     0.58493   0.97837   0.95390   0.00000  Uiso   1.00
C51    C     0.67969   0.87815   0.06966   0.00000  Uiso   1.00
C52    C     0.38581   0.03679   0.68520   0.00000  Uiso   1.00
C53    C     0.43520   0.06343   0.65211   0.00000  Uiso   1.00
C54    C     0.41882   0.98778   0.59846   0.00000  Uiso   1.00
C55    C     0.41740   0.89303   0.50846   0.00000  Uiso   1.00
C56    C     0.26514   0.12782   0.70736   0.00000  Uiso   1.00
C57    C     0.21306   0.23102   0.69289   0.00000  Uiso   1.00
C58    C     0.09507   0.23201   0.65788   0.00000  Uiso   1.00
C59    C     0.90630   0.27862   0.60230   0.00000  Uiso   1.00
C60    C     0.27599   0.92575   0.70861   0.00000  Uiso   1.00
C61    C     0.38420   0.93457   0.79788   0.00000  Uiso   1.00
C62    C     0.41980   0.85591   0.85567   0.00000  Uiso   1.00
C63    C     0.52130   0.87948   0.93406   0.00000  Uiso   1.00
C64    C     0.32230   0.93808   0.66539   0.00000  Uiso   1.00
C65    C     0.30583   0.86237   0.61177   0.00000  Uiso   1.00
C66    C     0.35519   0.88889   0.57861   0.00000  Uiso   1.00
C67    C     0.20162   0.02911   0.68756   0.00000  Uiso   1.00
C68    C     0.08369   0.02994   0.65255   0.00000  Uiso   1.00
C69    C     0.03145   0.13312   0.63804   0.00000  Uiso   1.00
H70    H     0.44238   0.18433   0.76050   0.00000  Uiso   1.00
H71    H     0.59831   0.13338   0.91132   0.00000  Uiso   1.00
H72    H     0.48434   0.13983   0.66744   0.00000  Uiso   1.00
H73    H     0.26224   0.30739   0.70823   0.00000  Uiso   1.00
H74    H     0.74321   0.03333   0.06979   0.00000  Uiso   1.00
H75    H     0.50286   0.04697   0.55555   0.00000  Uiso   1.00
H76    H     0.03451   0.40029   0.64154   0.00000  Uiso   1.00
H77    H     0.22654   0.84889   0.69319   0.00000  Uiso   1.00
H78    H     0.37063   0.77953   0.84032   0.00000  Uiso   1.00
H79    H     0.25667   0.78599   0.59645   0.00000  Uiso   1.00
H80    H     0.03457   0.95354   0.63723   0.00000  Uiso   1.00
H81    H     0.55842   0.74613   0.01217   0.00000  Uiso   1.00
H82    H     0.31807   0.75977   0.49793   0.00000  Uiso   1.00
H83    H     0.84973   0.11309   0.58392   0.00000  Uiso   1.00
O84    O     0.74952   0.85014   0.13897   0.00000  Uiso   1.00
O85    O     0.43417   0.86804   0.46431   0.00000  Uiso   1.00
O86    O     0.81972   0.33159   0.57713   0.00000  Uiso   1.00
N87    N     0.67993   0.97527   0.03604   0.00000  Uiso   1.00
N88    N     0.45524   0.98801   0.55527   0.00000  Uiso   1.00
N89    N     0.01736   0.31834   0.63564   0.00000  Uiso   1.00
N90    N     0.58050   0.82073   0.00503   0.00000  Uiso   1.00
N91    N     0.35580   0.83347   0.52426   0.00000  Uiso   1.00
N92    N     0.91793   0.16380   0.60464   0.00000  Uiso   1.00
C93    C     0.39293   0.39252   0.24508   0.00000  Uiso   1.00
C94    C     0.44772   0.46671   0.31769   0.00000  Uiso   1.00
C95    C     0.54918   0.44302   0.39601   0.00000  Uiso   1.00
C96    C     0.58493   0.52163   0.45390   0.00000  Uiso   1.00
C97    C     0.67969   0.62185   0.56966   0.00000  Uiso   1.00
C98    C     0.38581   0.46321   0.18520   0.00000  Uiso   1.00
C99    C     0.43520   0.43657   0.15211   0.00000  Uiso   1.00
C100   C     0.41882   0.51222   0.09846   0.00000  Uiso   1.00
C101   C     0.41740   0.60697   0.00846   0.00000  Uiso   1.00
C102   C     0.26514   0.37218   0.20736   0.00000  Uiso   1.00
C103   C     0.21306   0.26898   0.19289   0.00000  Uiso   1.00
C104   C     0.09507   0.26799   0.15788   0.00000  Uiso   1.00
C105   C     0.90630   0.22138   0.10230   0.00000  Uiso   1.00
C106   C     0.27599   0.57425   0.20861   0.00000  Uiso   1.00
C107   C     0.38420   0.56543   0.29788   0.00000  Uiso   1.00
C108   C     0.41980   0.64409   0.35567   0.00000  Uiso   1.00
C109   C     0.52130   0.62052   0.43406   0.00000  Uiso   1.00
C110   C     0.32230   0.56192   0.16539   0.00000  Uiso   1.00
C111   C     0.30583   0.63763   0.11177   0.00000  Uiso   1.00
C112   C     0.35519   0.61111   0.07861   0.00000  Uiso   1.00
C113   C     0.20162   0.47089   0.18756   0.00000  Uiso   1.00
C114   C     0.08369   0.47006   0.15255   0.00000  Uiso   1.00
C115   C     0.03145   0.36688   0.13804   0.00000  Uiso   1.00
H116   H     0.44238   0.31567   0.26050   0.00000  Uiso   1.00
H117   H     0.59831   0.36662   0.41132   0.00000  Uiso   1.00
H118   H     0.48434   0.36017   0.16744   0.00000  Uiso   1.00
H119   H     0.26224   0.19261   0.20823   0.00000  Uiso   1.00
H120   H     0.74321   0.46667   0.56979   0.00000  Uiso   1.00
H121   H     0.50286   0.45303   0.05555   0.00000  Uiso   1.00
H122   H     0.03451   0.09971   0.14154   0.00000  Uiso   1.00
H123   H     0.22654   0.65111   0.19319   0.00000  Uiso   1.00
H124   H     0.37063   0.72047   0.34032   0.00000  Uiso   1.00
H125   H     0.25667   0.71401   0.09645   0.00000  Uiso   1.00
H126   H     0.03457   0.54646   0.13723   0.00000  Uiso   1.00
H127   H     0.55842   0.75387   0.51217   0.00000  Uiso   1.00
H128   H     0.31807   0.74023   0.99793   0.00000  Uiso   1.00
H129   H     0.84973   0.38691   0.08392   0.00000  Uiso   1.00
O130   O     0.74952   0.64986   0.63897   0.00000  Uiso   1.00
O131   O     0.43417   0.63196   0.96431   0.00000  Uiso   1.00
O132   O     0.81972   0.16841   0.07713   0.00000  Uiso   1.00
N133   N     0.67993   0.52473   0.53604   0.00000  Uiso   1.00
N134   N     0.45524   0.51199   0.05527   0.00000  Uiso   1.00
N135   N     0.01736   0.18166   0.13564   0.00000  Uiso   1.00
N136   N     0.58050   0.67927   0.50503   0.00000  Uiso   1.00
N137   N     0.35580   0.66653   0.02426   0.00000  Uiso   1.00
N138   N     0.91793   0.33620   0.10464   0.00000  Uiso   1.00
C139   C     0.60707   0.89252   0.25492   0.00000  Uiso   1.00
C140   C     0.55228   0.96671   0.18231   0.00000  Uiso   1.00
C141   C     0.45082   0.94302   0.10399   0.00000  Uiso   1.00
C142   C     0.41507   0.02163   0.04610   0.00000  Uiso   1.00
C143   C     0.32031   0.12185   0.93034   0.00000  Uiso   1.00
C144   C     0.61419   0.96321   0.31480   0.00000  Uiso   1.00
C145   C     0.56480   0.93657   0.34789   0.00000  Uiso   1.00
C146   C     0.58118   0.01222   0.40154   0.00000  Uiso   1.00
C147   C     0.58260   0.10697   0.49154   0.00000  Uiso   1.00
C148   C     0.73486   0.87218   0.29264   0.00000  Uiso   1.00
C149   C     0.78694   0.76898   0.30711   0.00000  Uiso   1.00
C150   C     0.90493   0.76799   0.34212   0.00000  Uiso   1.00
C151   C     0.09370   0.72138   0.39770   0.00000  Uiso   1.00
C152   C     0.72401   0.07425   0.29139   0.00000  Uiso   1.00
C153   C     0.61580   0.06543   0.20212   0.00000  Uiso   1.00
C154   C     0.58020   0.14409   0.14433   0.00000  Uiso   1.00
C155   C     0.47870   0.12052   0.06594   0.00000  Uiso   1.00
C156   C     0.67770   0.06192   0.33461   0.00000  Uiso   1.00
C157   C     0.69417   0.13763   0.38823   0.00000  Uiso   1.00
C158   C     0.64481   0.11111   0.42139   0.00000  Uiso   1.00
C159   C     0.79838   0.97089   0.31244   0.00000  Uiso   1.00
C160   C     0.91631   0.97006   0.34745   0.00000  Uiso   1.00
C161   C     0.96855   0.86688   0.36196   0.00000  Uiso   1.00
H162   H     0.55762   0.81567   0.23950   0.00000  Uiso   1.00
H163   H     0.40169   0.86662   0.08868   0.00000  Uiso   1.00
H164   H     0.51566   0.86017   0.33256   0.00000  Uiso   1.00
H165   H     0.73776   0.69261   0.29177   0.00000  Uiso   1.00
H166   H     0.25679   0.96667   0.93021   0.00000  Uiso   1.00
H167   H     0.49714   0.95303   0.44445   0.00000  Uiso   1.00
H168   H     0.96549   0.59971   0.35846   0.00000  Uiso   1.00
H169   H     0.77346   0.15111   0.30681   0.00000  Uiso   1.00
H170   H     0.62937   0.22047   0.15968   0.00000  Uiso   1.00
H171   H     0.74333   0.21401   0.40355   0.00000  Uiso   1.00
H172   H     0.96543   0.04646   0.36277   0.00000  Uiso   1.00
H173   H     0.44158   0.25387   0.98783   0.00000  Uiso   1.00
H174   H     0.68193   0.24023   0.50207   0.00000  Uiso   1.00
H175   H     0.15027   0.88691   0.41608   0.00000  Uiso   1.00
O176   O     0.25048   0.14986   0.86103   0.00000  Uiso   1.00
O177   O     0.56583   0.13196   0.53569   0.00000  Uiso   1.00
O178   O     0.18028   0.66841   0.42287   0.00000  Uiso   1.00
N179   N     0.32007   0.02473   0.96396   0.00000  Uiso   1.00
N180   N     0.54476   0.01199   0.44473   0.00000  Uiso   1.00
N181   N     0.98264   0.68166   0.36436   0.00000  Uiso   1.00
N182   N     0.41950   0.17927   0.99497   0.00000  Uiso   1.00
N183   N     0.64420   0.16653   0.47574   0.00000  Uiso   1.00
N184   N     0.08207   0.83620   0.39536   0.00000  Uiso   1.00
