data_job_03506
_audit_creation_date              2018-12-19
_audit_creation_method            'Materials Studio'
_symmetry_space_group_name_H-M    'P1'
_symmetry_Int_Tables_number       1
_symmetry_cell_setting            triclinic
loop_
_symmetry_equiv_pos_as_xyz
  x,y,z
_cell_length_a                    16.7291
_cell_length_b                    22.0263
_cell_length_c                    18.6781
_cell_angle_alpha                 90.0000
_cell_angle_beta                  88.1310
_cell_angle_gamma                 90.0000
loop_
_atom_site_label
_atom_site_type_symbol
_atom_site_fract_x
_atom_site_fract_y
_atom_site_fract_z
_atom_site_U_iso_or_equiv
_atom_site_adp_type
_atom_site_occupancy
C1     C     0.65417   0.85313   0.77682   0.00000  Uiso   1.00
C2     C     0.57682   0.88683   0.76200   0.00000  Uiso   1.00
C3     C     0.55795   0.91378   0.69755   0.00000  Uiso   1.00
C4     C     0.48418   0.94242   0.69483   0.00000  Uiso   1.00
C5     C     0.37214   0.99453   0.66277   0.00000  Uiso   1.00
C6     C     0.68965   0.88460   0.84119   0.00000  Uiso   1.00
C7     C     0.76565   0.90967   0.84333   0.00000  Uiso   1.00
C8     C     0.78687   0.93643   0.90728   0.00000  Uiso   1.00
C9     C     0.85003   0.98505   0.99818   0.00000  Uiso   1.00
C10    C     0.62927   0.78998   0.80248   0.00000  Uiso   1.00
C11    C     0.65451   0.73548   0.77209   0.00000  Uiso   1.00
C12    C     0.62489   0.68257   0.80345   0.00000  Uiso   1.00
C13    C     0.59429   0.58426   0.83425   0.00000  Uiso   1.00
C14    C     0.55673   0.85608   0.88659   0.00000  Uiso   1.00
C15    C     0.52390   0.88843   0.82163   0.00000  Uiso   1.00
C16    C     0.45014   0.91704   0.81900   0.00000  Uiso   1.00
C17    C     0.43115   0.94402   0.75456   0.00000  Uiso   1.00
C18    C     0.63673   0.88621   0.90082   0.00000  Uiso   1.00
C19    C     0.65784   0.91293   0.96478   0.00000  Uiso   1.00
C20    C     0.73385   0.93804   0.96701   0.00000  Uiso   1.00
C21    C     0.57634   0.79158   0.86211   0.00000  Uiso   1.00
C22    C     0.54669   0.73874   0.89354   0.00000  Uiso   1.00
C23    C     0.57187   0.68417   0.86319   0.00000  Uiso   1.00
H24    H     0.69538   0.85188   0.73040   0.00000  Uiso   1.00
H25    H     0.59893   0.91253   0.65142   0.00000  Uiso   1.00
H26    H     0.80660   0.90842   0.79718   0.00000  Uiso   1.00
H27    H     0.69546   0.73426   0.72595   0.00000  Uiso   1.00
H28    H     0.46866   0.98050   0.59017   0.00000  Uiso   1.00
H29    H     0.90656   0.97181   0.89751   0.00000  Uiso   1.00
H30    H     0.67221   0.60455   0.74730   0.00000  Uiso   1.00
H31    H     0.51552   0.85732   0.93301   0.00000  Uiso   1.00
H32    H     0.40919   0.91827   0.86515   0.00000  Uiso   1.00
H33    H     0.61687   0.91416   0.01091   0.00000  Uiso   1.00
H34    H     0.50573   0.74000   0.93968   0.00000  Uiso   1.00
H35    H     0.31466   0.98516   0.76364   0.00000  Uiso   1.00
H36    H     0.75257   0.97647   0.07098   0.00000  Uiso   1.00
H37    H     0.51822   0.60921   0.92077   0.00000  Uiso   1.00
O38    O     0.32497   0.02284   0.62861   0.00000  Uiso   1.00
O39    O     0.89949   0.01143   0.03184   0.00000  Uiso   1.00
O40    O     0.59203   0.52960   0.83476   0.00000  Uiso   1.00
N41    N     0.44700   0.97322   0.64030   0.00000  Uiso   1.00
N42    N     0.85641   0.96510   0.92764   0.00000  Uiso   1.00
N43    N     0.63733   0.62175   0.78722   0.00000  Uiso   1.00
N44    N     0.36414   0.97573   0.73365   0.00000  Uiso   1.00
N45    N     0.77354   0.96761   0.02099   0.00000  Uiso   1.00
N46    N     0.55447   0.62426   0.88057   0.00000  Uiso   1.00
C47    C     0.25996   0.35447   0.86514   0.00000  Uiso   1.00
C48    C     0.25792   0.38816   0.93650   0.00000  Uiso   1.00
C49    C     0.19059   0.41360   0.96989   0.00000  Uiso   1.00
C50    C     0.20118   0.44252   0.03495   0.00000  Uiso   1.00
C51    C     0.18657   0.49436   0.14109   0.00000  Uiso   1.00
C52    C     0.32161   0.38734   0.81733   0.00000  Uiso   1.00
C53    C     0.30783   0.41209   0.75052   0.00000  Uiso   1.00
C54    C     0.37203   0.44031   0.71525   0.00000  Uiso   1.00
C55    C     0.45632   0.49083   0.63636   0.00000  Uiso   1.00
C56    C     0.29529   0.29210   0.88007   0.00000  Uiso   1.00
C57    C     0.25939   0.23675   0.86601   0.00000  Uiso   1.00
C58    C     0.30145   0.18478   0.88355   0.00000  Uiso   1.00
C59    C     0.34486   0.08742   0.90208   0.00000  Uiso   1.00
C60    C     0.39849   0.36058   0.92130   0.00000  Uiso   1.00
C61    C     0.33317   0.39148   0.96700   0.00000  Uiso   1.00
C62    C     0.34386   0.42037   0.03202   0.00000  Uiso   1.00
C63    C     0.27656   0.44584   0.06551   0.00000  Uiso   1.00
C64    C     0.39685   0.39066   0.84783   0.00000  Uiso   1.00
C65    C     0.46109   0.41885   0.81265   0.00000  Uiso   1.00
C66    C     0.44741   0.44363   0.74581   0.00000  Uiso   1.00
C67    C     0.37054   0.29542   0.91058   0.00000  Uiso   1.00
C68    C     0.41266   0.24352   0.92814   0.00000  Uiso   1.00
C69    C     0.37683   0.18811   0.91411   0.00000  Uiso   1.00
H70    H     0.20139   0.35188   0.84139   0.00000  Uiso   1.00
H71    H     0.13237   0.41103   0.94626   0.00000  Uiso   1.00
H72    H     0.24960   0.40950   0.72692   0.00000  Uiso   1.00
H73    H     0.20116   0.23420   0.84240   0.00000  Uiso   1.00
H74    H     0.08905   0.47808   0.07598   0.00000  Uiso   1.00
H75    H     0.33622   0.47485   0.61348   0.00000  Uiso   1.00
H76    H     0.23410   0.10519   0.85698   0.00000  Uiso   1.00
H77    H     0.45708   0.36317   0.94504   0.00000  Uiso   1.00
H78    H     0.40210   0.42293   0.05561   0.00000  Uiso   1.00
H79    H     0.51932   0.42141   0.83627   0.00000  Uiso   1.00
H80    H     0.47088   0.24611   0.95175   0.00000  Uiso   1.00
H81    H     0.30797   0.48775   0.16473   0.00000  Uiso   1.00
H82    H     0.55514   0.48452   0.70222   0.00000  Uiso   1.00
H83    H     0.45301   0.11485   0.94573   0.00000  Uiso   1.00
O84    O     0.15773   0.52204   0.19121   0.00000  Uiso   1.00
O85    O     0.48201   0.51779   0.58441   0.00000  Uiso   1.00
O86    O     0.34802   0.03281   0.90389   0.00000  Uiso   1.00
N87    N     0.14812   0.47214   0.08170   0.00000  Uiso   1.00
N88    N     0.37920   0.46913   0.64929   0.00000  Uiso   1.00
N89    N     0.28373   0.12353   0.87693   0.00000  Uiso   1.00
N90    N     0.26591   0.47734   0.12945   0.00000  Uiso   1.00
N91    N     0.49700   0.47433   0.69705   0.00000  Uiso   1.00
N92    N     0.40153   0.12873   0.92468   0.00000  Uiso   1.00
C93    C     0.86707   0.15494   0.73673   0.00000  Uiso   1.00
C94    C     0.94742   0.12221   0.73603   0.00000  Uiso   1.00
C95    C     0.98181   0.09518   0.79466   0.00000  Uiso   1.00
C96    C     0.05567   0.06753   0.78296   0.00000  Uiso   1.00
C97    C     0.17463   0.01678   0.79218   0.00000  Uiso   1.00
C98    C     0.81761   0.12333   0.68059   0.00000  Uiso   1.00
C99    C     0.74285   0.09725   0.69261   0.00000  Uiso   1.00
C100   C     0.70743   0.07055   0.63424   0.00000  Uiso   1.00
C101   C     0.62483   0.02157   0.55740   0.00000  Uiso   1.00
C102   C     0.88415   0.21855   0.70789   0.00000  Uiso   1.00
C103   C     0.86532   0.27254   0.74286   0.00000  Uiso   1.00
C104   C     0.88590   0.32601   0.70747   0.00000  Uiso   1.00
C105   C     0.90661   0.42488   0.67301   0.00000  Uiso   1.00
C106   C     0.93707   0.15391   0.61170   0.00000  Uiso   1.00
C107   C     0.98544   0.12165   0.66811   0.00000  Uiso   1.00
C108   C     0.05927   0.09404   0.65632   0.00000  Uiso   1.00
C109   C     0.09376   0.06697   0.71492   0.00000  Uiso   1.00
C110   C     0.85563   0.12277   0.61268   0.00000  Uiso   1.00
C111   C     0.82030   0.09611   0.55428   0.00000  Uiso   1.00
C112   C     0.74552   0.06999   0.56621   0.00000  Uiso   1.00
C113   C     0.92217   0.21800   0.63998   0.00000  Uiso   1.00
C114   C     0.94278   0.27140   0.60453   0.00000  Uiso   1.00
C115   C     0.92399   0.32545   0.63943   0.00000  Uiso   1.00
H116   H     0.83746   0.15537   0.78960   0.00000  Uiso   1.00
H117   H     0.95236   0.09562   0.84720   0.00000  Uiso   1.00
H118   H     0.71344   0.09769   0.74517   0.00000  Uiso   1.00
H119   H     0.83589   0.27295   0.79541   0.00000  Uiso   1.00
H120   H     0.09651   0.02910   0.88111   0.00000  Uiso   1.00
H121   H     0.59271   0.03350   0.66597   0.00000  Uiso   1.00
H122   H     0.85093   0.40306   0.77191   0.00000  Uiso   1.00
H123   H     0.96667   0.15347   0.55882   0.00000  Uiso   1.00
H124   H     0.08867   0.09362   0.60376   0.00000  Uiso   1.00
H125   H     0.84975   0.09569   0.50173   0.00000  Uiso   1.00
H126   H     0.97220   0.27095   0.55197   0.00000  Uiso   1.00
H127   H     0.20714   0.02748   0.68352   0.00000  Uiso   1.00
H128   H     0.70334   0.03187   0.46838   0.00000  Uiso   1.00
H129   H     0.96156   0.40144   0.57432   0.00000  Uiso   1.00
O130   O     0.22974   0.98893   0.81603   0.00000  Uiso   1.00
O131   O     0.56877   0.99471   0.53377   0.00000  Uiso   1.00
O132   O     0.90755   0.47957   0.67277   0.00000  Uiso   1.00
N133   N     0.10581   0.03695   0.82844   0.00000  Uiso   1.00
N134   N     0.63480   0.04105   0.62730   0.00000  Uiso   1.00
N135   N     0.87619   0.38656   0.72634   0.00000  Uiso   1.00
N136   N     0.16534   0.03607   0.72212   0.00000  Uiso   1.00
N137   N     0.69433   0.04017   0.52098   0.00000  Uiso   1.00
N138   N     0.93572   0.38568   0.62002   0.00000  Uiso   1.00
C139   C     0.24525   0.65353   0.63146   0.00000  Uiso   1.00
C140   C     0.24654   0.61989   0.56007   0.00000  Uiso   1.00
C141   C     0.31314   0.59313   0.52698   0.00000  Uiso   1.00
C142   C     0.30195   0.56452   0.46184   0.00000  Uiso   1.00
C143   C     0.31538   0.51253   0.35571   0.00000  Uiso   1.00
C144   C     0.18218   0.62186   0.67895   0.00000  Uiso   1.00
C145   C     0.19467   0.59676   0.74581   0.00000  Uiso   1.00
C146   C     0.12929   0.56981   0.78074   0.00000  Uiso   1.00
C147   C     0.04278   0.52092   0.85919   0.00000  Uiso   1.00
C148   C     0.21223   0.71661   0.61640   0.00000  Uiso   1.00
C149   C     0.24997   0.77119   0.63069   0.00000  Uiso   1.00
C150   C     0.20988   0.82402   0.61298   0.00000  Uiso   1.00
C151   C     0.17003   0.92225   0.59431   0.00000  Uiso   1.00
C152   C     0.10693   0.65030   0.57460   0.00000  Uiso   1.00
C153   C     0.17141   0.61814   0.52919   0.00000  Uiso   1.00
C154   C     0.16011   0.58956   0.46408   0.00000  Uiso   1.00
C155   C     0.22669   0.56276   0.43090   0.00000  Uiso   1.00
C156   C     0.10705   0.62010   0.64807   0.00000  Uiso   1.00
C157   C     0.04163   0.59319   0.68291   0.00000  Uiso   1.00
C158   C     0.05402   0.56806   0.74981   0.00000  Uiso   1.00
C159   C     0.13710   0.71486   0.58551   0.00000  Uiso   1.00
C160   C     0.09694   0.76762   0.56778   0.00000  Uiso   1.00
C161   C     0.13461   0.82226   0.58204   0.00000  Uiso   1.00
H162   H     0.30373   0.65489   0.65550   0.00000  Uiso   1.00
H163   H     0.37128   0.59449   0.55090   0.00000  Uiso   1.00
H164   H     0.25281   0.59813   0.76970   0.00000  Uiso   1.00
H165   H     0.30811   0.77253   0.65459   0.00000  Uiso   1.00
H166   H     0.41302   0.52674   0.42133   0.00000  Uiso   1.00
H167   H     0.16323   0.53443   0.88268   0.00000  Uiso   1.00
H168   H     0.27983   0.90218   0.63996   0.00000  Uiso   1.00
H169   H     0.04843   0.64893   0.55056   0.00000  Uiso   1.00
H170   H     0.10196   0.58821   0.44019   0.00000  Uiso   1.00
H171   H     0.98350   0.59185   0.65900   0.00000  Uiso   1.00
H172   H     0.03880   0.76624   0.54389   0.00000  Uiso   1.00
H173   H     0.19443   0.52164   0.33147   0.00000  Uiso   1.00
H174   H     0.94465   0.52933   0.79284   0.00000  Uiso   1.00
H175   H     0.06124   0.89708   0.55010   0.00000  Uiso   1.00
O176   O     0.34354   0.48433   0.30570   0.00000  Uiso   1.00
O177   O     0.01583   0.49443   0.91099   0.00000  Uiso   1.00
O178   O     0.16880   0.97691   0.59254   0.00000  Uiso   1.00
N179   N     0.35423   0.53388   0.41532   0.00000  Uiso   1.00
N180   N     0.12070   0.54106   0.84666   0.00000  Uiso   1.00
N181   N     0.22970   0.88488   0.61974   0.00000  Uiso   1.00
N182   N     0.23661   0.53114   0.36697   0.00000  Uiso   1.00
N183   N     0.00308   0.53832   0.79831   0.00000  Uiso   1.00
N184   N     0.11208   0.88213   0.57139   0.00000  Uiso   1.00
C185   C     0.34583   0.85313   0.22318   0.00000  Uiso   1.00
C186   C     0.42318   0.88683   0.23800   0.00000  Uiso   1.00
C187   C     0.44205   0.91378   0.30245   0.00000  Uiso   1.00
C188   C     0.51582   0.94242   0.30517   0.00000  Uiso   1.00
C189   C     0.62786   0.99453   0.33723   0.00000  Uiso   1.00
C190   C     0.31035   0.88460   0.15881   0.00000  Uiso   1.00
C191   C     0.23435   0.90967   0.15667   0.00000  Uiso   1.00
C192   C     0.21313   0.93643   0.09272   0.00000  Uiso   1.00
C193   C     0.14997   0.98505   0.00182   0.00000  Uiso   1.00
C194   C     0.37073   0.78998   0.19752   0.00000  Uiso   1.00
C195   C     0.34549   0.73548   0.22791   0.00000  Uiso   1.00
C196   C     0.37511   0.68257   0.19655   0.00000  Uiso   1.00
C197   C     0.40571   0.58426   0.16575   0.00000  Uiso   1.00
C198   C     0.44327   0.85608   0.11341   0.00000  Uiso   1.00
C199   C     0.47610   0.88843   0.17837   0.00000  Uiso   1.00
C200   C     0.54986   0.91704   0.18100   0.00000  Uiso   1.00
C201   C     0.56885   0.94402   0.24544   0.00000  Uiso   1.00
C202   C     0.36327   0.88621   0.09918   0.00000  Uiso   1.00
C203   C     0.34216   0.91293   0.03522   0.00000  Uiso   1.00
C204   C     0.26615   0.93804   0.03299   0.00000  Uiso   1.00
C205   C     0.42366   0.79158   0.13789   0.00000  Uiso   1.00
C206   C     0.45331   0.73874   0.10646   0.00000  Uiso   1.00
C207   C     0.42813   0.68417   0.13681   0.00000  Uiso   1.00
H208   H     0.30462   0.85188   0.26960   0.00000  Uiso   1.00
H209   H     0.40107   0.91253   0.34858   0.00000  Uiso   1.00
H210   H     0.19340   0.90842   0.20282   0.00000  Uiso   1.00
H211   H     0.30454   0.73426   0.27405   0.00000  Uiso   1.00
H212   H     0.53134   0.98050   0.40983   0.00000  Uiso   1.00
H213   H     0.09344   0.97181   0.10249   0.00000  Uiso   1.00
H214   H     0.32779   0.60455   0.25270   0.00000  Uiso   1.00
H215   H     0.48448   0.85732   0.06699   0.00000  Uiso   1.00
H216   H     0.59081   0.91827   0.13485   0.00000  Uiso   1.00
H217   H     0.38313   0.91416   0.98909   0.00000  Uiso   1.00
H218   H     0.49427   0.74000   0.06032   0.00000  Uiso   1.00
H219   H     0.68534   0.98516   0.23636   0.00000  Uiso   1.00
H220   H     0.24743   0.97647   0.92902   0.00000  Uiso   1.00
H221   H     0.48178   0.60921   0.07923   0.00000  Uiso   1.00
O222   O     0.67503   0.02284   0.37139   0.00000  Uiso   1.00
O223   O     0.10051   0.01143   0.96816   0.00000  Uiso   1.00
O224   O     0.40797   0.52960   0.16524   0.00000  Uiso   1.00
N225   N     0.55300   0.97322   0.35970   0.00000  Uiso   1.00
N226   N     0.14359   0.96510   0.07236   0.00000  Uiso   1.00
N227   N     0.36267   0.62175   0.21278   0.00000  Uiso   1.00
N228   N     0.63586   0.97573   0.26635   0.00000  Uiso   1.00
N229   N     0.22646   0.96761   0.97901   0.00000  Uiso   1.00
N230   N     0.44553   0.62426   0.11943   0.00000  Uiso   1.00
C231   C     0.74004   0.35447   0.13486   0.00000  Uiso   1.00
C232   C     0.74208   0.38816   0.06350   0.00000  Uiso   1.00
C233   C     0.80941   0.41360   0.03011   0.00000  Uiso   1.00
C234   C     0.79882   0.44252   0.96505   0.00000  Uiso   1.00
C235   C     0.81343   0.49436   0.85891   0.00000  Uiso   1.00
C236   C     0.67839   0.38734   0.18267   0.00000  Uiso   1.00
C237   C     0.69217   0.41209   0.24948   0.00000  Uiso   1.00
C238   C     0.62797   0.44031   0.28475   0.00000  Uiso   1.00
C239   C     0.54368   0.49083   0.36364   0.00000  Uiso   1.00
C240   C     0.70471   0.29210   0.11993   0.00000  Uiso   1.00
C241   C     0.74061   0.23675   0.13399   0.00000  Uiso   1.00
C242   C     0.69855   0.18478   0.11645   0.00000  Uiso   1.00
C243   C     0.65514   0.08742   0.09792   0.00000  Uiso   1.00
C244   C     0.60151   0.36058   0.07870   0.00000  Uiso   1.00
C245   C     0.66683   0.39148   0.03300   0.00000  Uiso   1.00
C246   C     0.65614   0.42037   0.96798   0.00000  Uiso   1.00
C247   C     0.72344   0.44584   0.93449   0.00000  Uiso   1.00
C248   C     0.60315   0.39066   0.15217   0.00000  Uiso   1.00
C249   C     0.53891   0.41885   0.18735   0.00000  Uiso   1.00
C250   C     0.55259   0.44363   0.25419   0.00000  Uiso   1.00
C251   C     0.62946   0.29542   0.08942   0.00000  Uiso   1.00
C252   C     0.58734   0.24352   0.07186   0.00000  Uiso   1.00
C253   C     0.62317   0.18811   0.08589   0.00000  Uiso   1.00
H254   H     0.79861   0.35188   0.15861   0.00000  Uiso   1.00
H255   H     0.86763   0.41103   0.05374   0.00000  Uiso   1.00
H256   H     0.75040   0.40950   0.27308   0.00000  Uiso   1.00
H257   H     0.79884   0.23420   0.15760   0.00000  Uiso   1.00
H258   H     0.91095   0.47808   0.92402   0.00000  Uiso   1.00
H259   H     0.66378   0.47485   0.38652   0.00000  Uiso   1.00
H260   H     0.76590   0.10519   0.14302   0.00000  Uiso   1.00
H261   H     0.54292   0.36317   0.05496   0.00000  Uiso   1.00
H262   H     0.59790   0.42293   0.94439   0.00000  Uiso   1.00
H263   H     0.48068   0.42141   0.16373   0.00000  Uiso   1.00
H264   H     0.52912   0.24611   0.04825   0.00000  Uiso   1.00
H265   H     0.69203   0.48775   0.83527   0.00000  Uiso   1.00
H266   H     0.44486   0.48452   0.29778   0.00000  Uiso   1.00
H267   H     0.54699   0.11485   0.05427   0.00000  Uiso   1.00
O268   O     0.84227   0.52204   0.80879   0.00000  Uiso   1.00
O269   O     0.51799   0.51779   0.41559   0.00000  Uiso   1.00
O270   O     0.65198   0.03281   0.09611   0.00000  Uiso   1.00
N271   N     0.85188   0.47214   0.91830   0.00000  Uiso   1.00
N272   N     0.62080   0.46913   0.35071   0.00000  Uiso   1.00
N273   N     0.71627   0.12353   0.12307   0.00000  Uiso   1.00
N274   N     0.73409   0.47734   0.87055   0.00000  Uiso   1.00
N275   N     0.50300   0.47433   0.30295   0.00000  Uiso   1.00
N276   N     0.59847   0.12873   0.07532   0.00000  Uiso   1.00
C277   C     0.13293   0.15494   0.26327   0.00000  Uiso   1.00
C278   C     0.05258   0.12221   0.26397   0.00000  Uiso   1.00
C279   C     0.01819   0.09518   0.20534   0.00000  Uiso   1.00
C280   C     0.94433   0.06753   0.21704   0.00000  Uiso   1.00
C281   C     0.82537   0.01678   0.20782   0.00000  Uiso   1.00
C282   C     0.18239   0.12333   0.31941   0.00000  Uiso   1.00
C283   C     0.25715   0.09725   0.30739   0.00000  Uiso   1.00
C284   C     0.29257   0.07055   0.36576   0.00000  Uiso   1.00
C285   C     0.37517   0.02157   0.44260   0.00000  Uiso   1.00
C286   C     0.11585   0.21855   0.29211   0.00000  Uiso   1.00
C287   C     0.13468   0.27254   0.25714   0.00000  Uiso   1.00
C288   C     0.11410   0.32601   0.29253   0.00000  Uiso   1.00
C289   C     0.09339   0.42488   0.32699   0.00000  Uiso   1.00
C290   C     0.06293   0.15391   0.38830   0.00000  Uiso   1.00
C291   C     0.01456   0.12165   0.33189   0.00000  Uiso   1.00
C292   C     0.94073   0.09404   0.34368   0.00000  Uiso   1.00
C293   C     0.90624   0.06697   0.28508   0.00000  Uiso   1.00
C294   C     0.14437   0.12277   0.38732   0.00000  Uiso   1.00
C295   C     0.17970   0.09611   0.44572   0.00000  Uiso   1.00
C296   C     0.25448   0.06999   0.43379   0.00000  Uiso   1.00
C297   C     0.07783   0.21800   0.36002   0.00000  Uiso   1.00
C298   C     0.05722   0.27140   0.39547   0.00000  Uiso   1.00
C299   C     0.07601   0.32545   0.36057   0.00000  Uiso   1.00
H300   H     0.16254   0.15537   0.21040   0.00000  Uiso   1.00
H301   H     0.04764   0.09562   0.15280   0.00000  Uiso   1.00
H302   H     0.28656   0.09769   0.25483   0.00000  Uiso   1.00
H303   H     0.16411   0.27295   0.20459   0.00000  Uiso   1.00
H304   H     0.90349   0.02910   0.11889   0.00000  Uiso   1.00
H305   H     0.40729   0.03350   0.33403   0.00000  Uiso   1.00
H306   H     0.14907   0.40306   0.22809   0.00000  Uiso   1.00
H307   H     0.03333   0.15347   0.44118   0.00000  Uiso   1.00
H308   H     0.91133   0.09362   0.39624   0.00000  Uiso   1.00
H309   H     0.15025   0.09569   0.49827   0.00000  Uiso   1.00
H310   H     0.02780   0.27095   0.44803   0.00000  Uiso   1.00
H311   H     0.79286   0.02748   0.31648   0.00000  Uiso   1.00
H312   H     0.29666   0.03187   0.53162   0.00000  Uiso   1.00
H313   H     0.03844   0.40144   0.42568   0.00000  Uiso   1.00
O314   O     0.77026   0.98893   0.18397   0.00000  Uiso   1.00
O315   O     0.43123   0.99471   0.46623   0.00000  Uiso   1.00
O316   O     0.09245   0.47957   0.32723   0.00000  Uiso   1.00
N317   N     0.89419   0.03695   0.17156   0.00000  Uiso   1.00
N318   N     0.36520   0.04105   0.37270   0.00000  Uiso   1.00
N319   N     0.12381   0.38656   0.27366   0.00000  Uiso   1.00
N320   N     0.83466   0.03607   0.27788   0.00000  Uiso   1.00
N321   N     0.30567   0.04017   0.47902   0.00000  Uiso   1.00
N322   N     0.06428   0.38568   0.37998   0.00000  Uiso   1.00
C323   C     0.75475   0.65353   0.36854   0.00000  Uiso   1.00
C324   C     0.75346   0.61989   0.43993   0.00000  Uiso   1.00
C325   C     0.68686   0.59313   0.47302   0.00000  Uiso   1.00
C326   C     0.69805   0.56452   0.53816   0.00000  Uiso   1.00
C327   C     0.68462   0.51253   0.64429   0.00000  Uiso   1.00
C328   C     0.81782   0.62186   0.32105   0.00000  Uiso   1.00
C329   C     0.80533   0.59676   0.25419   0.00000  Uiso   1.00
C330   C     0.87071   0.56981   0.21926   0.00000  Uiso   1.00
C331   C     0.95722   0.52092   0.14081   0.00000  Uiso   1.00
C332   C     0.78777   0.71661   0.38360   0.00000  Uiso   1.00
C333   C     0.75003   0.77119   0.36931   0.00000  Uiso   1.00
C334   C     0.79012   0.82402   0.38702   0.00000  Uiso   1.00
C335   C     0.82997   0.92225   0.40569   0.00000  Uiso   1.00
C336   C     0.89307   0.65030   0.42540   0.00000  Uiso   1.00
C337   C     0.82859   0.61814   0.47081   0.00000  Uiso   1.00
C338   C     0.83989   0.58956   0.53592   0.00000  Uiso   1.00
C339   C     0.77331   0.56276   0.56910   0.00000  Uiso   1.00
C340   C     0.89295   0.62010   0.35193   0.00000  Uiso   1.00
C341   C     0.95837   0.59319   0.31709   0.00000  Uiso   1.00
C342   C     0.94598   0.56806   0.25019   0.00000  Uiso   1.00
C343   C     0.86290   0.71486   0.41449   0.00000  Uiso   1.00
C344   C     0.90306   0.76762   0.43222   0.00000  Uiso   1.00
C345   C     0.86539   0.82226   0.41796   0.00000  Uiso   1.00
H346   H     0.69627   0.65489   0.34450   0.00000  Uiso   1.00
H347   H     0.62872   0.59449   0.44910   0.00000  Uiso   1.00
H348   H     0.74719   0.59813   0.23030   0.00000  Uiso   1.00
H349   H     0.69189   0.77253   0.34541   0.00000  Uiso   1.00
H350   H     0.58698   0.52674   0.57867   0.00000  Uiso   1.00
H351   H     0.83677   0.53443   0.11732   0.00000  Uiso   1.00
H352   H     0.72017   0.90218   0.36004   0.00000  Uiso   1.00
H353   H     0.95157   0.64893   0.44944   0.00000  Uiso   1.00
H354   H     0.89804   0.58821   0.55981   0.00000  Uiso   1.00
H355   H     0.01650   0.59185   0.34100   0.00000  Uiso   1.00
H356   H     0.96120   0.76624   0.45611   0.00000  Uiso   1.00
H357   H     0.80557   0.52164   0.66853   0.00000  Uiso   1.00
H358   H     0.05535   0.52933   0.20716   0.00000  Uiso   1.00
H359   H     0.93876   0.89708   0.44990   0.00000  Uiso   1.00
O360   O     0.65646   0.48433   0.69430   0.00000  Uiso   1.00
O361   O     0.98417   0.49443   0.08901   0.00000  Uiso   1.00
O362   O     0.83120   0.97691   0.40746   0.00000  Uiso   1.00
N363   N     0.64577   0.53388   0.58468   0.00000  Uiso   1.00
N364   N     0.87930   0.54106   0.15334   0.00000  Uiso   1.00
N365   N     0.77030   0.88488   0.38026   0.00000  Uiso   1.00
N366   N     0.76339   0.53114   0.63303   0.00000  Uiso   1.00
N367   N     0.99692   0.53832   0.20169   0.00000  Uiso   1.00
N368   N     0.88792   0.88213   0.42861   0.00000  Uiso   1.00
