data_job_00622
_audit_creation_date              2018-12-19
_audit_creation_method            'Materials Studio'
_symmetry_space_group_name_H-M    'P1'
_symmetry_Int_Tables_number       1
_symmetry_cell_setting            triclinic
loop_
_symmetry_equiv_pos_as_xyz
  x,y,z
_cell_length_a                    19.9917
_cell_length_b                    12.2999
_cell_length_c                    15.4624
_cell_angle_alpha                 90.0000
_cell_angle_beta                  143.9677
_cell_angle_gamma                 90.0000
loop_
_atom_site_label
_atom_site_type_symbol
_atom_site_fract_x
_atom_site_fract_y
_atom_site_fract_z
_atom_site_U_iso_or_equiv
_atom_site_adp_type
_atom_site_occupancy
C1     C     0.17466   0.70445   0.63677   0.00000  Uiso   1.00
C2     C     0.07541   0.70946   0.46965   0.00000  Uiso   1.00
C3     C     0.96294   0.68520   0.37117   0.00000  Uiso   1.00
C4     C     0.88482   0.69473   0.22260   0.00000  Uiso   1.00
C5     C     0.72566   0.69748   0.97044   0.00000  Uiso   1.00
C6     C     0.26179   0.62795   0.68749   0.00000  Uiso   1.00
C7     C     0.30604   0.53517   0.77218   0.00000  Uiso   1.00
C8     C     0.38484   0.47610   0.80700   0.00000  Uiso   1.00
C9     C     0.51510   0.35235   0.89312   0.00000  Uiso   1.00
C10    C     0.22877   0.81711   0.69237   0.00000  Uiso   1.00
C11    C     0.24529   0.88336   0.78119   0.00000  Uiso   1.00
C12    C     0.29631   0.98354   0.82015   0.00000  Uiso   1.00
C13    C     0.37531   0.15349   0.91385   0.00000  Uiso   1.00
C14    C     0.23594   0.76453   0.54805   0.00000  Uiso   1.00
C15    C     0.10870   0.74209   0.42147   0.00000  Uiso   1.00
C16    C     0.03074   0.75167   0.27301   0.00000  Uiso   1.00
C17    C     0.91817   0.72742   0.17432   0.00000  Uiso   1.00
C18    C     0.29508   0.66058   0.63930   0.00000  Uiso   1.00
C19    C     0.37384   0.60164   0.67401   0.00000  Uiso   1.00
C20    C     0.41819   0.50878   0.75872   0.00000  Uiso   1.00
C21    C     0.26206   0.84974   0.64418   0.00000  Uiso   1.00
C22    C     0.31308   0.94983   0.68302   0.00000  Uiso   1.00
C23    C     0.32966   0.01623   0.77187   0.00000  Uiso   1.00
H24    H     0.14875   0.67904   0.67430   0.00000  Uiso   1.00
H25    H     0.93721   0.65994   0.40851   0.00000  Uiso   1.00
H26    H     0.28027   0.50994   0.80946   0.00000  Uiso   1.00
H27    H     0.21952   0.85808   0.81846   0.00000  Uiso   1.00
H28    H     0.71737   0.65310   0.09258   0.00000  Uiso   1.00
H29    H     0.44076   0.33685   0.93806   0.00000  Uiso   1.00
H30    H     0.31265   0.07098   0.95705   0.00000  Uiso   1.00
H31    H     0.26186   0.78994   0.51053   0.00000  Uiso   1.00
H32    H     0.05652   0.77692   0.23575   0.00000  Uiso   1.00
H33    H     0.39958   0.62692   0.63671   0.00000  Uiso   1.00
H34    H     0.33883   0.97506   0.64571   0.00000  Uiso   1.00
H35    H     0.81421   0.74805   0.95236   0.00000  Uiso   1.00
H36    H     0.53760   0.43179   0.79785   0.00000  Uiso   1.00
H37    H     0.40949   0.16592   0.81683   0.00000  Uiso   1.00
O38    O     0.62868   0.68997   0.84466   0.00000  Uiso   1.00
O39    O     0.57775   0.27508   0.95393   0.00000  Uiso   1.00
O40    O     0.40967   0.23823   0.97883   0.00000  Uiso   1.00
N41    N     0.76833   0.67726   0.09729   0.00000  Uiso   1.00
N42    N     0.44465   0.38157   0.88774   0.00000  Uiso   1.00
N43    N     0.32491   0.06790   0.90553   0.00000  Uiso   1.00
N44    N     0.82044   0.72835   0.02184   0.00000  Uiso   1.00
N45    N     0.49675   0.43266   0.81229   0.00000  Uiso   1.00
N46    N     0.37701   0.11899   0.83008   0.00000  Uiso   1.00
C47    C     0.82534   0.20445   0.86323   0.00000  Uiso   1.00
C48    C     0.92459   0.20946   0.03035   0.00000  Uiso   1.00
C49    C     0.03706   0.18520   0.12883   0.00000  Uiso   1.00
C50    C     0.11518   0.19473   0.27740   0.00000  Uiso   1.00
C51    C     0.27434   0.19748   0.52956   0.00000  Uiso   1.00
C52    C     0.73821   0.12795   0.81251   0.00000  Uiso   1.00
C53    C     0.69396   0.03517   0.72782   0.00000  Uiso   1.00
C54    C     0.61516   0.97610   0.69300   0.00000  Uiso   1.00
C55    C     0.48490   0.85235   0.60688   0.00000  Uiso   1.00
C56    C     0.77123   0.31711   0.80763   0.00000  Uiso   1.00
C57    C     0.75471   0.38336   0.71881   0.00000  Uiso   1.00
C58    C     0.70369   0.48354   0.67985   0.00000  Uiso   1.00
C59    C     0.62469   0.65349   0.58615   0.00000  Uiso   1.00
C60    C     0.76406   0.26453   0.95195   0.00000  Uiso   1.00
C61    C     0.89130   0.24209   0.07853   0.00000  Uiso   1.00
C62    C     0.96926   0.25167   0.22699   0.00000  Uiso   1.00
C63    C     0.08183   0.22742   0.32568   0.00000  Uiso   1.00
C64    C     0.70492   0.16058   0.86070   0.00000  Uiso   1.00
C65    C     0.62616   0.10164   0.82599   0.00000  Uiso   1.00
C66    C     0.58181   0.00878   0.74128   0.00000  Uiso   1.00
C67    C     0.73794   0.34974   0.85582   0.00000  Uiso   1.00
C68    C     0.68692   0.44983   0.81698   0.00000  Uiso   1.00
C69    C     0.67034   0.51623   0.72813   0.00000  Uiso   1.00
H70    H     0.85125   0.17904   0.82570   0.00000  Uiso   1.00
H71    H     0.06279   0.15994   0.09149   0.00000  Uiso   1.00
H72    H     0.71973   0.00994   0.69054   0.00000  Uiso   1.00
H73    H     0.78048   0.35808   0.68154   0.00000  Uiso   1.00
H74    H     0.28263   0.15310   0.40742   0.00000  Uiso   1.00
H75    H     0.55924   0.83685   0.56194   0.00000  Uiso   1.00
H76    H     0.68735   0.57098   0.54295   0.00000  Uiso   1.00
H77    H     0.73814   0.28994   0.98947   0.00000  Uiso   1.00
H78    H     0.94348   0.27692   0.26425   0.00000  Uiso   1.00
H79    H     0.60042   0.12692   0.86329   0.00000  Uiso   1.00
H80    H     0.66117   0.47506   0.85429   0.00000  Uiso   1.00
H81    H     0.18579   0.24805   0.54764   0.00000  Uiso   1.00
H82    H     0.46240   0.93179   0.70215   0.00000  Uiso   1.00
H83    H     0.59051   0.66592   0.68317   0.00000  Uiso   1.00
O84    O     0.37132   0.18997   0.65534   0.00000  Uiso   1.00
O85    O     0.42225   0.77508   0.54607   0.00000  Uiso   1.00
O86    O     0.59033   0.73823   0.52117   0.00000  Uiso   1.00
N87    N     0.23167   0.17726   0.40271   0.00000  Uiso   1.00
N88    N     0.55535   0.88157   0.61226   0.00000  Uiso   1.00
N89    N     0.67509   0.56790   0.59447   0.00000  Uiso   1.00
N90    N     0.17956   0.22835   0.47816   0.00000  Uiso   1.00
N91    N     0.50325   0.93266   0.68771   0.00000  Uiso   1.00
N92    N     0.62299   0.61899   0.66992   0.00000  Uiso   1.00
C93    C     0.82534   0.29555   0.36323   0.00000  Uiso   1.00
C94    C     0.92459   0.29054   0.53035   0.00000  Uiso   1.00
C95    C     0.03706   0.31480   0.62883   0.00000  Uiso   1.00
C96    C     0.11518   0.30527   0.77740   0.00000  Uiso   1.00
C97    C     0.27434   0.30252   0.02956   0.00000  Uiso   1.00
C98    C     0.73821   0.37205   0.31251   0.00000  Uiso   1.00
C99    C     0.69396   0.46483   0.22782   0.00000  Uiso   1.00
C100   C     0.61516   0.52390   0.19300   0.00000  Uiso   1.00
C101   C     0.48490   0.64765   0.10688   0.00000  Uiso   1.00
C102   C     0.77123   0.18289   0.30763   0.00000  Uiso   1.00
C103   C     0.75471   0.11664   0.21881   0.00000  Uiso   1.00
C104   C     0.70369   0.01646   0.17985   0.00000  Uiso   1.00
C105   C     0.62469   0.84651   0.08615   0.00000  Uiso   1.00
C106   C     0.76406   0.23547   0.45195   0.00000  Uiso   1.00
C107   C     0.89130   0.25791   0.57853   0.00000  Uiso   1.00
C108   C     0.96926   0.24833   0.72699   0.00000  Uiso   1.00
C109   C     0.08183   0.27258   0.82568   0.00000  Uiso   1.00
C110   C     0.70492   0.33942   0.36070   0.00000  Uiso   1.00
C111   C     0.62616   0.39836   0.32599   0.00000  Uiso   1.00
C112   C     0.58181   0.49122   0.24128   0.00000  Uiso   1.00
C113   C     0.73794   0.15026   0.35582   0.00000  Uiso   1.00
C114   C     0.68692   0.05017   0.31698   0.00000  Uiso   1.00
C115   C     0.67034   0.98377   0.22813   0.00000  Uiso   1.00
H116   H     0.85125   0.32096   0.32570   0.00000  Uiso   1.00
H117   H     0.06279   0.34006   0.59149   0.00000  Uiso   1.00
H118   H     0.71973   0.49006   0.19054   0.00000  Uiso   1.00
H119   H     0.78048   0.14192   0.18154   0.00000  Uiso   1.00
H120   H     0.28263   0.34690   0.90742   0.00000  Uiso   1.00
H121   H     0.55924   0.66315   0.06194   0.00000  Uiso   1.00
H122   H     0.68735   0.92902   0.04295   0.00000  Uiso   1.00
H123   H     0.73814   0.21006   0.48947   0.00000  Uiso   1.00
H124   H     0.94348   0.22308   0.76425   0.00000  Uiso   1.00
H125   H     0.60042   0.37308   0.36329   0.00000  Uiso   1.00
H126   H     0.66117   0.02494   0.35429   0.00000  Uiso   1.00
H127   H     0.18579   0.25195   0.04764   0.00000  Uiso   1.00
H128   H     0.46240   0.56821   0.20215   0.00000  Uiso   1.00
H129   H     0.59051   0.83408   0.18317   0.00000  Uiso   1.00
O130   O     0.37132   0.31003   0.15534   0.00000  Uiso   1.00
O131   O     0.42225   0.72492   0.04607   0.00000  Uiso   1.00
O132   O     0.59033   0.76177   0.02117   0.00000  Uiso   1.00
N133   N     0.23167   0.32274   0.90271   0.00000  Uiso   1.00
N134   N     0.55535   0.61843   0.11226   0.00000  Uiso   1.00
N135   N     0.67509   0.93210   0.09447   0.00000  Uiso   1.00
N136   N     0.17956   0.27165   0.97816   0.00000  Uiso   1.00
N137   N     0.50325   0.56734   0.18771   0.00000  Uiso   1.00
N138   N     0.62299   0.88101   0.16992   0.00000  Uiso   1.00
C139   C     0.17466   0.79555   0.13677   0.00000  Uiso   1.00
C140   C     0.07541   0.79054   0.96965   0.00000  Uiso   1.00
C141   C     0.96294   0.81480   0.87117   0.00000  Uiso   1.00
C142   C     0.88482   0.80527   0.72260   0.00000  Uiso   1.00
C143   C     0.72566   0.80252   0.47044   0.00000  Uiso   1.00
C144   C     0.26179   0.87205   0.18749   0.00000  Uiso   1.00
C145   C     0.30604   0.96483   0.27218   0.00000  Uiso   1.00
C146   C     0.38484   0.02390   0.30700   0.00000  Uiso   1.00
C147   C     0.51510   0.14765   0.39312   0.00000  Uiso   1.00
C148   C     0.22877   0.68289   0.19237   0.00000  Uiso   1.00
C149   C     0.24529   0.61664   0.28119   0.00000  Uiso   1.00
C150   C     0.29631   0.51646   0.32015   0.00000  Uiso   1.00
C151   C     0.37531   0.34651   0.41385   0.00000  Uiso   1.00
C152   C     0.23594   0.73547   0.04805   0.00000  Uiso   1.00
C153   C     0.10870   0.75791   0.92147   0.00000  Uiso   1.00
C154   C     0.03074   0.74833   0.77301   0.00000  Uiso   1.00
C155   C     0.91817   0.77258   0.67432   0.00000  Uiso   1.00
C156   C     0.29508   0.83942   0.13930   0.00000  Uiso   1.00
C157   C     0.37384   0.89836   0.17401   0.00000  Uiso   1.00
C158   C     0.41819   0.99122   0.25872   0.00000  Uiso   1.00
C159   C     0.26206   0.65026   0.14418   0.00000  Uiso   1.00
C160   C     0.31308   0.55017   0.18302   0.00000  Uiso   1.00
C161   C     0.32966   0.48377   0.27187   0.00000  Uiso   1.00
H162   H     0.14875   0.82096   0.17430   0.00000  Uiso   1.00
H163   H     0.93721   0.84006   0.90851   0.00000  Uiso   1.00
H164   H     0.28027   0.99006   0.30946   0.00000  Uiso   1.00
H165   H     0.21952   0.64192   0.31846   0.00000  Uiso   1.00
H166   H     0.71737   0.84690   0.59258   0.00000  Uiso   1.00
H167   H     0.44076   0.16315   0.43806   0.00000  Uiso   1.00
H168   H     0.31265   0.42902   0.45705   0.00000  Uiso   1.00
H169   H     0.26186   0.71006   0.01053   0.00000  Uiso   1.00
H170   H     0.05652   0.72308   0.73575   0.00000  Uiso   1.00
H171   H     0.39958   0.87308   0.13671   0.00000  Uiso   1.00
H172   H     0.33883   0.52494   0.14571   0.00000  Uiso   1.00
H173   H     0.81421   0.75195   0.45236   0.00000  Uiso   1.00
H174   H     0.53760   0.06821   0.29785   0.00000  Uiso   1.00
H175   H     0.40949   0.33408   0.31683   0.00000  Uiso   1.00
O176   O     0.62868   0.81003   0.34466   0.00000  Uiso   1.00
O177   O     0.57775   0.22492   0.45393   0.00000  Uiso   1.00
O178   O     0.40967   0.26177   0.47883   0.00000  Uiso   1.00
N179   N     0.76833   0.82274   0.59729   0.00000  Uiso   1.00
N180   N     0.44465   0.11843   0.38774   0.00000  Uiso   1.00
N181   N     0.32491   0.43210   0.40553   0.00000  Uiso   1.00
N182   N     0.82044   0.77165   0.52184   0.00000  Uiso   1.00
N183   N     0.49675   0.06734   0.31229   0.00000  Uiso   1.00
N184   N     0.37701   0.38101   0.33008   0.00000  Uiso   1.00
