data_job_05205
_audit_creation_date              2018-12-19
_audit_creation_method            'Materials Studio'
_symmetry_space_group_name_H-M    'P1'
_symmetry_Int_Tables_number       1
_symmetry_cell_setting            triclinic
loop_
_symmetry_equiv_pos_as_xyz
  x,y,z
_cell_length_a                    12.3216
_cell_length_b                    7.1004
_cell_length_c                    29.5976
_cell_angle_alpha                 90.0000
_cell_angle_beta                  88.9443
_cell_angle_gamma                 90.0000
loop_
_atom_site_label
_atom_site_type_symbol
_atom_site_fract_x
_atom_site_fract_y
_atom_site_fract_z
_atom_site_U_iso_or_equiv
_atom_site_adp_type
_atom_site_occupancy
C1     C     0.11305   0.33836   0.87358   0.00000  Uiso   1.00
C2     C     0.03049   0.21237   0.85054   0.00000  Uiso   1.00
C3     C     0.93311   0.27139   0.83244   0.00000  Uiso   1.00
C4     C     0.86885   0.13439   0.81282   0.00000  Uiso   1.00
C5     C     0.73577   0.96752   0.77728   0.00000  Uiso   1.00
C6     C     0.12892   0.25475   0.92045   0.00000  Uiso   1.00
C7     C     0.11430   0.34941   0.96113   0.00000  Uiso   1.00
C8     C     0.13291   0.24809   0.00036   0.00000  Uiso   1.00
C9     C     0.15270   0.14705   0.07337   0.00000  Uiso   1.00
C10    C     0.22018   0.30931   0.84791   0.00000  Uiso   1.00
C11    C     0.28232   0.44985   0.82761   0.00000  Uiso   1.00
C12    C     0.37778   0.39447   0.80578   0.00000  Uiso   1.00
C13    C     0.53927   0.37815   0.76615   0.00000  Uiso   1.00
C14    C     0.17209   0.99012   0.87090   0.00000  Uiso   1.00
C15    C     0.06257   0.02322   0.84909   0.00000  Uiso   1.00
C16    C     0.99844   0.88609   0.82948   0.00000  Uiso   1.00
C17    C     0.90098   0.94490   0.81136   0.00000  Uiso   1.00
C18    C     0.16099   0.06560   0.91900   0.00000  Uiso   1.00
C19    C     0.17963   0.96412   0.95817   0.00000  Uiso   1.00
C20    C     0.16503   0.05860   0.99890   0.00000  Uiso   1.00
C21    C     0.25225   0.12016   0.84646   0.00000  Uiso   1.00
C22    C     0.34764   0.06455   0.82465   0.00000  Uiso   1.00
C23    C     0.40991   0.20498   0.80432   0.00000  Uiso   1.00
H24    H     0.08808   0.48562   0.87471   0.00000  Uiso   1.00
H25    H     0.90832   0.41778   0.83358   0.00000  Uiso   1.00
H26    H     0.08949   0.49580   0.96225   0.00000  Uiso   1.00
H27    H     0.25748   0.59621   0.82875   0.00000  Uiso   1.00
H28    H     0.72315   0.25914   0.78735   0.00000  Uiso   1.00
H29    H     0.10520   0.42365   0.05865   0.00000  Uiso   1.00
H30    H     0.45943   0.63541   0.77714   0.00000  Uiso   1.00
H31    H     0.19706   0.84285   0.86977   0.00000  Uiso   1.00
H32    H     0.02328   0.73973   0.82836   0.00000  Uiso   1.00
H33    H     0.20445   0.81775   0.95703   0.00000  Uiso   1.00
H34    H     0.37243   0.91817   0.82353   0.00000  Uiso   1.00
H35    H     0.81645   0.70880   0.78311   0.00000  Uiso   1.00
H36    H     0.19850   0.87333   0.05442   0.00000  Uiso   1.00
H37    H     0.55273   0.08508   0.77291   0.00000  Uiso   1.00
O38    O     0.65349   0.92772   0.75809   0.00000  Uiso   1.00
O39    O     0.15475   0.14358   0.11404   0.00000  Uiso   1.00
O40    O     0.61948   0.42140   0.74470   0.00000  Uiso   1.00
N41    N     0.76896   0.14377   0.79203   0.00000  Uiso   1.00
N42    N     0.12614   0.29758   0.04568   0.00000  Uiso   1.00
N43    N     0.45733   0.49556   0.78250   0.00000  Uiso   1.00
N44    N     0.81917   0.84764   0.78975   0.00000  Uiso   1.00
N45    N     0.17635   0.00145   0.04340   0.00000  Uiso   1.00
N46    N     0.50754   0.19943   0.78022   0.00000  Uiso   1.00
C47    C     0.61876   0.22710   0.62377   0.00000  Uiso   1.00
C48    C     0.53690   0.10122   0.64851   0.00000  Uiso   1.00
C49    C     0.44029   0.16045   0.66873   0.00000  Uiso   1.00
C50    C     0.37657   0.02352   0.68966   0.00000  Uiso   1.00
C51    C     0.24458   0.85683   0.72796   0.00000  Uiso   1.00
C52    C     0.63283   0.14389   0.57653   0.00000  Uiso   1.00
C53    C     0.61688   0.23901   0.53623   0.00000  Uiso   1.00
C54    C     0.63393   0.13799   0.49656   0.00000  Uiso   1.00
C55    C     0.65095   0.03759   0.42310   0.00000  Uiso   1.00
C56    C     0.72674   0.19738   0.64710   0.00000  Uiso   1.00
C57    C     0.78978   0.33747   0.66612   0.00000  Uiso   1.00
C58    C     0.88591   0.28149   0.68587   0.00000  Uiso   1.00
C59    C     0.04874   0.26414   0.72198   0.00000  Uiso   1.00
C60    C     0.67740   0.87860   0.62498   0.00000  Uiso   1.00
C61    C     0.56875   0.91193   0.64917   0.00000  Uiso   1.00
C62    C     0.50516   0.77487   0.67008   0.00000  Uiso   1.00
C63    C     0.40847   0.83389   0.69033   0.00000  Uiso   1.00
C64    C     0.66467   0.95460   0.57718   0.00000  Uiso   1.00
C65    C     0.68176   0.85342   0.53757   0.00000  Uiso   1.00
C66    C     0.66584   0.94836   0.49722   0.00000  Uiso   1.00
C67    C     0.75859   0.00808   0.64776   0.00000  Uiso   1.00
C68    C     0.85464   0.95188   0.66747   0.00000  Uiso   1.00
C69    C     0.91781   0.09186   0.68653   0.00000  Uiso   1.00
H70    H     0.59397   0.37448   0.62325   0.00000  Uiso   1.00
H71    H     0.41566   0.30695   0.66821   0.00000  Uiso   1.00
H72    H     0.59225   0.38550   0.53573   0.00000  Uiso   1.00
H73    H     0.76510   0.48394   0.66561   0.00000  Uiso   1.00
H74    H     0.23201   0.14860   0.71833   0.00000  Uiso   1.00
H75    H     0.60438   0.31423   0.43898   0.00000  Uiso   1.00
H76    H     0.96889   0.52183   0.71286   0.00000  Uiso   1.00
H77    H     0.70220   0.73122   0.62550   0.00000  Uiso   1.00
H78    H     0.52983   0.62839   0.67058   0.00000  Uiso   1.00
H79    H     0.70641   0.70694   0.53809   0.00000  Uiso   1.00
H80    H     0.87927   0.80538   0.66797   0.00000  Uiso   1.00
H81    H     0.32467   0.59785   0.72025   0.00000  Uiso   1.00
H82    H     0.69704   0.76350   0.44090   0.00000  Uiso   1.00
H83    H     0.06154   0.97108   0.71478   0.00000  Uiso   1.00
O84    O     0.16298   0.81718   0.74890   0.00000  Uiso   1.00
O85    O     0.65153   0.03450   0.38240   0.00000  Uiso   1.00
O86    O     0.12975   0.30685   0.74172   0.00000  Uiso   1.00
N87    N     0.27748   0.03310   0.71261   0.00000  Uiso   1.00
N88    N     0.62561   0.18795   0.45143   0.00000  Uiso   1.00
N89    N     0.96640   0.38204   0.70747   0.00000  Uiso   1.00
N90    N     0.32734   0.73675   0.71364   0.00000  Uiso   1.00
N91    N     0.67546   0.89160   0.45246   0.00000  Uiso   1.00
N92    N     0.01626   0.08569   0.70850   0.00000  Uiso   1.00
C93    C     0.88695   0.83836   0.12642   0.00000  Uiso   1.00
C94    C     0.96951   0.71237   0.14946   0.00000  Uiso   1.00
C95    C     0.06689   0.77139   0.16756   0.00000  Uiso   1.00
C96    C     0.13115   0.63439   0.18718   0.00000  Uiso   1.00
C97    C     0.26423   0.46752   0.22272   0.00000  Uiso   1.00
C98    C     0.87108   0.75475   0.07955   0.00000  Uiso   1.00
C99    C     0.88570   0.84941   0.03887   0.00000  Uiso   1.00
C100   C     0.86709   0.74809   0.99964   0.00000  Uiso   1.00
C101   C     0.84730   0.64705   0.92663   0.00000  Uiso   1.00
C102   C     0.77982   0.80931   0.15209   0.00000  Uiso   1.00
C103   C     0.71768   0.94985   0.17239   0.00000  Uiso   1.00
C104   C     0.62222   0.89447   0.19422   0.00000  Uiso   1.00
C105   C     0.46073   0.87815   0.23385   0.00000  Uiso   1.00
C106   C     0.82791   0.49012   0.12910   0.00000  Uiso   1.00
C107   C     0.93743   0.52322   0.15091   0.00000  Uiso   1.00
C108   C     0.00156   0.38609   0.17052   0.00000  Uiso   1.00
C109   C     0.09902   0.44490   0.18864   0.00000  Uiso   1.00
C110   C     0.83901   0.56560   0.08100   0.00000  Uiso   1.00
C111   C     0.82037   0.46412   0.04183   0.00000  Uiso   1.00
C112   C     0.83497   0.55860   0.00110   0.00000  Uiso   1.00
C113   C     0.74775   0.62016   0.15354   0.00000  Uiso   1.00
C114   C     0.65236   0.56455   0.17535   0.00000  Uiso   1.00
C115   C     0.59009   0.70498   0.19568   0.00000  Uiso   1.00
H116   H     0.91192   0.98562   0.12529   0.00000  Uiso   1.00
H117   H     0.09168   0.91778   0.16642   0.00000  Uiso   1.00
H118   H     0.91051   0.99580   0.03775   0.00000  Uiso   1.00
H119   H     0.74252   0.09621   0.17125   0.00000  Uiso   1.00
H120   H     0.27685   0.75914   0.21265   0.00000  Uiso   1.00
H121   H     0.89480   0.92365   0.94135   0.00000  Uiso   1.00
H122   H     0.54057   0.13541   0.22286   0.00000  Uiso   1.00
H123   H     0.80294   0.34285   0.13023   0.00000  Uiso   1.00
H124   H     0.97672   0.23973   0.17164   0.00000  Uiso   1.00
H125   H     0.79555   0.31775   0.04297   0.00000  Uiso   1.00
H126   H     0.62757   0.41817   0.17647   0.00000  Uiso   1.00
H127   H     0.18355   0.20880   0.21689   0.00000  Uiso   1.00
H128   H     0.80150   0.37333   0.94558   0.00000  Uiso   1.00
H129   H     0.44727   0.58508   0.22709   0.00000  Uiso   1.00
O130   O     0.34651   0.42772   0.24191   0.00000  Uiso   1.00
O131   O     0.84525   0.64358   0.88596   0.00000  Uiso   1.00
O132   O     0.38052   0.92140   0.25530   0.00000  Uiso   1.00
N133   N     0.23104   0.64377   0.20797   0.00000  Uiso   1.00
N134   N     0.87386   0.79758   0.95432   0.00000  Uiso   1.00
N135   N     0.54267   0.99556   0.21750   0.00000  Uiso   1.00
N136   N     0.18083   0.34764   0.21025   0.00000  Uiso   1.00
N137   N     0.82365   0.50145   0.95660   0.00000  Uiso   1.00
N138   N     0.49246   0.69943   0.21978   0.00000  Uiso   1.00
C139   C     0.38124   0.72710   0.37623   0.00000  Uiso   1.00
C140   C     0.46310   0.60122   0.35149   0.00000  Uiso   1.00
C141   C     0.55971   0.66045   0.33127   0.00000  Uiso   1.00
C142   C     0.62343   0.52352   0.31034   0.00000  Uiso   1.00
C143   C     0.75542   0.35683   0.27204   0.00000  Uiso   1.00
C144   C     0.36717   0.64389   0.42347   0.00000  Uiso   1.00
C145   C     0.38312   0.73901   0.46377   0.00000  Uiso   1.00
C146   C     0.36607   0.63799   0.50344   0.00000  Uiso   1.00
C147   C     0.34905   0.53759   0.57690   0.00000  Uiso   1.00
C148   C     0.27326   0.69738   0.35290   0.00000  Uiso   1.00
C149   C     0.21022   0.83747   0.33388   0.00000  Uiso   1.00
C150   C     0.11409   0.78149   0.31413   0.00000  Uiso   1.00
C151   C     0.95126   0.76414   0.27802   0.00000  Uiso   1.00
C152   C     0.32260   0.37860   0.37502   0.00000  Uiso   1.00
C153   C     0.43125   0.41193   0.35083   0.00000  Uiso   1.00
C154   C     0.49484   0.27487   0.32992   0.00000  Uiso   1.00
C155   C     0.59153   0.33389   0.30967   0.00000  Uiso   1.00
C156   C     0.33533   0.45460   0.42282   0.00000  Uiso   1.00
C157   C     0.31824   0.35342   0.46243   0.00000  Uiso   1.00
C158   C     0.33416   0.44836   0.50278   0.00000  Uiso   1.00
C159   C     0.24141   0.50808   0.35224   0.00000  Uiso   1.00
C160   C     0.14536   0.45188   0.33253   0.00000  Uiso   1.00
C161   C     0.08219   0.59186   0.31347   0.00000  Uiso   1.00
H162   H     0.40603   0.87448   0.37675   0.00000  Uiso   1.00
H163   H     0.58434   0.80695   0.33179   0.00000  Uiso   1.00
H164   H     0.40775   0.88550   0.46427   0.00000  Uiso   1.00
H165   H     0.23490   0.98394   0.33439   0.00000  Uiso   1.00
H166   H     0.76799   0.64860   0.28167   0.00000  Uiso   1.00
H167   H     0.39562   0.81423   0.56102   0.00000  Uiso   1.00
H168   H     0.03111   0.02183   0.28714   0.00000  Uiso   1.00
H169   H     0.29780   0.23122   0.37450   0.00000  Uiso   1.00
H170   H     0.47017   0.12839   0.32942   0.00000  Uiso   1.00
H171   H     0.29359   0.20694   0.46191   0.00000  Uiso   1.00
H172   H     0.12073   0.30538   0.33203   0.00000  Uiso   1.00
H173   H     0.67533   0.09785   0.27975   0.00000  Uiso   1.00
H174   H     0.30296   0.26350   0.55910   0.00000  Uiso   1.00
H175   H     0.93846   0.47108   0.28522   0.00000  Uiso   1.00
O176   O     0.83702   0.31718   0.25110   0.00000  Uiso   1.00
O177   O     0.34847   0.53450   0.61760   0.00000  Uiso   1.00
O178   O     0.87025   0.80685   0.25828   0.00000  Uiso   1.00
N179   N     0.72252   0.53310   0.28739   0.00000  Uiso   1.00
N180   N     0.37439   0.68795   0.54857   0.00000  Uiso   1.00
N181   N     0.03360   0.88204   0.29253   0.00000  Uiso   1.00
N182   N     0.67266   0.23675   0.28636   0.00000  Uiso   1.00
N183   N     0.32454   0.39160   0.54754   0.00000  Uiso   1.00
N184   N     0.98374   0.58569   0.29150   0.00000  Uiso   1.00
