data_job_04002
_audit_creation_date              2018-12-19
_audit_creation_method            'Materials Studio'
_symmetry_space_group_name_H-M    'P1'
_symmetry_Int_Tables_number       1
_symmetry_cell_setting            triclinic
loop_
_symmetry_equiv_pos_as_xyz
  x,y,z
_cell_length_a                    14.4607
_cell_length_b                    20.0274
_cell_length_c                    16.0210
_cell_angle_alpha                 90.0000
_cell_angle_beta                  90.0000
_cell_angle_gamma                 90.0000
loop_
_atom_site_label
_atom_site_type_symbol
_atom_site_fract_x
_atom_site_fract_y
_atom_site_fract_z
_atom_site_U_iso_or_equiv
_atom_site_adp_type
_atom_site_occupancy
C1     C     0.84719   0.57548   0.16048   0.00000  Uiso   1.00
C2     C     0.79449   0.59397   0.08135   0.00000  Uiso   1.00
C3     C     0.81876   0.64403   0.02560   0.00000  Uiso   1.00
C4     C     0.76152   0.65314   0.95697   0.00000  Uiso   1.00
C5     C     0.69162   0.68789   0.83599   0.00000  Uiso   1.00
C6     C     0.77781   0.58115   0.23182   0.00000  Uiso   1.00
C7     C     0.78809   0.62042   0.30259   0.00000  Uiso   1.00
C8     C     0.71682   0.61872   0.36062   0.00000  Uiso   1.00
C9     C     0.62107   0.63352   0.47329   0.00000  Uiso   1.00
C10    C     0.87002   0.50141   0.15269   0.00000  Uiso   1.00
C11    C     0.95781   0.47363   0.15695   0.00000  Uiso   1.00
C12    C     0.96417   0.40479   0.14838   0.00000  Uiso   1.00
C13    C     0.01158   0.29579   0.13818   0.00000  Uiso   1.00
C14    C     0.70236   0.50264   0.13772   0.00000  Uiso   1.00
C15    C     0.71582   0.55441   0.06898   0.00000  Uiso   1.00
C16    C     0.65853   0.56343   0.00041   0.00000  Uiso   1.00
C17    C     0.68272   0.61350   0.94457   0.00000  Uiso   1.00
C18    C     0.69915   0.54159   0.21945   0.00000  Uiso   1.00
C19    C     0.62785   0.53982   0.27740   0.00000  Uiso   1.00
C20    C     0.63801   0.57908   0.34824   0.00000  Uiso   1.00
C21    C     0.79135   0.46184   0.14032   0.00000  Uiso   1.00
C22    C     0.79757   0.39304   0.13175   0.00000  Uiso   1.00
C23    C     0.88536   0.36516   0.13599   0.00000  Uiso   1.00
H24    H     0.90843   0.60629   0.17012   0.00000  Uiso   1.00
H25    H     0.87964   0.67464   0.03520   0.00000  Uiso   1.00
H26    H     0.84898   0.65103   0.31215   0.00000  Uiso   1.00
H27    H     0.01867   0.50426   0.16652   0.00000  Uiso   1.00
H28    H     0.81301   0.73300   0.88018   0.00000  Uiso   1.00
H29    H     0.74836   0.68318   0.46415   0.00000  Uiso   1.00
H30    H     0.10621   0.37370   0.15708   0.00000  Uiso   1.00
H31    H     0.64112   0.47183   0.12809   0.00000  Uiso   1.00
H32    H     0.59766   0.53281   0.99086   0.00000  Uiso   1.00
H33    H     0.56699   0.50920   0.26781   0.00000  Uiso   1.00
H34    H     0.73669   0.36243   0.12218   0.00000  Uiso   1.00
H35    H     0.58414   0.61788   0.84419   0.00000  Uiso   1.00
H36    H     0.51949   0.56807   0.42817   0.00000  Uiso   1.00
H37    H     0.87733   0.25859   0.12109   0.00000  Uiso   1.00
O38    O     0.67479   0.71799   0.77269   0.00000  Uiso   1.00
O39    O     0.58999   0.65263   0.53884   0.00000  Uiso   1.00
O40    O     0.05946   0.24660   0.13596   0.00000  Uiso   1.00
N41    N     0.76512   0.69753   0.89053   0.00000  Uiso   1.00
N42    N     0.70467   0.65096   0.43651   0.00000  Uiso   1.00
N43    N     0.03922   0.36162   0.14944   0.00000  Uiso   1.00
N44    N     0.64197   0.63558   0.87117   0.00000  Uiso   1.00
N45    N     0.58152   0.58902   0.41714   0.00000  Uiso   1.00
N46    N     0.91607   0.29968   0.13007   0.00000  Uiso   1.00
C47    C     0.65281   0.92452   0.66048   0.00000  Uiso   1.00
C48    C     0.70551   0.90603   0.58135   0.00000  Uiso   1.00
C49    C     0.68124   0.85597   0.52560   0.00000  Uiso   1.00
C50    C     0.73848   0.84686   0.45697   0.00000  Uiso   1.00
C51    C     0.80838   0.81211   0.33599   0.00000  Uiso   1.00
C52    C     0.72219   0.91885   0.73182   0.00000  Uiso   1.00
C53    C     0.71191   0.87958   0.80259   0.00000  Uiso   1.00
C54    C     0.78318   0.88128   0.86062   0.00000  Uiso   1.00
C55    C     0.87893   0.86648   0.97329   0.00000  Uiso   1.00
C56    C     0.62998   0.99859   0.65269   0.00000  Uiso   1.00
C57    C     0.54219   0.02637   0.65695   0.00000  Uiso   1.00
C58    C     0.53583   0.09521   0.64838   0.00000  Uiso   1.00
C59    C     0.48842   0.20421   0.63818   0.00000  Uiso   1.00
C60    C     0.79764   0.99736   0.63772   0.00000  Uiso   1.00
C61    C     0.78418   0.94559   0.56898   0.00000  Uiso   1.00
C62    C     0.84147   0.93657   0.50041   0.00000  Uiso   1.00
C63    C     0.81728   0.88650   0.44457   0.00000  Uiso   1.00
C64    C     0.80085   0.95841   0.71945   0.00000  Uiso   1.00
C65    C     0.87215   0.96018   0.77740   0.00000  Uiso   1.00
C66    C     0.86199   0.92092   0.84824   0.00000  Uiso   1.00
C67    C     0.70865   0.03816   0.64032   0.00000  Uiso   1.00
C68    C     0.70243   0.10696   0.63175   0.00000  Uiso   1.00
C69    C     0.61464   0.13484   0.63599   0.00000  Uiso   1.00
H70    H     0.59157   0.89371   0.67012   0.00000  Uiso   1.00
H71    H     0.62036   0.82536   0.53520   0.00000  Uiso   1.00
H72    H     0.65102   0.84897   0.81215   0.00000  Uiso   1.00
H73    H     0.48133   0.99574   0.66652   0.00000  Uiso   1.00
H74    H     0.68699   0.76700   0.38018   0.00000  Uiso   1.00
H75    H     0.75164   0.81682   0.96415   0.00000  Uiso   1.00
H76    H     0.39379   0.12630   0.65708   0.00000  Uiso   1.00
H77    H     0.85888   0.02817   0.62809   0.00000  Uiso   1.00
H78    H     0.90234   0.96719   0.49086   0.00000  Uiso   1.00
H79    H     0.93301   0.99080   0.76781   0.00000  Uiso   1.00
H80    H     0.76331   0.13757   0.62218   0.00000  Uiso   1.00
H81    H     0.91586   0.88212   0.34419   0.00000  Uiso   1.00
H82    H     0.98051   0.93193   0.92817   0.00000  Uiso   1.00
H83    H     0.62267   0.24141   0.62109   0.00000  Uiso   1.00
O84    O     0.82521   0.78201   0.27269   0.00000  Uiso   1.00
O85    O     0.91001   0.84737   0.03884   0.00000  Uiso   1.00
O86    O     0.44054   0.25340   0.63596   0.00000  Uiso   1.00
N87    N     0.73488   0.80247   0.39053   0.00000  Uiso   1.00
N88    N     0.79533   0.84904   0.93651   0.00000  Uiso   1.00
N89    N     0.46078   0.13838   0.64944   0.00000  Uiso   1.00
N90    N     0.85803   0.86442   0.37117   0.00000  Uiso   1.00
N91    N     0.91848   0.91098   0.91714   0.00000  Uiso   1.00
N92    N     0.58393   0.20032   0.63007   0.00000  Uiso   1.00
C93    C     0.15281   0.57548   0.33952   0.00000  Uiso   1.00
C94    C     0.20551   0.59397   0.41865   0.00000  Uiso   1.00
C95    C     0.18124   0.64403   0.47440   0.00000  Uiso   1.00
C96    C     0.23848   0.65314   0.54303   0.00000  Uiso   1.00
C97    C     0.30838   0.68789   0.66401   0.00000  Uiso   1.00
C98    C     0.22219   0.58115   0.26818   0.00000  Uiso   1.00
C99    C     0.21191   0.62042   0.19741   0.00000  Uiso   1.00
C100   C     0.28318   0.61872   0.13938   0.00000  Uiso   1.00
C101   C     0.37893   0.63352   0.02671   0.00000  Uiso   1.00
C102   C     0.12998   0.50141   0.34731   0.00000  Uiso   1.00
C103   C     0.04219   0.47363   0.34305   0.00000  Uiso   1.00
C104   C     0.03583   0.40479   0.35162   0.00000  Uiso   1.00
C105   C     0.98842   0.29579   0.36182   0.00000  Uiso   1.00
C106   C     0.29764   0.50264   0.36228   0.00000  Uiso   1.00
C107   C     0.28418   0.55441   0.43102   0.00000  Uiso   1.00
C108   C     0.34147   0.56343   0.49959   0.00000  Uiso   1.00
C109   C     0.31728   0.61350   0.55543   0.00000  Uiso   1.00
C110   C     0.30085   0.54159   0.28055   0.00000  Uiso   1.00
C111   C     0.37215   0.53982   0.22260   0.00000  Uiso   1.00
C112   C     0.36199   0.57908   0.15176   0.00000  Uiso   1.00
C113   C     0.20865   0.46184   0.35968   0.00000  Uiso   1.00
C114   C     0.20243   0.39304   0.36825   0.00000  Uiso   1.00
C115   C     0.11464   0.36516   0.36401   0.00000  Uiso   1.00
H116   H     0.09157   0.60629   0.32988   0.00000  Uiso   1.00
H117   H     0.12036   0.67464   0.46480   0.00000  Uiso   1.00
H118   H     0.15102   0.65103   0.18785   0.00000  Uiso   1.00
H119   H     0.98133   0.50426   0.33348   0.00000  Uiso   1.00
H120   H     0.18699   0.73300   0.61982   0.00000  Uiso   1.00
H121   H     0.25164   0.68318   0.03585   0.00000  Uiso   1.00
H122   H     0.89379   0.37370   0.34292   0.00000  Uiso   1.00
H123   H     0.35888   0.47183   0.37191   0.00000  Uiso   1.00
H124   H     0.40234   0.53281   0.50914   0.00000  Uiso   1.00
H125   H     0.43301   0.50920   0.23219   0.00000  Uiso   1.00
H126   H     0.26331   0.36243   0.37782   0.00000  Uiso   1.00
H127   H     0.41586   0.61788   0.65581   0.00000  Uiso   1.00
H128   H     0.48051   0.56807   0.07183   0.00000  Uiso   1.00
H129   H     0.12267   0.25859   0.37891   0.00000  Uiso   1.00
O130   O     0.32521   0.71799   0.72731   0.00000  Uiso   1.00
O131   O     0.41001   0.65263   0.96116   0.00000  Uiso   1.00
O132   O     0.94054   0.24660   0.36404   0.00000  Uiso   1.00
N133   N     0.23488   0.69753   0.60947   0.00000  Uiso   1.00
N134   N     0.29533   0.65096   0.06349   0.00000  Uiso   1.00
N135   N     0.96078   0.36162   0.35056   0.00000  Uiso   1.00
N136   N     0.35803   0.63558   0.62883   0.00000  Uiso   1.00
N137   N     0.41848   0.58902   0.08286   0.00000  Uiso   1.00
N138   N     0.08393   0.29968   0.36993   0.00000  Uiso   1.00
C139   C     0.34719   0.92452   0.83952   0.00000  Uiso   1.00
C140   C     0.29449   0.90603   0.91865   0.00000  Uiso   1.00
C141   C     0.31876   0.85597   0.97440   0.00000  Uiso   1.00
C142   C     0.26152   0.84686   0.04303   0.00000  Uiso   1.00
C143   C     0.19162   0.81211   0.16401   0.00000  Uiso   1.00
C144   C     0.27781   0.91885   0.76818   0.00000  Uiso   1.00
C145   C     0.28809   0.87958   0.69741   0.00000  Uiso   1.00
C146   C     0.21682   0.88128   0.63938   0.00000  Uiso   1.00
C147   C     0.12107   0.86648   0.52671   0.00000  Uiso   1.00
C148   C     0.37002   0.99859   0.84731   0.00000  Uiso   1.00
C149   C     0.45781   0.02637   0.84305   0.00000  Uiso   1.00
C150   C     0.46417   0.09521   0.85162   0.00000  Uiso   1.00
C151   C     0.51158   0.20421   0.86182   0.00000  Uiso   1.00
C152   C     0.20236   0.99736   0.86228   0.00000  Uiso   1.00
C153   C     0.21582   0.94559   0.93102   0.00000  Uiso   1.00
C154   C     0.15853   0.93657   0.99959   0.00000  Uiso   1.00
C155   C     0.18272   0.88650   0.05543   0.00000  Uiso   1.00
C156   C     0.19915   0.95841   0.78055   0.00000  Uiso   1.00
C157   C     0.12785   0.96018   0.72260   0.00000  Uiso   1.00
C158   C     0.13801   0.92092   0.65176   0.00000  Uiso   1.00
C159   C     0.29135   0.03816   0.85968   0.00000  Uiso   1.00
C160   C     0.29757   0.10696   0.86825   0.00000  Uiso   1.00
C161   C     0.38536   0.13484   0.86401   0.00000  Uiso   1.00
H162   H     0.40843   0.89371   0.82988   0.00000  Uiso   1.00
H163   H     0.37964   0.82536   0.96480   0.00000  Uiso   1.00
H164   H     0.34898   0.84897   0.68785   0.00000  Uiso   1.00
H165   H     0.51867   0.99574   0.83348   0.00000  Uiso   1.00
H166   H     0.31301   0.76700   0.11982   0.00000  Uiso   1.00
H167   H     0.24836   0.81682   0.53585   0.00000  Uiso   1.00
H168   H     0.60621   0.12630   0.84292   0.00000  Uiso   1.00
H169   H     0.14112   0.02817   0.87191   0.00000  Uiso   1.00
H170   H     0.09766   0.96719   0.00914   0.00000  Uiso   1.00
H171   H     0.06699   0.99080   0.73219   0.00000  Uiso   1.00
H172   H     0.23669   0.13757   0.87782   0.00000  Uiso   1.00
H173   H     0.08414   0.88212   0.15581   0.00000  Uiso   1.00
H174   H     0.01949   0.93193   0.57183   0.00000  Uiso   1.00
H175   H     0.37733   0.24141   0.87891   0.00000  Uiso   1.00
O176   O     0.17479   0.78201   0.22731   0.00000  Uiso   1.00
O177   O     0.08999   0.84737   0.46116   0.00000  Uiso   1.00
O178   O     0.55946   0.25340   0.86404   0.00000  Uiso   1.00
N179   N     0.26512   0.80247   0.10947   0.00000  Uiso   1.00
N180   N     0.20467   0.84904   0.56349   0.00000  Uiso   1.00
N181   N     0.53922   0.13838   0.85056   0.00000  Uiso   1.00
N182   N     0.14197   0.86442   0.12883   0.00000  Uiso   1.00
N183   N     0.08152   0.91098   0.58286   0.00000  Uiso   1.00
N184   N     0.41607   0.20032   0.86993   0.00000  Uiso   1.00
C185   C     0.15281   0.42452   0.83952   0.00000  Uiso   1.00
C186   C     0.20551   0.40603   0.91865   0.00000  Uiso   1.00
C187   C     0.18124   0.35597   0.97440   0.00000  Uiso   1.00
C188   C     0.23848   0.34686   0.04303   0.00000  Uiso   1.00
C189   C     0.30838   0.31211   0.16401   0.00000  Uiso   1.00
C190   C     0.22219   0.41885   0.76818   0.00000  Uiso   1.00
C191   C     0.21191   0.37958   0.69741   0.00000  Uiso   1.00
C192   C     0.28318   0.38128   0.63938   0.00000  Uiso   1.00
C193   C     0.37893   0.36648   0.52671   0.00000  Uiso   1.00
C194   C     0.12998   0.49859   0.84731   0.00000  Uiso   1.00
C195   C     0.04219   0.52637   0.84305   0.00000  Uiso   1.00
C196   C     0.03583   0.59521   0.85162   0.00000  Uiso   1.00
C197   C     0.98842   0.70421   0.86182   0.00000  Uiso   1.00
C198   C     0.29764   0.49736   0.86228   0.00000  Uiso   1.00
C199   C     0.28418   0.44559   0.93102   0.00000  Uiso   1.00
C200   C     0.34147   0.43657   0.99959   0.00000  Uiso   1.00
C201   C     0.31728   0.38650   0.05543   0.00000  Uiso   1.00
C202   C     0.30085   0.45841   0.78055   0.00000  Uiso   1.00
C203   C     0.37215   0.46018   0.72260   0.00000  Uiso   1.00
C204   C     0.36199   0.42092   0.65176   0.00000  Uiso   1.00
C205   C     0.20865   0.53816   0.85968   0.00000  Uiso   1.00
C206   C     0.20243   0.60696   0.86825   0.00000  Uiso   1.00
C207   C     0.11464   0.63484   0.86401   0.00000  Uiso   1.00
H208   H     0.09157   0.39371   0.82988   0.00000  Uiso   1.00
H209   H     0.12036   0.32536   0.96480   0.00000  Uiso   1.00
H210   H     0.15102   0.34897   0.68785   0.00000  Uiso   1.00
H211   H     0.98133   0.49574   0.83348   0.00000  Uiso   1.00
H212   H     0.18699   0.26700   0.11982   0.00000  Uiso   1.00
H213   H     0.25164   0.31682   0.53585   0.00000  Uiso   1.00
H214   H     0.89379   0.62630   0.84292   0.00000  Uiso   1.00
H215   H     0.35888   0.52817   0.87191   0.00000  Uiso   1.00
H216   H     0.40234   0.46719   0.00914   0.00000  Uiso   1.00
H217   H     0.43301   0.49080   0.73219   0.00000  Uiso   1.00
H218   H     0.26331   0.63757   0.87782   0.00000  Uiso   1.00
H219   H     0.41586   0.38212   0.15581   0.00000  Uiso   1.00
H220   H     0.48051   0.43193   0.57183   0.00000  Uiso   1.00
H221   H     0.12267   0.74141   0.87891   0.00000  Uiso   1.00
O222   O     0.32521   0.28201   0.22731   0.00000  Uiso   1.00
O223   O     0.41001   0.34737   0.46116   0.00000  Uiso   1.00
O224   O     0.94054   0.75340   0.86404   0.00000  Uiso   1.00
N225   N     0.23488   0.30247   0.10947   0.00000  Uiso   1.00
N226   N     0.29533   0.34904   0.56349   0.00000  Uiso   1.00
N227   N     0.96078   0.63838   0.85056   0.00000  Uiso   1.00
N228   N     0.35803   0.36442   0.12883   0.00000  Uiso   1.00
N229   N     0.41848   0.41098   0.58286   0.00000  Uiso   1.00
N230   N     0.08393   0.70032   0.86993   0.00000  Uiso   1.00
C231   C     0.34719   0.07548   0.33952   0.00000  Uiso   1.00
C232   C     0.29449   0.09397   0.41865   0.00000  Uiso   1.00
C233   C     0.31876   0.14403   0.47440   0.00000  Uiso   1.00
C234   C     0.26152   0.15314   0.54303   0.00000  Uiso   1.00
C235   C     0.19162   0.18789   0.66401   0.00000  Uiso   1.00
C236   C     0.27781   0.08115   0.26818   0.00000  Uiso   1.00
C237   C     0.28809   0.12042   0.19741   0.00000  Uiso   1.00
C238   C     0.21682   0.11872   0.13938   0.00000  Uiso   1.00
C239   C     0.12107   0.13352   0.02671   0.00000  Uiso   1.00
C240   C     0.37002   0.00141   0.34731   0.00000  Uiso   1.00
C241   C     0.45781   0.97363   0.34305   0.00000  Uiso   1.00
C242   C     0.46417   0.90479   0.35162   0.00000  Uiso   1.00
C243   C     0.51158   0.79579   0.36182   0.00000  Uiso   1.00
C244   C     0.20236   0.00264   0.36228   0.00000  Uiso   1.00
C245   C     0.21582   0.05441   0.43102   0.00000  Uiso   1.00
C246   C     0.15853   0.06343   0.49959   0.00000  Uiso   1.00
C247   C     0.18272   0.11350   0.55543   0.00000  Uiso   1.00
C248   C     0.19915   0.04159   0.28055   0.00000  Uiso   1.00
C249   C     0.12785   0.03982   0.22260   0.00000  Uiso   1.00
C250   C     0.13801   0.07908   0.15176   0.00000  Uiso   1.00
C251   C     0.29135   0.96184   0.35968   0.00000  Uiso   1.00
C252   C     0.29757   0.89304   0.36825   0.00000  Uiso   1.00
C253   C     0.38536   0.86516   0.36401   0.00000  Uiso   1.00
H254   H     0.40843   0.10629   0.32988   0.00000  Uiso   1.00
H255   H     0.37964   0.17464   0.46480   0.00000  Uiso   1.00
H256   H     0.34898   0.15103   0.18785   0.00000  Uiso   1.00
H257   H     0.51867   0.00426   0.33348   0.00000  Uiso   1.00
H258   H     0.31301   0.23300   0.61982   0.00000  Uiso   1.00
H259   H     0.24836   0.18318   0.03585   0.00000  Uiso   1.00
H260   H     0.60621   0.87370   0.34292   0.00000  Uiso   1.00
H261   H     0.14112   0.97183   0.37191   0.00000  Uiso   1.00
H262   H     0.09766   0.03281   0.50914   0.00000  Uiso   1.00
H263   H     0.06699   0.00920   0.23219   0.00000  Uiso   1.00
H264   H     0.23669   0.86243   0.37782   0.00000  Uiso   1.00
H265   H     0.08414   0.11788   0.65581   0.00000  Uiso   1.00
H266   H     0.01949   0.06807   0.07183   0.00000  Uiso   1.00
H267   H     0.37733   0.75859   0.37891   0.00000  Uiso   1.00
O268   O     0.17479   0.21799   0.72731   0.00000  Uiso   1.00
O269   O     0.08999   0.15263   0.96116   0.00000  Uiso   1.00
O270   O     0.55946   0.74660   0.36404   0.00000  Uiso   1.00
N271   N     0.26512   0.19753   0.60947   0.00000  Uiso   1.00
N272   N     0.20467   0.15096   0.06349   0.00000  Uiso   1.00
N273   N     0.53922   0.86162   0.35056   0.00000  Uiso   1.00
N274   N     0.14197   0.13558   0.62883   0.00000  Uiso   1.00
N275   N     0.08152   0.08902   0.08286   0.00000  Uiso   1.00
N276   N     0.41607   0.79968   0.36993   0.00000  Uiso   1.00
C277   C     0.84719   0.42452   0.66048   0.00000  Uiso   1.00
C278   C     0.79449   0.40603   0.58135   0.00000  Uiso   1.00
C279   C     0.81876   0.35597   0.52560   0.00000  Uiso   1.00
C280   C     0.76152   0.34686   0.45697   0.00000  Uiso   1.00
C281   C     0.69162   0.31211   0.33599   0.00000  Uiso   1.00
C282   C     0.77781   0.41885   0.73182   0.00000  Uiso   1.00
C283   C     0.78809   0.37958   0.80259   0.00000  Uiso   1.00
C284   C     0.71682   0.38128   0.86062   0.00000  Uiso   1.00
C285   C     0.62107   0.36648   0.97329   0.00000  Uiso   1.00
C286   C     0.87002   0.49859   0.65269   0.00000  Uiso   1.00
C287   C     0.95781   0.52637   0.65695   0.00000  Uiso   1.00
C288   C     0.96417   0.59521   0.64838   0.00000  Uiso   1.00
C289   C     0.01158   0.70421   0.63818   0.00000  Uiso   1.00
C290   C     0.70236   0.49736   0.63772   0.00000  Uiso   1.00
C291   C     0.71582   0.44559   0.56898   0.00000  Uiso   1.00
C292   C     0.65853   0.43657   0.50041   0.00000  Uiso   1.00
C293   C     0.68272   0.38650   0.44457   0.00000  Uiso   1.00
C294   C     0.69915   0.45841   0.71945   0.00000  Uiso   1.00
C295   C     0.62785   0.46018   0.77740   0.00000  Uiso   1.00
C296   C     0.63801   0.42092   0.84824   0.00000  Uiso   1.00
C297   C     0.79135   0.53816   0.64032   0.00000  Uiso   1.00
C298   C     0.79757   0.60696   0.63175   0.00000  Uiso   1.00
C299   C     0.88536   0.63484   0.63599   0.00000  Uiso   1.00
H300   H     0.90843   0.39371   0.67012   0.00000  Uiso   1.00
H301   H     0.87964   0.32536   0.53520   0.00000  Uiso   1.00
H302   H     0.84898   0.34897   0.81215   0.00000  Uiso   1.00
H303   H     0.01867   0.49574   0.66652   0.00000  Uiso   1.00
H304   H     0.81301   0.26700   0.38018   0.00000  Uiso   1.00
H305   H     0.74836   0.31682   0.96415   0.00000  Uiso   1.00
H306   H     0.10621   0.62630   0.65708   0.00000  Uiso   1.00
H307   H     0.64112   0.52817   0.62809   0.00000  Uiso   1.00
H308   H     0.59766   0.46719   0.49086   0.00000  Uiso   1.00
H309   H     0.56699   0.49080   0.76781   0.00000  Uiso   1.00
H310   H     0.73669   0.63757   0.62218   0.00000  Uiso   1.00
H311   H     0.58414   0.38212   0.34419   0.00000  Uiso   1.00
H312   H     0.51949   0.43193   0.92817   0.00000  Uiso   1.00
H313   H     0.87733   0.74141   0.62109   0.00000  Uiso   1.00
O314   O     0.67479   0.28201   0.27269   0.00000  Uiso   1.00
O315   O     0.58999   0.34737   0.03884   0.00000  Uiso   1.00
O316   O     0.05946   0.75340   0.63596   0.00000  Uiso   1.00
N317   N     0.76512   0.30247   0.39053   0.00000  Uiso   1.00
N318   N     0.70467   0.34904   0.93651   0.00000  Uiso   1.00
N319   N     0.03922   0.63838   0.64944   0.00000  Uiso   1.00
N320   N     0.64197   0.36442   0.37117   0.00000  Uiso   1.00
N321   N     0.58152   0.41098   0.91714   0.00000  Uiso   1.00
N322   N     0.91607   0.70032   0.63007   0.00000  Uiso   1.00
C323   C     0.65281   0.07548   0.16048   0.00000  Uiso   1.00
C324   C     0.70551   0.09397   0.08135   0.00000  Uiso   1.00
C325   C     0.68124   0.14403   0.02560   0.00000  Uiso   1.00
C326   C     0.73848   0.15314   0.95697   0.00000  Uiso   1.00
C327   C     0.80838   0.18789   0.83599   0.00000  Uiso   1.00
C328   C     0.72219   0.08115   0.23182   0.00000  Uiso   1.00
C329   C     0.71191   0.12042   0.30259   0.00000  Uiso   1.00
C330   C     0.78318   0.11872   0.36062   0.00000  Uiso   1.00
C331   C     0.87893   0.13352   0.47329   0.00000  Uiso   1.00
C332   C     0.62998   0.00141   0.15269   0.00000  Uiso   1.00
C333   C     0.54219   0.97363   0.15695   0.00000  Uiso   1.00
C334   C     0.53583   0.90479   0.14838   0.00000  Uiso   1.00
C335   C     0.48842   0.79579   0.13818   0.00000  Uiso   1.00
C336   C     0.79764   0.00264   0.13772   0.00000  Uiso   1.00
C337   C     0.78418   0.05441   0.06898   0.00000  Uiso   1.00
C338   C     0.84147   0.06343   0.00041   0.00000  Uiso   1.00
C339   C     0.81728   0.11350   0.94457   0.00000  Uiso   1.00
C340   C     0.80085   0.04159   0.21945   0.00000  Uiso   1.00
C341   C     0.87215   0.03982   0.27740   0.00000  Uiso   1.00
C342   C     0.86199   0.07908   0.34824   0.00000  Uiso   1.00
C343   C     0.70865   0.96184   0.14032   0.00000  Uiso   1.00
C344   C     0.70243   0.89304   0.13175   0.00000  Uiso   1.00
C345   C     0.61464   0.86516   0.13599   0.00000  Uiso   1.00
H346   H     0.59157   0.10629   0.17012   0.00000  Uiso   1.00
H347   H     0.62036   0.17464   0.03520   0.00000  Uiso   1.00
H348   H     0.65102   0.15103   0.31215   0.00000  Uiso   1.00
H349   H     0.48133   0.00426   0.16652   0.00000  Uiso   1.00
H350   H     0.68699   0.23300   0.88018   0.00000  Uiso   1.00
H351   H     0.75164   0.18318   0.46415   0.00000  Uiso   1.00
H352   H     0.39379   0.87370   0.15708   0.00000  Uiso   1.00
H353   H     0.85888   0.97183   0.12809   0.00000  Uiso   1.00
H354   H     0.90234   0.03281   0.99086   0.00000  Uiso   1.00
H355   H     0.93301   0.00920   0.26781   0.00000  Uiso   1.00
H356   H     0.76331   0.86243   0.12218   0.00000  Uiso   1.00
H357   H     0.91586   0.11788   0.84419   0.00000  Uiso   1.00
H358   H     0.98051   0.06807   0.42817   0.00000  Uiso   1.00
H359   H     0.62267   0.75859   0.12109   0.00000  Uiso   1.00
O360   O     0.82521   0.21799   0.77269   0.00000  Uiso   1.00
O361   O     0.91001   0.15263   0.53884   0.00000  Uiso   1.00
O362   O     0.44054   0.74660   0.13596   0.00000  Uiso   1.00
N363   N     0.73488   0.19753   0.89053   0.00000  Uiso   1.00
N364   N     0.79533   0.15096   0.43651   0.00000  Uiso   1.00
N365   N     0.46078   0.86162   0.14944   0.00000  Uiso   1.00
N366   N     0.85803   0.13558   0.87117   0.00000  Uiso   1.00
N367   N     0.91848   0.08902   0.41714   0.00000  Uiso   1.00
N368   N     0.58393   0.79968   0.13007   0.00000  Uiso   1.00
