data_job_03914
_audit_creation_date              2018-12-19
_audit_creation_method            'Materials Studio'
_symmetry_space_group_name_H-M    'P1'
_symmetry_Int_Tables_number       1
_symmetry_cell_setting            triclinic
loop_
_symmetry_equiv_pos_as_xyz
  x,y,z
_cell_length_a                    21.1145
_cell_length_b                    21.1145
_cell_length_c                    12.7206
_cell_angle_alpha                 90.0000
_cell_angle_beta                  90.0000
_cell_angle_gamma                 90.0000
loop_
_atom_site_label
_atom_site_type_symbol
_atom_site_fract_x
_atom_site_fract_y
_atom_site_fract_z
_atom_site_U_iso_or_equiv
_atom_site_adp_type
_atom_site_occupancy
C1     C     0.30247   0.87898   0.66445   0.00000  Uiso   1.00
C2     C     0.25696   0.82715   0.62893   0.00000  Uiso   1.00
C3     C     0.24832   0.76906   0.67790   0.00000  Uiso   1.00
C4     C     0.20446   0.72814   0.63320   0.00000  Uiso   1.00
C5     C     0.13898   0.64512   0.59176   0.00000  Uiso   1.00
C6     C     0.34532   0.89250   0.57059   0.00000  Uiso   1.00
C7     C     0.41097   0.88937   0.57054   0.00000  Uiso   1.00
C8     C     0.44149   0.90348   0.47673   0.00000  Uiso   1.00
C9     C     0.51319   0.92197   0.34475   0.00000  Uiso   1.00
C10    C     0.26229   0.93827   0.67974   0.00000  Uiso   1.00
C11    C     0.25814   0.97364   0.77145   0.00000  Uiso   1.00
C12    C     0.21876   0.02629   0.76953   0.00000  Uiso   1.00
C13    C     0.16154   0.11584   0.80702   0.00000  Uiso   1.00
C14    C     0.23993   0.90961   0.49796   0.00000  Uiso   1.00
C15    C     0.22299   0.84379   0.53849   0.00000  Uiso   1.00
C16    C     0.17912   0.80295   0.49370   0.00000  Uiso   1.00
C17    C     0.17042   0.74481   0.54261   0.00000  Uiso   1.00
C18    C     0.31135   0.90914   0.48016   0.00000  Uiso   1.00
C19    C     0.34177   0.92326   0.38634   0.00000  Uiso   1.00
C20    C     0.40745   0.92015   0.38613   0.00000  Uiso   1.00
C21    C     0.22831   0.95491   0.58931   0.00000  Uiso   1.00
C22    C     0.18894   0.00752   0.58725   0.00000  Uiso   1.00
C23    C     0.18473   0.04296   0.67894   0.00000  Uiso   1.00
H24    H     0.32893   0.86603   0.73485   0.00000  Uiso   1.00
H25    H     0.27463   0.75620   0.74788   0.00000  Uiso   1.00
H26    H     0.43725   0.87650   0.64053   0.00000  Uiso   1.00
H27    H     0.28444   0.96074   0.84141   0.00000  Uiso   1.00
H28    H     0.19947   0.64176   0.72242   0.00000  Uiso   1.00
H29    H     0.54236   0.89544   0.49608   0.00000  Uiso   1.00
H30    H     0.22013   0.07310   0.91968   0.00000  Uiso   1.00
H31    H     0.21348   0.92257   0.42756   0.00000  Uiso   1.00
H32    H     0.15284   0.81584   0.42372   0.00000  Uiso   1.00
H33    H     0.31547   0.93614   0.31637   0.00000  Uiso   1.00
H34    H     0.16265   0.02039   0.51726   0.00000  Uiso   1.00
H35    H     0.10062   0.69016   0.45932   0.00000  Uiso   1.00
H36    H     0.44352   0.94385   0.23298   0.00000  Uiso   1.00
H37    H     0.12129   0.12150   0.65658   0.00000  Uiso   1.00
O38    O     0.11225   0.59472   0.59387   0.00000  Uiso   1.00
O39    O     0.56212   0.92756   0.29693   0.00000  Uiso   1.00
O40    O     0.13936   0.16063   0.85269   0.00000  Uiso   1.00
N41    N     0.18451   0.66780   0.66104   0.00000  Uiso   1.00
N42    N     0.50510   0.90497   0.44942   0.00000  Uiso   1.00
N43    N     0.20386   0.07107   0.84544   0.00000  Uiso   1.00
N44    N     0.13132   0.69385   0.51947   0.00000  Uiso   1.00
N45    N     0.45191   0.93102   0.30785   0.00000  Uiso   1.00
N46    N     0.15067   0.09712   0.70387   0.00000  Uiso   1.00
C47    C     0.80247   0.37898   0.16445   0.00000  Uiso   1.00
C48    C     0.75696   0.32715   0.12893   0.00000  Uiso   1.00
C49    C     0.74832   0.26906   0.17790   0.00000  Uiso   1.00
C50    C     0.70446   0.22814   0.13320   0.00000  Uiso   1.00
C51    C     0.63898   0.14512   0.09176   0.00000  Uiso   1.00
C52    C     0.84532   0.39250   0.07059   0.00000  Uiso   1.00
C53    C     0.91097   0.38937   0.07054   0.00000  Uiso   1.00
C54    C     0.94149   0.40348   0.97673   0.00000  Uiso   1.00
C55    C     0.01319   0.42197   0.84475   0.00000  Uiso   1.00
C56    C     0.76229   0.43827   0.17974   0.00000  Uiso   1.00
C57    C     0.75814   0.47364   0.27145   0.00000  Uiso   1.00
C58    C     0.71876   0.52629   0.26953   0.00000  Uiso   1.00
C59    C     0.66154   0.61584   0.30702   0.00000  Uiso   1.00
C60    C     0.73993   0.40961   0.99796   0.00000  Uiso   1.00
C61    C     0.72299   0.34379   0.03849   0.00000  Uiso   1.00
C62    C     0.67912   0.30295   0.99370   0.00000  Uiso   1.00
C63    C     0.67042   0.24481   0.04261   0.00000  Uiso   1.00
C64    C     0.81135   0.40914   0.98016   0.00000  Uiso   1.00
C65    C     0.84177   0.42326   0.88634   0.00000  Uiso   1.00
C66    C     0.90745   0.42015   0.88613   0.00000  Uiso   1.00
C67    C     0.72831   0.45491   0.08931   0.00000  Uiso   1.00
C68    C     0.68894   0.50752   0.08725   0.00000  Uiso   1.00
C69    C     0.68473   0.54296   0.17894   0.00000  Uiso   1.00
H70    H     0.82893   0.36603   0.23485   0.00000  Uiso   1.00
H71    H     0.77463   0.25620   0.24788   0.00000  Uiso   1.00
H72    H     0.93725   0.37650   0.14053   0.00000  Uiso   1.00
H73    H     0.78444   0.46074   0.34141   0.00000  Uiso   1.00
H74    H     0.69947   0.14176   0.22242   0.00000  Uiso   1.00
H75    H     0.04236   0.39544   0.99608   0.00000  Uiso   1.00
H76    H     0.72013   0.57310   0.41968   0.00000  Uiso   1.00
H77    H     0.71348   0.42257   0.92756   0.00000  Uiso   1.00
H78    H     0.65284   0.31584   0.92372   0.00000  Uiso   1.00
H79    H     0.81547   0.43614   0.81637   0.00000  Uiso   1.00
H80    H     0.66265   0.52039   0.01726   0.00000  Uiso   1.00
H81    H     0.60062   0.19016   0.95932   0.00000  Uiso   1.00
H82    H     0.94352   0.44385   0.73298   0.00000  Uiso   1.00
H83    H     0.62129   0.62150   0.15658   0.00000  Uiso   1.00
O84    O     0.61225   0.09472   0.09387   0.00000  Uiso   1.00
O85    O     0.06212   0.42756   0.79693   0.00000  Uiso   1.00
O86    O     0.63936   0.66063   0.35269   0.00000  Uiso   1.00
N87    N     0.68451   0.16780   0.16104   0.00000  Uiso   1.00
N88    N     0.00510   0.40497   0.94942   0.00000  Uiso   1.00
N89    N     0.70386   0.57107   0.34544   0.00000  Uiso   1.00
N90    N     0.63132   0.19385   0.01947   0.00000  Uiso   1.00
N91    N     0.95191   0.43102   0.80785   0.00000  Uiso   1.00
N92    N     0.65067   0.59712   0.20387   0.00000  Uiso   1.00
C93    C     0.69753   0.12102   0.66445   0.00000  Uiso   1.00
C94    C     0.74304   0.17285   0.62893   0.00000  Uiso   1.00
C95    C     0.75168   0.23094   0.67790   0.00000  Uiso   1.00
C96    C     0.79554   0.27186   0.63320   0.00000  Uiso   1.00
C97    C     0.86102   0.35488   0.59176   0.00000  Uiso   1.00
C98    C     0.65468   0.10750   0.57059   0.00000  Uiso   1.00
C99    C     0.58903   0.11063   0.57054   0.00000  Uiso   1.00
C100   C     0.55851   0.09652   0.47673   0.00000  Uiso   1.00
C101   C     0.48681   0.07803   0.34475   0.00000  Uiso   1.00
C102   C     0.73771   0.06173   0.67974   0.00000  Uiso   1.00
C103   C     0.74186   0.02636   0.77145   0.00000  Uiso   1.00
C104   C     0.78124   0.97371   0.76953   0.00000  Uiso   1.00
C105   C     0.83846   0.88416   0.80702   0.00000  Uiso   1.00
C106   C     0.76007   0.09039   0.49796   0.00000  Uiso   1.00
C107   C     0.77701   0.15621   0.53849   0.00000  Uiso   1.00
C108   C     0.82088   0.19705   0.49370   0.00000  Uiso   1.00
C109   C     0.82958   0.25519   0.54261   0.00000  Uiso   1.00
C110   C     0.68865   0.09086   0.48016   0.00000  Uiso   1.00
C111   C     0.65823   0.07674   0.38634   0.00000  Uiso   1.00
C112   C     0.59255   0.07985   0.38613   0.00000  Uiso   1.00
C113   C     0.77169   0.04509   0.58931   0.00000  Uiso   1.00
C114   C     0.81106   0.99248   0.58725   0.00000  Uiso   1.00
C115   C     0.81527   0.95704   0.67894   0.00000  Uiso   1.00
H116   H     0.67107   0.13397   0.73485   0.00000  Uiso   1.00
H117   H     0.72537   0.24380   0.74788   0.00000  Uiso   1.00
H118   H     0.56275   0.12350   0.64053   0.00000  Uiso   1.00
H119   H     0.71556   0.03926   0.84141   0.00000  Uiso   1.00
H120   H     0.80053   0.35824   0.72242   0.00000  Uiso   1.00
H121   H     0.45764   0.10456   0.49608   0.00000  Uiso   1.00
H122   H     0.77987   0.92690   0.91968   0.00000  Uiso   1.00
H123   H     0.78652   0.07743   0.42756   0.00000  Uiso   1.00
H124   H     0.84716   0.18416   0.42372   0.00000  Uiso   1.00
H125   H     0.68453   0.06386   0.31637   0.00000  Uiso   1.00
H126   H     0.83735   0.97961   0.51726   0.00000  Uiso   1.00
H127   H     0.89938   0.30984   0.45932   0.00000  Uiso   1.00
H128   H     0.55648   0.05615   0.23298   0.00000  Uiso   1.00
H129   H     0.87871   0.87850   0.65658   0.00000  Uiso   1.00
O130   O     0.88775   0.40528   0.59387   0.00000  Uiso   1.00
O131   O     0.43788   0.07244   0.29693   0.00000  Uiso   1.00
O132   O     0.86064   0.83937   0.85269   0.00000  Uiso   1.00
N133   N     0.81549   0.33220   0.66104   0.00000  Uiso   1.00
N134   N     0.49490   0.09503   0.44942   0.00000  Uiso   1.00
N135   N     0.79614   0.92893   0.84544   0.00000  Uiso   1.00
N136   N     0.86868   0.30615   0.51947   0.00000  Uiso   1.00
N137   N     0.54809   0.06898   0.30785   0.00000  Uiso   1.00
N138   N     0.84933   0.90288   0.70387   0.00000  Uiso   1.00
C139   C     0.19753   0.62102   0.16445   0.00000  Uiso   1.00
C140   C     0.24304   0.67285   0.12893   0.00000  Uiso   1.00
C141   C     0.25168   0.73094   0.17790   0.00000  Uiso   1.00
C142   C     0.29554   0.77186   0.13320   0.00000  Uiso   1.00
C143   C     0.36102   0.85488   0.09176   0.00000  Uiso   1.00
C144   C     0.15468   0.60750   0.07059   0.00000  Uiso   1.00
C145   C     0.08903   0.61063   0.07054   0.00000  Uiso   1.00
C146   C     0.05851   0.59652   0.97673   0.00000  Uiso   1.00
C147   C     0.98681   0.57803   0.84475   0.00000  Uiso   1.00
C148   C     0.23771   0.56173   0.17974   0.00000  Uiso   1.00
C149   C     0.24186   0.52636   0.27145   0.00000  Uiso   1.00
C150   C     0.28124   0.47371   0.26953   0.00000  Uiso   1.00
C151   C     0.33846   0.38416   0.30702   0.00000  Uiso   1.00
C152   C     0.26007   0.59039   0.99796   0.00000  Uiso   1.00
C153   C     0.27701   0.65621   0.03849   0.00000  Uiso   1.00
C154   C     0.32088   0.69705   0.99370   0.00000  Uiso   1.00
C155   C     0.32958   0.75519   0.04261   0.00000  Uiso   1.00
C156   C     0.18865   0.59086   0.98016   0.00000  Uiso   1.00
C157   C     0.15823   0.57674   0.88634   0.00000  Uiso   1.00
C158   C     0.09255   0.57985   0.88613   0.00000  Uiso   1.00
C159   C     0.27169   0.54509   0.08931   0.00000  Uiso   1.00
C160   C     0.31106   0.49248   0.08725   0.00000  Uiso   1.00
C161   C     0.31527   0.45704   0.17894   0.00000  Uiso   1.00
H162   H     0.17107   0.63397   0.23485   0.00000  Uiso   1.00
H163   H     0.22537   0.74380   0.24788   0.00000  Uiso   1.00
H164   H     0.06275   0.62350   0.14053   0.00000  Uiso   1.00
H165   H     0.21556   0.53926   0.34141   0.00000  Uiso   1.00
H166   H     0.30053   0.85824   0.22242   0.00000  Uiso   1.00
H167   H     0.95764   0.60456   0.99608   0.00000  Uiso   1.00
H168   H     0.27987   0.42690   0.41968   0.00000  Uiso   1.00
H169   H     0.28652   0.57743   0.92756   0.00000  Uiso   1.00
H170   H     0.34716   0.68416   0.92372   0.00000  Uiso   1.00
H171   H     0.18453   0.56386   0.81637   0.00000  Uiso   1.00
H172   H     0.33735   0.47961   0.01726   0.00000  Uiso   1.00
H173   H     0.39938   0.80984   0.95932   0.00000  Uiso   1.00
H174   H     0.05648   0.55615   0.73298   0.00000  Uiso   1.00
H175   H     0.37871   0.37850   0.15658   0.00000  Uiso   1.00
O176   O     0.38775   0.90528   0.09387   0.00000  Uiso   1.00
O177   O     0.93788   0.57244   0.79693   0.00000  Uiso   1.00
O178   O     0.36064   0.33937   0.35269   0.00000  Uiso   1.00
N179   N     0.31549   0.83220   0.16104   0.00000  Uiso   1.00
N180   N     0.99490   0.59503   0.94942   0.00000  Uiso   1.00
N181   N     0.29614   0.42893   0.34544   0.00000  Uiso   1.00
N182   N     0.36868   0.80615   0.01947   0.00000  Uiso   1.00
N183   N     0.04809   0.56898   0.80785   0.00000  Uiso   1.00
N184   N     0.34933   0.40288   0.20387   0.00000  Uiso   1.00
C185   C     0.12102   0.30247   0.66445   0.00000  Uiso   1.00
C186   C     0.17285   0.25696   0.62893   0.00000  Uiso   1.00
C187   C     0.23094   0.24832   0.67790   0.00000  Uiso   1.00
C188   C     0.27186   0.20446   0.63320   0.00000  Uiso   1.00
C189   C     0.35488   0.13898   0.59176   0.00000  Uiso   1.00
C190   C     0.10750   0.34532   0.57059   0.00000  Uiso   1.00
C191   C     0.11063   0.41097   0.57054   0.00000  Uiso   1.00
C192   C     0.09652   0.44149   0.47673   0.00000  Uiso   1.00
C193   C     0.07803   0.51319   0.34475   0.00000  Uiso   1.00
C194   C     0.06173   0.26229   0.67974   0.00000  Uiso   1.00
C195   C     0.02636   0.25814   0.77145   0.00000  Uiso   1.00
C196   C     0.97371   0.21876   0.76953   0.00000  Uiso   1.00
C197   C     0.88416   0.16154   0.80702   0.00000  Uiso   1.00
C198   C     0.09039   0.23993   0.49796   0.00000  Uiso   1.00
C199   C     0.15621   0.22299   0.53849   0.00000  Uiso   1.00
C200   C     0.19705   0.17912   0.49370   0.00000  Uiso   1.00
C201   C     0.25519   0.17042   0.54261   0.00000  Uiso   1.00
C202   C     0.09086   0.31135   0.48016   0.00000  Uiso   1.00
C203   C     0.07674   0.34177   0.38634   0.00000  Uiso   1.00
C204   C     0.07985   0.40745   0.38613   0.00000  Uiso   1.00
C205   C     0.04509   0.22831   0.58931   0.00000  Uiso   1.00
C206   C     0.99248   0.18894   0.58725   0.00000  Uiso   1.00
C207   C     0.95704   0.18473   0.67894   0.00000  Uiso   1.00
H208   H     0.13397   0.32893   0.73485   0.00000  Uiso   1.00
H209   H     0.24380   0.27463   0.74788   0.00000  Uiso   1.00
H210   H     0.12350   0.43725   0.64053   0.00000  Uiso   1.00
H211   H     0.03926   0.28444   0.84141   0.00000  Uiso   1.00
H212   H     0.35824   0.19947   0.72242   0.00000  Uiso   1.00
H213   H     0.10456   0.54236   0.49608   0.00000  Uiso   1.00
H214   H     0.92690   0.22013   0.91968   0.00000  Uiso   1.00
H215   H     0.07743   0.21348   0.42756   0.00000  Uiso   1.00
H216   H     0.18416   0.15284   0.42372   0.00000  Uiso   1.00
H217   H     0.06386   0.31547   0.31637   0.00000  Uiso   1.00
H218   H     0.97961   0.16265   0.51726   0.00000  Uiso   1.00
H219   H     0.30984   0.10062   0.45932   0.00000  Uiso   1.00
H220   H     0.05615   0.44352   0.23298   0.00000  Uiso   1.00
H221   H     0.87850   0.12129   0.65658   0.00000  Uiso   1.00
O222   O     0.40528   0.11225   0.59387   0.00000  Uiso   1.00
O223   O     0.07244   0.56212   0.29693   0.00000  Uiso   1.00
O224   O     0.83937   0.13936   0.85269   0.00000  Uiso   1.00
N225   N     0.33220   0.18451   0.66104   0.00000  Uiso   1.00
N226   N     0.09503   0.50510   0.44942   0.00000  Uiso   1.00
N227   N     0.92893   0.20386   0.84544   0.00000  Uiso   1.00
N228   N     0.30615   0.13132   0.51947   0.00000  Uiso   1.00
N229   N     0.06898   0.45191   0.30785   0.00000  Uiso   1.00
N230   N     0.90288   0.15067   0.70387   0.00000  Uiso   1.00
C231   C     0.62102   0.80247   0.16445   0.00000  Uiso   1.00
C232   C     0.67285   0.75696   0.12893   0.00000  Uiso   1.00
C233   C     0.73094   0.74832   0.17790   0.00000  Uiso   1.00
C234   C     0.77186   0.70446   0.13320   0.00000  Uiso   1.00
C235   C     0.85488   0.63898   0.09176   0.00000  Uiso   1.00
C236   C     0.60750   0.84532   0.07059   0.00000  Uiso   1.00
C237   C     0.61063   0.91097   0.07054   0.00000  Uiso   1.00
C238   C     0.59652   0.94149   0.97673   0.00000  Uiso   1.00
C239   C     0.57803   0.01319   0.84475   0.00000  Uiso   1.00
C240   C     0.56173   0.76229   0.17974   0.00000  Uiso   1.00
C241   C     0.52636   0.75814   0.27145   0.00000  Uiso   1.00
C242   C     0.47371   0.71876   0.26953   0.00000  Uiso   1.00
C243   C     0.38416   0.66154   0.30702   0.00000  Uiso   1.00
C244   C     0.59039   0.73993   0.99796   0.00000  Uiso   1.00
C245   C     0.65621   0.72299   0.03849   0.00000  Uiso   1.00
C246   C     0.69705   0.67912   0.99370   0.00000  Uiso   1.00
C247   C     0.75519   0.67042   0.04261   0.00000  Uiso   1.00
C248   C     0.59086   0.81135   0.98016   0.00000  Uiso   1.00
C249   C     0.57674   0.84177   0.88634   0.00000  Uiso   1.00
C250   C     0.57985   0.90745   0.88613   0.00000  Uiso   1.00
C251   C     0.54509   0.72831   0.08931   0.00000  Uiso   1.00
C252   C     0.49248   0.68894   0.08725   0.00000  Uiso   1.00
C253   C     0.45704   0.68473   0.17894   0.00000  Uiso   1.00
H254   H     0.63397   0.82893   0.23485   0.00000  Uiso   1.00
H255   H     0.74380   0.77463   0.24788   0.00000  Uiso   1.00
H256   H     0.62350   0.93725   0.14053   0.00000  Uiso   1.00
H257   H     0.53926   0.78444   0.34141   0.00000  Uiso   1.00
H258   H     0.85824   0.69947   0.22242   0.00000  Uiso   1.00
H259   H     0.60456   0.04236   0.99608   0.00000  Uiso   1.00
H260   H     0.42690   0.72013   0.41968   0.00000  Uiso   1.00
H261   H     0.57743   0.71348   0.92756   0.00000  Uiso   1.00
H262   H     0.68416   0.65284   0.92372   0.00000  Uiso   1.00
H263   H     0.56386   0.81547   0.81637   0.00000  Uiso   1.00
H264   H     0.47961   0.66265   0.01726   0.00000  Uiso   1.00
H265   H     0.80984   0.60062   0.95932   0.00000  Uiso   1.00
H266   H     0.55615   0.94352   0.73298   0.00000  Uiso   1.00
H267   H     0.37850   0.62129   0.15658   0.00000  Uiso   1.00
O268   O     0.90528   0.61225   0.09387   0.00000  Uiso   1.00
O269   O     0.57244   0.06212   0.79693   0.00000  Uiso   1.00
O270   O     0.33937   0.63936   0.35269   0.00000  Uiso   1.00
N271   N     0.83220   0.68451   0.16104   0.00000  Uiso   1.00
N272   N     0.59503   0.00510   0.94942   0.00000  Uiso   1.00
N273   N     0.42893   0.70386   0.34544   0.00000  Uiso   1.00
N274   N     0.80615   0.63132   0.01947   0.00000  Uiso   1.00
N275   N     0.56898   0.95191   0.80785   0.00000  Uiso   1.00
N276   N     0.40288   0.65067   0.20387   0.00000  Uiso   1.00
C277   C     0.87898   0.69753   0.66445   0.00000  Uiso   1.00
C278   C     0.82715   0.74304   0.62893   0.00000  Uiso   1.00
C279   C     0.76906   0.75168   0.67790   0.00000  Uiso   1.00
C280   C     0.72814   0.79554   0.63320   0.00000  Uiso   1.00
C281   C     0.64512   0.86102   0.59176   0.00000  Uiso   1.00
C282   C     0.89250   0.65468   0.57059   0.00000  Uiso   1.00
C283   C     0.88937   0.58903   0.57054   0.00000  Uiso   1.00
C284   C     0.90348   0.55851   0.47673   0.00000  Uiso   1.00
C285   C     0.92197   0.48681   0.34475   0.00000  Uiso   1.00
C286   C     0.93827   0.73771   0.67974   0.00000  Uiso   1.00
C287   C     0.97364   0.74186   0.77145   0.00000  Uiso   1.00
C288   C     0.02629   0.78124   0.76953   0.00000  Uiso   1.00
C289   C     0.11584   0.83846   0.80702   0.00000  Uiso   1.00
C290   C     0.90961   0.76007   0.49796   0.00000  Uiso   1.00
C291   C     0.84379   0.77701   0.53849   0.00000  Uiso   1.00
C292   C     0.80295   0.82088   0.49370   0.00000  Uiso   1.00
C293   C     0.74481   0.82958   0.54261   0.00000  Uiso   1.00
C294   C     0.90914   0.68865   0.48016   0.00000  Uiso   1.00
C295   C     0.92326   0.65823   0.38634   0.00000  Uiso   1.00
C296   C     0.92015   0.59255   0.38613   0.00000  Uiso   1.00
C297   C     0.95491   0.77169   0.58931   0.00000  Uiso   1.00
C298   C     0.00752   0.81106   0.58725   0.00000  Uiso   1.00
C299   C     0.04296   0.81527   0.67894   0.00000  Uiso   1.00
H300   H     0.86603   0.67107   0.73485   0.00000  Uiso   1.00
H301   H     0.75620   0.72537   0.74788   0.00000  Uiso   1.00
H302   H     0.87650   0.56275   0.64053   0.00000  Uiso   1.00
H303   H     0.96074   0.71556   0.84141   0.00000  Uiso   1.00
H304   H     0.64176   0.80053   0.72242   0.00000  Uiso   1.00
H305   H     0.89544   0.45764   0.49608   0.00000  Uiso   1.00
H306   H     0.07310   0.77987   0.91968   0.00000  Uiso   1.00
H307   H     0.92257   0.78652   0.42756   0.00000  Uiso   1.00
H308   H     0.81584   0.84716   0.42372   0.00000  Uiso   1.00
H309   H     0.93614   0.68453   0.31637   0.00000  Uiso   1.00
H310   H     0.02039   0.83735   0.51726   0.00000  Uiso   1.00
H311   H     0.69016   0.89938   0.45932   0.00000  Uiso   1.00
H312   H     0.94385   0.55648   0.23298   0.00000  Uiso   1.00
H313   H     0.12150   0.87871   0.65658   0.00000  Uiso   1.00
O314   O     0.59472   0.88775   0.59387   0.00000  Uiso   1.00
O315   O     0.92756   0.43788   0.29693   0.00000  Uiso   1.00
O316   O     0.16063   0.86064   0.85269   0.00000  Uiso   1.00
N317   N     0.66780   0.81549   0.66104   0.00000  Uiso   1.00
N318   N     0.90497   0.49490   0.44942   0.00000  Uiso   1.00
N319   N     0.07107   0.79614   0.84544   0.00000  Uiso   1.00
N320   N     0.69385   0.86868   0.51947   0.00000  Uiso   1.00
N321   N     0.93102   0.54809   0.30785   0.00000  Uiso   1.00
N322   N     0.09712   0.84933   0.70387   0.00000  Uiso   1.00
C323   C     0.37898   0.19753   0.16445   0.00000  Uiso   1.00
C324   C     0.32715   0.24304   0.12893   0.00000  Uiso   1.00
C325   C     0.26906   0.25168   0.17790   0.00000  Uiso   1.00
C326   C     0.22814   0.29554   0.13320   0.00000  Uiso   1.00
C327   C     0.14512   0.36102   0.09176   0.00000  Uiso   1.00
C328   C     0.39250   0.15468   0.07059   0.00000  Uiso   1.00
C329   C     0.38937   0.08903   0.07054   0.00000  Uiso   1.00
C330   C     0.40348   0.05851   0.97673   0.00000  Uiso   1.00
C331   C     0.42197   0.98681   0.84475   0.00000  Uiso   1.00
C332   C     0.43827   0.23771   0.17974   0.00000  Uiso   1.00
C333   C     0.47364   0.24186   0.27145   0.00000  Uiso   1.00
C334   C     0.52629   0.28124   0.26953   0.00000  Uiso   1.00
C335   C     0.61584   0.33846   0.30702   0.00000  Uiso   1.00
C336   C     0.40961   0.26007   0.99796   0.00000  Uiso   1.00
C337   C     0.34379   0.27701   0.03849   0.00000  Uiso   1.00
C338   C     0.30295   0.32088   0.99370   0.00000  Uiso   1.00
C339   C     0.24481   0.32958   0.04261   0.00000  Uiso   1.00
C340   C     0.40914   0.18865   0.98016   0.00000  Uiso   1.00
C341   C     0.42326   0.15823   0.88634   0.00000  Uiso   1.00
C342   C     0.42015   0.09255   0.88613   0.00000  Uiso   1.00
C343   C     0.45491   0.27169   0.08931   0.00000  Uiso   1.00
C344   C     0.50752   0.31106   0.08725   0.00000  Uiso   1.00
C345   C     0.54296   0.31527   0.17894   0.00000  Uiso   1.00
H346   H     0.36603   0.17107   0.23485   0.00000  Uiso   1.00
H347   H     0.25620   0.22537   0.24788   0.00000  Uiso   1.00
H348   H     0.37650   0.06275   0.14053   0.00000  Uiso   1.00
H349   H     0.46074   0.21556   0.34141   0.00000  Uiso   1.00
H350   H     0.14176   0.30053   0.22242   0.00000  Uiso   1.00
H351   H     0.39544   0.95764   0.99608   0.00000  Uiso   1.00
H352   H     0.57310   0.27987   0.41968   0.00000  Uiso   1.00
H353   H     0.42257   0.28652   0.92756   0.00000  Uiso   1.00
H354   H     0.31584   0.34716   0.92372   0.00000  Uiso   1.00
H355   H     0.43614   0.18453   0.81637   0.00000  Uiso   1.00
H356   H     0.52039   0.33735   0.01726   0.00000  Uiso   1.00
H357   H     0.19016   0.39938   0.95932   0.00000  Uiso   1.00
H358   H     0.44385   0.05648   0.73298   0.00000  Uiso   1.00
H359   H     0.62150   0.37871   0.15658   0.00000  Uiso   1.00
O360   O     0.09472   0.38775   0.09387   0.00000  Uiso   1.00
O361   O     0.42756   0.93788   0.79693   0.00000  Uiso   1.00
O362   O     0.66063   0.36064   0.35269   0.00000  Uiso   1.00
N363   N     0.16780   0.31549   0.16104   0.00000  Uiso   1.00
N364   N     0.40497   0.99490   0.94942   0.00000  Uiso   1.00
N365   N     0.57107   0.29614   0.34544   0.00000  Uiso   1.00
N366   N     0.19385   0.36868   0.01947   0.00000  Uiso   1.00
N367   N     0.43102   0.04809   0.80785   0.00000  Uiso   1.00
N368   N     0.59712   0.34933   0.20387   0.00000  Uiso   1.00
