data_job_06743
_audit_creation_date              2018-12-19
_audit_creation_method            'Materials Studio'
_symmetry_space_group_name_H-M    'P1'
_symmetry_Int_Tables_number       1
_symmetry_cell_setting            triclinic
loop_
_symmetry_equiv_pos_as_xyz
  x,y,z
_cell_length_a                    21.8034
_cell_length_b                    22.1984
_cell_length_c                    21.9892
_cell_angle_alpha                 106.9920
_cell_angle_beta                  106.0720
_cell_angle_gamma                 101.4110
loop_
_atom_site_label
_atom_site_type_symbol
_atom_site_fract_x
_atom_site_fract_y
_atom_site_fract_z
_atom_site_U_iso_or_equiv
_atom_site_adp_type
_atom_site_occupancy
C1     C     0.03000   0.22268   0.72044   0.00000  Uiso   1.00
C2     C     0.03070   0.22485   0.65195   0.00000  Uiso   1.00
C3     C     0.06892   0.27665   0.64224   0.00000  Uiso   1.00
C4     C     0.06244   0.26911   0.57560   0.00000  Uiso   1.00
C5     C     0.07006   0.28121   0.47760   0.00000  Uiso   1.00
C6     C     0.95718   0.21041   0.71565   0.00000  Uiso   1.00
C7     C     0.93361   0.25007   0.75949   0.00000  Uiso   1.00
C8     C     0.86524   0.23037   0.74647   0.00000  Uiso   1.00
C9     C     0.75874   0.22002   0.74739   0.00000  Uiso   1.00
C10    C     0.04764   0.16048   0.72448   0.00000  Uiso   1.00
C11    C     0.10012   0.15815   0.77575   0.00000  Uiso   1.00
C12    C     0.10790   0.09641   0.77018   0.00000  Uiso   1.00
C13    C     0.14186   0.00854   0.78480   0.00000  Uiso   1.00
C14    C     0.95051   0.11716   0.61938   0.00000  Uiso   1.00
C15    C     0.98752   0.16753   0.59706   0.00000  Uiso   1.00
C16    C     0.98098   0.15991   0.53042   0.00000  Uiso   1.00
C17    C     0.01919   0.21169   0.52061   0.00000  Uiso   1.00
C18    C     0.91400   0.15310   0.66076   0.00000  Uiso   1.00
C19    C     0.84566   0.13333   0.64768   0.00000  Uiso   1.00
C20    C     0.82199   0.17295   0.69148   0.00000  Uiso   1.00
C21    C     0.00447   0.10316   0.66958   0.00000  Uiso   1.00
C22    C     0.01217   0.04141   0.66394   0.00000  Uiso   1.00
C23    C     0.06465   0.03899   0.71519   0.00000  Uiso   1.00
H24    H     0.06361   0.26730   0.76318   0.00000  Uiso   1.00
H25    H     0.10233   0.32100   0.68473   0.00000  Uiso   1.00
H26    H     0.96703   0.29442   0.80197   0.00000  Uiso   1.00
H27    H     0.13352   0.20252   0.81822   0.00000  Uiso   1.00
H28    H     0.12619   0.35527   0.57354   0.00000  Uiso   1.00
H29    H     0.84092   0.29921   0.82076   0.00000  Uiso   1.00
H30    H     0.19199   0.10542   0.85504   0.00000  Uiso   1.00
H31    H     0.91689   0.07254   0.57665   0.00000  Uiso   1.00
H32    H     0.94756   0.11555   0.48796   0.00000  Uiso   1.00
H33    H     0.81226   0.08897   0.60520   0.00000  Uiso   1.00
H34    H     0.97875   0.99707   0.62145   0.00000  Uiso   1.00
H35    H     0.00057   0.18852   0.41383   0.00000  Uiso   1.00
H36    H     0.71530   0.13246   0.66105   0.00000  Uiso   1.00
H37    H     0.06637   0.93867   0.69533   0.00000  Uiso   1.00
O38    O     0.08619   0.30372   0.43871   0.00000  Uiso   1.00
O39    O     0.71192   0.23016   0.76306   0.00000  Uiso   1.00
O40    O     0.17252   0.97591   0.80803   0.00000  Uiso   1.00
N41    N     0.09243   0.31012   0.54813   0.00000  Uiso   1.00
N42    N     0.82571   0.25771   0.77925   0.00000  Uiso   1.00
N43    N     0.15392   0.07653   0.81131   0.00000  Uiso   1.00
N44    N     0.02484   0.22039   0.46219   0.00000  Uiso   1.00
N45    N     0.75812   0.16798   0.69332   0.00000  Uiso   1.00
N46    N     0.08633   0.98680   0.72537   0.00000  Uiso   1.00
C47    C     0.99406   0.95876   0.14752   0.00000  Uiso   1.00
C48    C     0.92276   0.94983   0.14710   0.00000  Uiso   1.00
C49    C     0.90361   0.99027   0.19494   0.00000  Uiso   1.00
C50    C     0.83593   0.97376   0.18555   0.00000  Uiso   1.00
C51    C     0.73234   0.96824   0.19332   0.00000  Uiso   1.00
C52    C     0.00839   0.89408   0.14672   0.00000  Uiso   1.00
C53    C     0.06126   0.88764   0.19422   0.00000  Uiso   1.00
C54    C     0.06567   0.82419   0.18451   0.00000  Uiso   1.00
C55    C     0.09506   0.73212   0.19165   0.00000  Uiso   1.00
C56    C     0.99200   0.96300   0.07905   0.00000  Uiso   1.00
C57    C     0.03109   0.01450   0.06965   0.00000  Uiso   1.00
C58    C     0.02171   0.00907   0.00296   0.00000  Uiso   1.00
C59    C     0.02563   0.02401   0.90503   0.00000  Uiso   1.00
C60    C     0.90791   0.85753   0.04579   0.00000  Uiso   1.00
C61    C     0.87596   0.89485   0.09184   0.00000  Uiso   1.00
C62    C     0.80829   0.87827   0.08238   0.00000  Uiso   1.00
C63    C     0.78905   0.91868   0.13019   0.00000  Uiso   1.00
C64    C     0.96160   0.83910   0.09146   0.00000  Uiso   1.00
C65    C     0.96594   0.77564   0.08167   0.00000  Uiso   1.00
C66    C     0.01880   0.76911   0.12915   0.00000  Uiso   1.00
C67    C     0.94520   0.90802   0.02379   0.00000  Uiso   1.00
C68    C     0.93576   0.90250   0.95710   0.00000  Uiso   1.00
C69    C     0.97483   0.95399   0.94760   0.00000  Uiso   1.00
H70    H     0.03050   0.00157   0.19055   0.00000  Uiso   1.00
H71    H     0.93984   0.03282   0.23770   0.00000  Uiso   1.00
H72    H     0.09747   0.93020   0.23698   0.00000  Uiso   1.00
H73    H     0.06729   0.05704   0.11243   0.00000  Uiso   1.00
H74    H     0.81871   0.04320   0.26562   0.00000  Uiso   1.00
H75    H     0.15108   0.82683   0.26409   0.00000  Uiso   1.00
H76    H     0.08746   0.09430   0.00145   0.00000  Uiso   1.00
H77    H     0.87148   0.81472   0.00277   0.00000  Uiso   1.00
H78    H     0.77209   0.83572   0.03961   0.00000  Uiso   1.00
H79    H     0.92972   0.73310   0.03890   0.00000  Uiso   1.00
H80    H     0.89955   0.85995   0.91435   0.00000  Uiso   1.00
H81    H     0.68255   0.88322   0.10485   0.00000  Uiso   1.00
H82    H     0.01493   0.66686   0.10332   0.00000  Uiso   1.00
H83    H     0.95130   0.93433   0.84068   0.00000  Uiso   1.00
O84    O     0.68813   0.98038   0.21287   0.00000  Uiso   1.00
O85    O     0.12420   0.69652   0.21086   0.00000  Uiso   1.00
O86    O     0.04072   0.04744   0.86628   0.00000  Uiso   1.00
N87    N     0.80030   0.00267   0.22272   0.00000  Uiso   1.00
N88    N     0.11104   0.80039   0.22129   0.00000  Uiso   1.00
N89    N     0.05157   0.05044   0.97575   0.00000  Uiso   1.00
N90    N     0.72704   0.91659   0.13621   0.00000  Uiso   1.00
N91    N     0.03778   0.71431   0.13478   0.00000  Uiso   1.00
N92    N     0.97831   0.96436   0.88924   0.00000  Uiso   1.00
C93    C     0.36446   0.82731   0.80114   0.00000  Uiso   1.00
C94    C     0.35710   0.75393   0.78404   0.00000  Uiso   1.00
C95    C     0.40231   0.72764   0.81732   0.00000  Uiso   1.00
C96    C     0.38650   0.65923   0.79398   0.00000  Uiso   1.00
C97    C     0.38406   0.55147   0.77571   0.00000  Uiso   1.00
C98    C     0.36042   0.83977   0.73573   0.00000  Uiso   1.00
C99    C     0.40842   0.88565   0.72840   0.00000  Uiso   1.00
C100   C     0.39538   0.88950   0.66438   0.00000  Uiso   1.00
C101   C     0.39807   0.91504   0.57113   0.00000  Uiso   1.00
C102   C     0.30150   0.83701   0.81469   0.00000  Uiso   1.00
C103   C     0.29995   0.88059   0.87375   0.00000  Uiso   1.00
C104   C     0.23731   0.88213   0.87621   0.00000  Uiso   1.00
C105   C     0.14852   0.90339   0.90556   0.00000  Uiso   1.00
C106   C     0.25597   0.75258   0.70051   0.00000  Uiso   1.00
C107   C     0.29818   0.71334   0.72938   0.00000  Uiso   1.00
C108   C     0.28228   0.64496   0.70598   0.00000  Uiso   1.00
C109   C     0.32746   0.61857   0.73922   0.00000  Uiso   1.00
C110   C     0.30149   0.79918   0.68107   0.00000  Uiso   1.00
C111   C     0.28838   0.80297   0.61706   0.00000  Uiso   1.00
C112   C     0.33635   0.84884   0.60962   0.00000  Uiso   1.00
C113   C     0.24257   0.79642   0.76003   0.00000  Uiso   1.00
C114   C     0.17992   0.79790   0.76241   0.00000  Uiso   1.00
C115   C     0.17828   0.84147   0.82145   0.00000  Uiso   1.00
H116   H     0.41033   0.85891   0.84370   0.00000  Uiso   1.00
H117   H     0.44792   0.75907   0.85962   0.00000  Uiso   1.00
H118   H     0.45401   0.91706   0.77071   0.00000  Uiso   1.00
H119   H     0.34556   0.91199   0.91604   0.00000  Uiso   1.00
H120   H     0.46361   0.63047   0.85314   0.00000  Uiso   1.00
H121   H     0.47645   0.96362   0.66568   0.00000  Uiso   1.00
H122   H     0.24777   0.95294   0.97214   0.00000  Uiso   1.00
H123   H     0.21009   0.72098   0.65795   0.00000  Uiso   1.00
H124   H     0.23668   0.61356   0.66368   0.00000  Uiso   1.00
H125   H     0.24278   0.77155   0.57477   0.00000  Uiso   1.00
H126   H     0.13433   0.76648   0.72010   0.00000  Uiso   1.00
H127   H     0.29216   0.51237   0.69411   0.00000  Uiso   1.00
H128   H     0.30500   0.84553   0.50665   0.00000  Uiso   1.00
H129   H     0.07633   0.83484   0.81310   0.00000  Uiso   1.00
O130   O     0.39900   0.50325   0.78073   0.00000  Uiso   1.00
O131   O     0.41584   0.94034   0.53479   0.00000  Uiso   1.00
O132   O     0.11583   0.92632   0.93686   0.00000  Uiso   1.00
N133   N     0.41960   0.61742   0.81494   0.00000  Uiso   1.00
N134   N     0.43161   0.92889   0.63967   0.00000  Uiso   1.00
N135   N     0.21782   0.91891   0.92617   0.00000  Uiso   1.00
N136   N     0.32735   0.55387   0.72936   0.00000  Uiso   1.00
N137   N     0.33936   0.86534   0.55409   0.00000  Uiso   1.00
N138   N     0.12556   0.85536   0.84060   0.00000  Uiso   1.00
C139   C     0.48816   0.24672   0.52253   0.00000  Uiso   1.00
C140   C     0.41694   0.19943   0.48854   0.00000  Uiso   1.00
C141   C     0.39938   0.13109   0.46800   0.00000  Uiso   1.00
C142   C     0.33150   0.09663   0.43789   0.00000  Uiso   1.00
C143   C     0.22830   0.01821   0.38655   0.00000  Uiso   1.00
C144   C     0.49073   0.29507   0.58941   0.00000  Uiso   1.00
C145   C     0.53522   0.30714   0.65367   0.00000  Uiso   1.00
C146   C     0.52946   0.35320   0.70847   0.00000  Uiso   1.00
C147   C     0.54085   0.42329   0.81371   0.00000  Uiso   1.00
C148   C     0.49557   0.28702   0.47804   0.00000  Uiso   1.00
C149   C     0.54414   0.29234   0.44867   0.00000  Uiso   1.00
C150   C     0.54246   0.33164   0.40972   0.00000  Uiso   1.00
C151   C     0.56138   0.38924   0.34205   0.00000  Uiso   1.00
C152   C     0.39883   0.30705   0.50559   0.00000  Uiso   1.00
C153   C     0.36843   0.23220   0.47935   0.00000  Uiso   1.00
C154   C     0.30055   0.19784   0.44926   0.00000  Uiso   1.00
C155   C     0.28289   0.12946   0.42867   0.00000  Uiso   1.00
C156   C     0.44222   0.32783   0.58021   0.00000  Uiso   1.00
C157   C     0.43639   0.37389   0.63493   0.00000  Uiso   1.00
C158   C     0.48085   0.38603   0.69925   0.00000  Uiso   1.00
C159   C     0.44705   0.31979   0.46884   0.00000  Uiso   1.00
C160   C     0.44531   0.35909   0.42993   0.00000  Uiso   1.00
C161   C     0.49386   0.36447   0.40050   0.00000  Uiso   1.00
H162   H     0.52593   0.22121   0.52970   0.00000  Uiso   1.00
H163   H     0.43694   0.10575   0.47513   0.00000  Uiso   1.00
H164   H     0.57277   0.28178   0.66077   0.00000  Uiso   1.00
H165   H     0.58168   0.26698   0.45580   0.00000  Uiso   1.00
H166   H     0.31689   0.99219   0.41061   0.00000  Uiso   1.00
H167   H     0.60329   0.36337   0.80203   0.00000  Uiso   1.00
H168   H     0.62209   0.33217   0.36981   0.00000  Uiso   1.00
H169   H     0.36105   0.33257   0.49843   0.00000  Uiso   1.00
H170   H     0.26301   0.22321   0.44215   0.00000  Uiso   1.00
H171   H     0.39884   0.39924   0.62779   0.00000  Uiso   1.00
H172   H     0.40775   0.38444   0.42282   0.00000  Uiso   1.00
H173   H     0.17572   0.08752   0.38384   0.00000  Uiso   1.00
H174   H     0.46212   0.45871   0.77526   0.00000  Uiso   1.00
H175   H     0.48092   0.42750   0.34305   0.00000  Uiso   1.00
O176   O     0.18478   0.96591   0.36078   0.00000  Uiso   1.00
O177   O     0.56054   0.45290   0.87431   0.00000  Uiso   1.00
O178   O     0.58521   0.41195   0.30726   0.00000  Uiso   1.00
N179   N     0.29712   0.02963   0.41202   0.00000  Uiso   1.00
N180   N     0.56488   0.37666   0.77797   0.00000  Uiso   1.00
N181   N     0.58247   0.34750   0.37391   0.00000  Uiso   1.00
N182   N     0.22116   0.08093   0.39761   0.00000  Uiso   1.00
N183   N     0.48892   0.42796   0.76357   0.00000  Uiso   1.00
N184   N     0.50651   0.39880   0.35950   0.00000  Uiso   1.00
C185   C     0.46343   0.73727   0.45856   0.00000  Uiso   1.00
C186   C     0.39140   0.70252   0.40930   0.00000  Uiso   1.00
C187   C     0.33496   0.69408   0.42725   0.00000  Uiso   1.00
C188   C     0.27354   0.66094   0.37465   0.00000  Uiso   1.00
C189   C     0.16241   0.61063   0.30851   0.00000  Uiso   1.00
C190   C     0.49129   0.79195   0.43577   0.00000  Uiso   1.00
C191   C     0.51886   0.85870   0.47598   0.00000  Uiso   1.00
C192   C     0.54154   0.90083   0.44566   0.00000  Uiso   1.00
C193   C     0.58554   0.98935   0.42063   0.00000  Uiso   1.00
C194   C     0.50163   0.68731   0.44472   0.00000  Uiso   1.00
C195   C     0.53790   0.66608   0.49245   0.00000  Uiso   1.00
C196   C     0.56930   0.62013   0.46967   0.00000  Uiso   1.00
C197   C     0.62935   0.54617   0.45855   0.00000  Uiso   1.00
C198   C     0.45472   0.69342   0.33323   0.00000  Uiso   1.00
C199   C     0.38667   0.67870   0.34122   0.00000  Uiso   1.00
C200   C     0.32532   0.64556   0.28858   0.00000  Uiso   1.00
C201   C     0.26880   0.63707   0.30645   0.00000  Uiso   1.00
C202   C     0.48656   0.76813   0.36770   0.00000  Uiso   1.00
C203   C     0.50921   0.81017   0.33731   0.00000  Uiso   1.00
C204   C     0.53679   0.87697   0.37746   0.00000  Uiso   1.00
C205   C     0.49690   0.66348   0.37664   0.00000  Uiso   1.00
C206   C     0.52825   0.61756   0.35379   0.00000  Uiso   1.00
C207   C     0.56456   0.59626   0.40148   0.00000  Uiso   1.00
H208   H     0.46712   0.75582   0.51156   0.00000  Uiso   1.00
H209   H     0.33865   0.71253   0.47993   0.00000  Uiso   1.00
H210   H     0.52252   0.87712   0.52866   0.00000  Uiso   1.00
H211   H     0.54156   0.68453   0.54513   0.00000  Uiso   1.00
H212   H     0.19412   0.65404   0.41485   0.00000  Uiso   1.00
H213   H     0.58184   0.00108   0.51759   0.00000  Uiso   1.00
H214   H     0.62199   0.59497   0.55233   0.00000  Uiso   1.00
H215   H     0.45103   0.67487   0.28023   0.00000  Uiso   1.00
H216   H     0.32167   0.62713   0.23591   0.00000  Uiso   1.00
H217   H     0.50554   0.79172   0.28463   0.00000  Uiso   1.00
H218   H     0.52458   0.59913   0.30110   0.00000  Uiso   1.00
H219   H     0.18033   0.58473   0.21679   0.00000  Uiso   1.00
H220   H     0.56806   0.93177   0.31953   0.00000  Uiso   1.00
H221   H     0.60821   0.52566   0.35427   0.00000  Uiso   1.00
O222   O     0.10242   0.58946   0.29084   0.00000  Uiso   1.00
O223   O     0.61111   0.04476   0.42564   0.00000  Uiso   1.00
O224   O     0.66378   0.51196   0.47121   0.00000  Uiso   1.00
N225   N     0.20863   0.64427   0.37432   0.00000  Uiso   1.00
N226   N     0.57112   0.96873   0.47037   0.00000  Uiso   1.00
N227   N     0.60867   0.58907   0.50286   0.00000  Uiso   1.00
N228   N     0.20121   0.60698   0.26775   0.00000  Uiso   1.00
N229   N     0.56370   0.93144   0.36380   0.00000  Uiso   1.00
N230   N     0.60125   0.55177   0.39628   0.00000  Uiso   1.00
C231   C     0.78720   0.50409   0.11522   0.00000  Uiso   1.00
C232   C     0.77161   0.46753   0.03965   0.00000  Uiso   1.00
C233   C     0.78140   0.49659   0.99375   0.00000  Uiso   1.00
C234   C     0.76399   0.45460   0.92682   0.00000  Uiso   1.00
C235   C     0.74380   0.40825   0.81256   0.00000  Uiso   1.00
C236   C     0.83489   0.47426   0.15301   0.00000  Uiso   1.00
C237   C     0.89787   0.50898   0.20242   0.00000  Uiso   1.00
C238   C     0.93372   0.47265   0.23092   0.00000  Uiso   1.00
C239   C     0.01175   0.43676   0.29268   0.00000  Uiso   1.00
C240   C     0.72200   0.48397   0.12750   0.00000  Uiso   1.00
C241   C     0.69008   0.52686   0.15548   0.00000  Uiso   1.00
C242   C     0.63090   0.49870   0.16253   0.00000  Uiso   1.00
C243   C     0.53366   0.47789   0.18469   0.00000  Uiso   1.00
C244   C     0.73887   0.37784   0.07800   0.00000  Uiso   1.00
C245   C     0.74536   0.39896   0.01944   0.00000  Uiso   1.00
C246   C     0.72793   0.35691   0.95256   0.00000  Uiso   1.00
C247   C     0.73769   0.38590   0.90657   0.00000  Uiso   1.00
C248   C     0.80864   0.40569   0.13279   0.00000  Uiso   1.00
C249   C     0.84440   0.36930   0.16123   0.00000  Uiso   1.00
C250   C     0.90743   0.40395   0.21066   0.00000  Uiso   1.00
C251   C     0.69575   0.41540   0.10728   0.00000  Uiso   1.00
C252   C     0.63661   0.38717   0.11429   0.00000  Uiso   1.00
C253   C     0.60460   0.43001   0.14228   0.00000  Uiso   1.00
H254   H     0.80765   0.55748   0.13097   0.00000  Uiso   1.00
H255   H     0.80173   0.54966   0.00942   0.00000  Uiso   1.00
H256   H     0.91817   0.56205   0.21806   0.00000  Uiso   1.00
H257   H     0.71041   0.57992   0.17112   0.00000  Uiso   1.00
H258   H     0.78361   0.51074   0.86574   0.00000  Uiso   1.00
H259   H     0.02914   0.53687   0.30569   0.00000  Uiso   1.00
H260   H     0.59103   0.57456   0.20673   0.00000  Uiso   1.00
H261   H     0.71843   0.32446   0.06226   0.00000  Uiso   1.00
H262   H     0.70761   0.30384   0.93693   0.00000  Uiso   1.00
H263   H     0.82406   0.31624   0.14557   0.00000  Uiso   1.00
H264   H     0.61630   0.33411   0.09864   0.00000  Uiso   1.00
H265   H     0.70722   0.31123   0.80691   0.00000  Uiso   1.00
H266   H     0.95275   0.33736   0.24686   0.00000  Uiso   1.00
H267   H     0.51465   0.37505   0.14790   0.00000  Uiso   1.00
O268   O     0.73993   0.40163   0.75513   0.00000  Uiso   1.00
O269   O     0.06205   0.43591   0.33233   0.00000  Uiso   1.00
O270   O     0.48727   0.48536   0.20249   0.00000  Uiso   1.00
N271   N     0.76710   0.46662   0.86909   0.00000  Uiso   1.00
N272   N     0.99666   0.49104   0.28041   0.00000  Uiso   1.00
N273   N     0.58708   0.52628   0.18791   0.00000  Uiso   1.00
N274   N     0.72600   0.35926   0.83744   0.00000  Uiso   1.00
N275   N     0.95556   0.38369   0.24875   0.00000  Uiso   1.00
N276   N     0.54598   0.41892   0.15625   0.00000  Uiso   1.00
C277   C     0.30537   0.86737   0.13789   0.00000  Uiso   1.00
C278   C     0.30937   0.86695   0.20810   0.00000  Uiso   1.00
C279   C     0.27001   0.81837   0.22096   0.00000  Uiso   1.00
C280   C     0.28139   0.82706   0.28872   0.00000  Uiso   1.00
C281   C     0.28018   0.81799   0.38969   0.00000  Uiso   1.00
C282   C     0.37550   0.87261   0.13582   0.00000  Uiso   1.00
C283   C     0.39174   0.82878   0.08789   0.00000  Uiso   1.00
C284   C     0.45881   0.84223   0.09481   0.00000  Uiso   1.00
C285   C     0.56026   0.84196   0.08352   0.00000  Uiso   1.00
C286   C     0.29306   0.93232   0.13655   0.00000  Uiso   1.00
C287   C     0.23999   0.93870   0.08923   0.00000  Uiso   1.00
C288   C     0.23764   0.00243   0.09676   0.00000  Uiso   1.00
C289   C     0.21108   0.09487   0.08661   0.00000  Uiso   1.00
C290   C     0.39558   0.96919   0.23537   0.00000  Uiso   1.00
C291   C     0.35837   0.92226   0.26105   0.00000  Uiso   1.00
C292   C     0.36982   0.93103   0.32881   0.00000  Uiso   1.00
C293   C     0.33048   0.88247   0.34177   0.00000  Uiso   1.00
C294   C     0.42451   0.92791   0.18876   0.00000  Uiso   1.00
C295   C     0.49156   0.94144   0.19575   0.00000  Uiso   1.00
C296   C     0.50790   0.89764   0.14785   0.00000  Uiso   1.00
C297   C     0.34206   0.98763   0.18950   0.00000  Uiso   1.00
C298   C     0.33980   0.05136   0.19709   0.00000  Uiso   1.00
C299   C     0.28673   0.05784   0.14980   0.00000  Uiso   1.00
H300   H     0.26722   0.82431   0.09666   0.00000  Uiso   1.00
H301   H     0.23209   0.77557   0.17996   0.00000  Uiso   1.00
H302   H     0.35381   0.78599   0.04692   0.00000  Uiso   1.00
H303   H     0.20208   0.89589   0.04826   0.00000  Uiso   1.00
H304   H     0.21478   0.74592   0.29567   0.00000  Uiso   1.00
H305   H     0.47142   0.76789   0.01512   0.00000  Uiso   1.00
H306   H     0.15146   0.99965   0.01796   0.00000  Uiso   1.00
H307   H     0.43373   0.01225   0.27660   0.00000  Uiso   1.00
H308   H     0.40774   0.97383   0.36978   0.00000  Uiso   1.00
H309   H     0.52946   0.98424   0.23673   0.00000  Uiso   1.00
H310   H     0.37773   0.09415   0.23808   0.00000  Uiso   1.00
H311   H     0.35734   0.90683   0.44974   0.00000  Uiso   1.00
H312   H     0.61399   0.92880   0.16918   0.00000  Uiso   1.00
H313   H     0.29402   0.16056   0.17202   0.00000  Uiso   1.00
O314   O     0.26597   0.79770   0.43076   0.00000  Uiso   1.00
O315   O     0.60268   0.82653   0.06267   0.00000  Uiso   1.00
O316   O     0.18289   0.13058   0.06640   0.00000  Uiso   1.00
N317   N     0.25189   0.78907   0.31915   0.00000  Uiso   1.00
N318   N     0.49184   0.80960   0.05685   0.00000  Uiso   1.00
N319   N     0.19271   0.02628   0.05949   0.00000  Uiso   1.00
N320   N     0.32860   0.87566   0.40204   0.00000  Uiso   1.00
N321   N     0.56855   0.89619   0.13975   0.00000  Uiso   1.00
N322   N     0.26942   0.11286   0.14239   0.00000  Uiso   1.00
C323   C     0.33834   0.12652   0.71068   0.00000  Uiso   1.00
C324   C     0.40562   0.12875   0.70189   0.00000  Uiso   1.00
C325   C     0.41621   0.08406   0.64971   0.00000  Uiso   1.00
C326   C     0.48147   0.09467   0.65070   0.00000  Uiso   1.00
C327   C     0.57791   0.09002   0.62922   0.00000  Uiso   1.00
C328   C     0.32825   0.19318   0.71344   0.00000  Uiso   1.00
C329   C     0.27379   0.20267   0.67098   0.00000  Uiso   1.00
C330   C     0.27392   0.26752   0.68170   0.00000  Uiso   1.00
C331   C     0.25022   0.36290   0.67818   0.00000  Uiso   1.00
C332   C     0.34767   0.12501   0.78149   0.00000  Uiso   1.00
C333   C     0.30951   0.07718   0.79626   0.00000  Uiso   1.00
C334   C     0.32597   0.08465   0.86428   0.00000  Uiso   1.00
C335   C     0.33242   0.07418   0.96643   0.00000  Uiso   1.00
C336   C     0.43540   0.22483   0.80522   0.00000  Uiso   1.00
C337   C     0.45834   0.18215   0.75324   0.00000  Uiso   1.00
C338   C     0.52360   0.19282   0.75431   0.00000  Uiso   1.00
C339   C     0.53428   0.14816   0.70214   0.00000  Uiso   1.00
C340   C     0.38097   0.24658   0.76479   0.00000  Uiso   1.00
C341   C     0.38118   0.31143   0.77558   0.00000  Uiso   1.00
C342   C     0.32673   0.32101   0.73314   0.00000  Uiso   1.00
C343   C     0.40038   0.17840   0.83285   0.00000  Uiso   1.00
C344   C     0.41690   0.18595   0.90086   0.00000  Uiso   1.00
C345   C     0.37879   0.13814   0.91572   0.00000  Uiso   1.00
H346   H     0.29730   0.08495   0.67070   0.00000  Uiso   1.00
H347   H     0.37540   0.04275   0.60997   0.00000  Uiso   1.00
H348   H     0.23300   0.16134   0.63125   0.00000  Uiso   1.00
H349   H     0.26872   0.03587   0.75651   0.00000  Uiso   1.00
H350   H     0.48523   0.01951   0.56528   0.00000  Uiso   1.00
H351   H     0.18497   0.26956   0.61015   0.00000  Uiso   1.00
H352   H     0.26029   0.00499   0.87429   0.00000  Uiso   1.00
H353   H     0.47645   0.26640   0.84520   0.00000  Uiso   1.00
H354   H     0.56438   0.23415   0.79405   0.00000  Uiso   1.00
H355   H     0.42198   0.35274   0.81532   0.00000  Uiso   1.00
H356   H     0.45770   0.22727   0.94058   0.00000  Uiso   1.00
H357   H     0.63862   0.17487   0.71469   0.00000  Uiso   1.00
H358   H     0.33835   0.42491   0.75955   0.00000  Uiso   1.00
H359   H     0.41367   0.16034   0.02369   0.00000  Uiso   1.00
O360   O     0.61654   0.07271   0.60318   0.00000  Uiso   1.00
O361   O     0.22259   0.40076   0.66205   0.00000  Uiso   1.00
O362   O     0.32141   0.05365   0.00859   0.00000  Uiso   1.00
N363   N     0.50927   0.06049   0.60747   0.00000  Uiso   1.00
N364   N     0.22854   0.29428   0.64941   0.00000  Uiso   1.00
N365   N     0.29895   0.04693   0.89636   0.00000  Uiso   1.00
N366   N     0.59180   0.14409   0.68787   0.00000  Uiso   1.00
N367   N     0.31107   0.37787   0.72981   0.00000  Uiso   1.00
N368   N     0.38148   0.13053   0.97675   0.00000  Uiso   1.00
C369   C     0.98727   0.26769   0.06124   0.00000  Uiso   1.00
C370   C     0.99375   0.34080   0.07729   0.00000  Uiso   1.00
C371   C     0.94826   0.36614   0.04291   0.00000  Uiso   1.00
C372   C     0.96326   0.43447   0.06540   0.00000  Uiso   1.00
C373   C     0.96442   0.54169   0.08199   0.00000  Uiso   1.00
C374   C     0.99092   0.25596   0.12694   0.00000  Uiso   1.00
C375   C     0.94306   0.20997   0.13430   0.00000  Uiso   1.00
C376   C     0.95568   0.20687   0.19858   0.00000  Uiso   1.00
C377   C     0.95246   0.18234   0.29224   0.00000  Uiso   1.00
C378   C     0.05083   0.25857   0.04877   0.00000  Uiso   1.00
C379   C     0.05334   0.21476   0.99041   0.00000  Uiso   1.00
C380   C     0.11640   0.21384   0.98890   0.00000  Uiso   1.00
C381   C     0.20620   0.19337   0.96119   0.00000  Uiso   1.00
C382   C     0.09479   0.34396   0.16232   0.00000  Uiso   1.00
C383   C     0.05215   0.38222   0.13219   0.00000  Uiso   1.00
C384   C     0.06722   0.45053   0.15474   0.00000  Uiso   1.00
C385   C     0.02177   0.47597   0.12040   0.00000  Uiso   1.00
C386   C     0.04932   0.29739   0.18184   0.00000  Uiso   1.00
C387   C     0.06202   0.29435   0.24613   0.00000  Uiso   1.00
C388   C     0.01418   0.24837   0.25359   0.00000  Uiso   1.00
C389   C     0.10923   0.30000   0.10367   0.00000  Uiso   1.00
C390   C     0.17230   0.29915   0.10225   0.00000  Uiso   1.00
C391   C     0.17490   0.25534   0.04390   0.00000  Uiso   1.00
H392   H     0.94181   0.23543   0.01850   0.00000  Uiso   1.00
H393   H     0.90307   0.33407   0.00042   0.00000  Uiso   1.00
H394   H     0.89787   0.17791   0.09180   0.00000  Uiso   1.00
H395   H     0.00814   0.18271   0.94794   0.00000  Uiso   1.00
H396   H     0.88587   0.46169   0.00461   0.00000  Uiso   1.00
H397   H     0.87491   0.13241   0.19727   0.00000  Uiso   1.00
H398   H     0.10743   0.14252   0.89392   0.00000  Uiso   1.00
H399   H     0.14026   0.37621   0.20507   0.00000  Uiso   1.00
H400   H     0.11242   0.48257   0.19723   0.00000  Uiso   1.00
H401   H     0.10722   0.32642   0.28861   0.00000  Uiso   1.00
H402   H     0.21748   0.33121   0.14475   0.00000  Uiso   1.00
H403   H     0.05578   0.58222   0.16435   0.00000  Uiso   1.00
H404   H     0.04483   0.25294   0.35701   0.00000  Uiso   1.00
H405   H     0.27734   0.26305   0.05366   0.00000  Uiso   1.00
O406   O     0.94892   0.58938   0.07598   0.00000  Uiso   1.00
O407   O     0.93455   0.15738   0.32873   0.00000  Uiso   1.00
O408   O     0.23960   0.17064   0.93074   0.00000  Uiso   1.00
N409   N     0.92969   0.47546   0.04328   0.00000  Uiso   1.00
N410   N     0.91944   0.16761   0.22340   0.00000  Uiso   1.00
N411   N     0.13682   0.17705   0.93980   0.00000  Uiso   1.00
N412   N     0.02112   0.54032   0.12923   0.00000  Uiso   1.00
N413   N     0.01087   0.23247   0.30936   0.00000  Uiso   1.00
N414   N     0.22825   0.24191   0.02575   0.00000  Uiso   1.00
C415   C     0.78993   0.84962   0.36757   0.00000  Uiso   1.00
C416   C     0.79544   0.92139   0.37604   0.00000  Uiso   1.00
C417   C     0.74712   0.95210   0.38429   0.00000  Uiso   1.00
C418   C     0.76168   0.01807   0.39119   0.00000  Uiso   1.00
C419   C     0.76098   0.12432   0.40451   0.00000  Uiso   1.00
C420   C     0.80035   0.81858   0.30100   0.00000  Uiso   1.00
C421   C     0.75615   0.76285   0.24616   0.00000  Uiso   1.00
C422   C     0.77485   0.74228   0.18991   0.00000  Uiso   1.00
C423   C     0.78179   0.68890   0.08675   0.00000  Uiso   1.00
C424   C     0.85062   0.85175   0.42401   0.00000  Uiso   1.00
C425   C     0.84869   0.82390   0.47259   0.00000  Uiso   1.00
C426   C     0.90972   0.83123   0.51989   0.00000  Uiso   1.00
C427   C     0.99472   0.82935   0.60773   0.00000  Uiso   1.00
C428   C     0.90174   0.91216   0.36517   0.00000  Uiso   1.00
C429   C     0.85617   0.95535   0.37473   0.00000  Uiso   1.00
C430   C     0.87082   0.02129   0.38163   0.00000  Uiso   1.00
C431   C     0.82252   0.05210   0.38989   0.00000  Uiso   1.00
C432   C     0.86108   0.85255   0.29969   0.00000  Uiso   1.00
C433   C     0.87985   0.83205   0.24351   0.00000  Uiso   1.00
C434   C     0.83569   0.77631   0.18860   0.00000  Uiso   1.00
C435   C     0.91135   0.88572   0.42271   0.00000  Uiso   1.00
C436   C     0.97239   0.89310   0.46994   0.00000  Uiso   1.00
C437   C     0.97056   0.86526   0.51859   0.00000  Uiso   1.00
H438   H     0.74265   0.82317   0.36858   0.00000  Uiso   1.00
H439   H     0.70012   0.92579   0.38529   0.00000  Uiso   1.00
H440   H     0.70916   0.73657   0.24719   0.00000  Uiso   1.00
H441   H     0.80169   0.79761   0.47358   0.00000  Uiso   1.00
H442   H     0.67974   0.05454   0.40321   0.00000  Uiso   1.00
H443   H     0.69880   0.65555   0.11203   0.00000  Uiso   1.00
H444   H     0.89392   0.78426   0.58943   0.00000  Uiso   1.00
H445   H     0.94902   0.93861   0.36415   0.00000  Uiso   1.00
H446   H     0.91782   0.04757   0.38062   0.00000  Uiso   1.00
H447   H     0.92685   0.85835   0.24252   0.00000  Uiso   1.00
H448   H     0.01938   0.91939   0.46892   0.00000  Uiso   1.00
H449   H     0.85643   0.15338   0.39942   0.00000  Uiso   1.00
H450   H     0.87549   0.75438   0.10824   0.00000  Uiso   1.00
H451   H     0.07061   0.88309   0.58564   0.00000  Uiso   1.00
O452   O     0.74382   0.17354   0.41221   0.00000  Uiso   1.00
O453   O     0.76884   0.65008   0.03020   0.00000  Uiso   1.00
O454   O     0.02483   0.81894   0.65654   0.00000  Uiso   1.00
N455   N     0.72561   0.06285   0.40007   0.00000  Uiso   1.00
N456   N     0.74343   0.68982   0.12784   0.00000  Uiso   1.00
N457   N     0.92585   0.81014   0.57415   0.00000  Uiso   1.00
N458   N     0.82069   0.11604   0.39804   0.00000  Uiso   1.00
N459   N     0.83850   0.74301   0.12580   0.00000  Uiso   1.00
N460   N     0.02092   0.86332   0.57211   0.00000  Uiso   1.00
C461   C     0.84848   0.41027   0.44354   0.00000  Uiso   1.00
C462   C     0.92341   0.43827   0.48469   0.00000  Uiso   1.00
C463   C     0.97318   0.41695   0.46527   0.00000  Uiso   1.00
C464   C     0.03875   0.44893   0.51005   0.00000  Uiso   1.00
C465   C     0.15279   0.48456   0.56454   0.00000  Uiso   1.00
C466   C     0.81566   0.38880   0.48980   0.00000  Uiso   1.00
C467   C     0.77483   0.32588   0.47467   0.00000  Uiso   1.00
C468   C     0.74968   0.31622   0.52375   0.00000  Uiso   1.00
C469   C     0.69640   0.27506   0.58615   0.00000  Uiso   1.00
C470   C     0.82550   0.46864   0.43430   0.00000  Uiso   1.00
C471   C     0.79292   0.47284   0.37250   0.00000  Uiso   1.00
C472   C     0.77604   0.53039   0.37484   0.00000  Uiso   1.00
C473   C     0.73804   0.61318   0.35107   0.00000  Uiso   1.00
C474   C     0.87641   0.50498   0.55761   0.00000  Uiso   1.00
C475   C     0.93858   0.48971   0.54665   0.00000  Uiso   1.00
C476   C     0.00409   0.52173   0.59147   0.00000  Uiso   1.00
C477   C     0.05395   0.50046   0.57211   0.00000  Uiso   1.00
C478   C     0.83083   0.44024   0.55176   0.00000  Uiso   1.00
C479   C     0.80573   0.43066   0.60087   0.00000  Uiso   1.00
C480   C     0.76488   0.36775   0.58582   0.00000  Uiso   1.00
C481   C     0.84067   0.52008   0.49626   0.00000  Uiso   1.00
C482   C     0.82383   0.57762   0.49870   0.00000  Uiso   1.00
C483   C     0.79124   0.58192   0.43691   0.00000  Uiso   1.00
H484   H     0.83666   0.37022   0.39531   0.00000  Uiso   1.00
H485   H     0.96142   0.37714   0.41732   0.00000  Uiso   1.00
H486   H     0.76309   0.28609   0.42671   0.00000  Uiso   1.00
H487   H     0.78119   0.43303   0.32456   0.00000  Uiso   1.00
H488   H     0.10643   0.40748   0.46906   0.00000  Uiso   1.00
H489   H     0.68823   0.21550   0.48886   0.00000  Uiso   1.00
H490   H     0.72638   0.52534   0.27345   0.00000  Uiso   1.00
H491   H     0.88822   0.54503   0.60585   0.00000  Uiso   1.00
H492   H     0.01581   0.56154   0.63941   0.00000  Uiso   1.00
H493   H     0.81748   0.47048   0.64881   0.00000  Uiso   1.00
H494   H     0.83558   0.61742   0.54666   0.00000  Uiso   1.00
H495   H     0.15057   0.55714   0.64932   0.00000  Uiso   1.00
H496   H     0.73237   0.36516   0.66912   0.00000  Uiso   1.00
H497   H     0.77053   0.67500   0.45371   0.00000  Uiso   1.00
O498   O     0.21150   0.49000   0.57748   0.00000  Uiso   1.00
O499   O     0.66283   0.23814   0.60345   0.00000  Uiso   1.00
O500   O     0.71289   0.64464   0.32084   0.00000  Uiso   1.00
N501   N     0.09931   0.44044   0.50687   0.00000  Uiso   1.00
N502   N     0.70832   0.26095   0.52539   0.00000  Uiso   1.00
N503   N     0.74398   0.55062   0.32399   0.00000  Uiso   1.00
N504   N     0.12306   0.52097   0.60387   0.00000  Uiso   1.00
N505   N     0.73208   0.34148   0.62239   0.00000  Uiso   1.00
N506   N     0.76773   0.63115   0.42099   0.00000  Uiso   1.00
C507   C     0.55906   0.60129   0.70288   0.00000  Uiso   1.00
C508   C     0.57092   0.62598   0.77882   0.00000  Uiso   1.00
C509   C     0.57492   0.58790   0.81900   0.00000  Uiso   1.00
C510   C     0.58600   0.61971   0.88736   0.00000  Uiso   1.00
C511   C     0.60334   0.64777   0.00114   0.00000  Uiso   1.00
C512   C     0.49722   0.61838   0.66915   0.00000  Uiso   1.00
C513   C     0.43926   0.57392   0.61712   0.00000  Uiso   1.00
C514   C     0.38831   0.59934   0.59316   0.00000  Uiso   1.00
C515   C     0.29124   0.61561   0.53664   0.00000  Uiso   1.00
C516   C     0.61767   0.64463   0.69491   0.00000  Uiso   1.00
C517   C     0.66097   0.62224   0.66451   0.00000  Uiso   1.00
C518   C     0.71142   0.66976   0.66222   0.00000  Uiso   1.00
C519   C     0.80137   0.72679   0.64569   0.00000  Uiso   1.00
C520   C     0.57164   0.72550   0.75283   0.00000  Uiso   1.00
C521   C     0.57775   0.69344   0.80595   0.00000  Uiso   1.00
C522   C     0.58884   0.72532   0.87427   0.00000  Uiso   1.00
C523   C     0.59285   0.68730   0.91455   0.00000  Uiso   1.00
C524   C     0.50405   0.68585   0.69628   0.00000  Uiso   1.00
C525   C     0.45318   0.71134   0.67239   0.00000  Uiso   1.00
C526   C     0.39515   0.66692   0.62034   0.00000  Uiso   1.00
C527   C     0.62450   0.71210   0.72204   0.00000  Uiso   1.00
C528   C     0.67489   0.75966   0.71979   0.00000  Uiso   1.00
C529   C     0.71826   0.73734   0.68940   0.00000  Uiso   1.00
H530   H     0.55374   0.54877   0.68176   0.00000  Uiso   1.00
H531   H     0.56962   0.53569   0.79798   0.00000  Uiso   1.00
H532   H     0.43399   0.52172   0.59613   0.00000  Uiso   1.00
H533   H     0.65566   0.57003   0.64353   0.00000  Uiso   1.00
H534   H     0.59022   0.55094   0.93880   0.00000  Uiso   1.00
H535   H     0.30423   0.52147   0.51318   0.00000  Uiso   1.00
H536   H     0.77169   0.62335   0.61310   0.00000  Uiso   1.00
H537   H     0.57696   0.77803   0.77396   0.00000  Uiso   1.00
H538   H     0.59412   0.77753   0.89525   0.00000  Uiso   1.00
H539   H     0.45849   0.76355   0.69340   0.00000  Uiso   1.00
H540   H     0.68016   0.81186   0.74079   0.00000  Uiso   1.00
H541   H     0.61010   0.74722   0.01775   0.00000  Uiso   1.00
H542   H     0.32412   0.71775   0.59211   0.00000  Uiso   1.00
H543   H     0.79157   0.81963   0.69205   0.00000  Uiso   1.00
O544   O     0.61100   0.64461   0.05640   0.00000  Uiso   1.00
O545   O     0.23581   0.60595   0.49798   0.00000  Uiso   1.00
O546   O     0.84910   0.73961   0.62909   0.00000  Uiso   1.00
N547   N     0.59255   0.59720   0.94074   0.00000  Uiso   1.00
N548   N     0.32517   0.56965   0.54281   0.00000  Uiso   1.00
N549   N     0.76219   0.66490   0.63622   0.00000  Uiso   1.00
N550   N     0.60325   0.70282   0.98322   0.00000  Uiso   1.00
N551   N     0.33587   0.67527   0.58529   0.00000  Uiso   1.00
N552   N     0.77289   0.77051   0.67870   0.00000  Uiso   1.00
