data_job_01978
_audit_creation_date              2018-12-19
_audit_creation_method            'Materials Studio'
_symmetry_space_group_name_H-M    'P1'
_symmetry_Int_Tables_number       1
_symmetry_cell_setting            triclinic
loop_
_symmetry_equiv_pos_as_xyz
  x,y,z
_cell_length_a                    22.1378
_cell_length_b                    8.6116
_cell_length_c                    26.7781
_cell_angle_alpha                 90.0000
_cell_angle_beta                  82.9411
_cell_angle_gamma                 90.0000
loop_
_atom_site_label
_atom_site_type_symbol
_atom_site_fract_x
_atom_site_fract_y
_atom_site_fract_z
_atom_site_U_iso_or_equiv
_atom_site_adp_type
_atom_site_occupancy
C1     C     0.90060   0.17707   0.82343   0.00000  Uiso   1.00
C2     C     0.84761   0.14922   0.86449   0.00000  Uiso   1.00
C3     C     0.84014   0.02014   0.89567   0.00000  Uiso   1.00
C4     C     0.78857   0.01649   0.93086   0.00000  Uiso   1.00
C5     C     0.71276   0.95478   0.99402   0.00000  Uiso   1.00
C6     C     0.87229   0.20226   0.77494   0.00000  Uiso   1.00
C7     C     0.88557   0.11778   0.73082   0.00000  Uiso   1.00
C8     C     0.85479   0.15880   0.69063   0.00000  Uiso   1.00
C9     C     0.81732   0.17951   0.61475   0.00000  Uiso   1.00
C10    C     0.92824   0.33258   0.83569   0.00000  Uiso   1.00
C11    C     0.98857   0.35771   0.84264   0.00000  Uiso   1.00
C12    C     0.00489   0.50846   0.85358   0.00000  Uiso   1.00
C13    C     0.05429   0.73151   0.87202   0.00000  Uiso   1.00
C14    C     0.82232   0.40013   0.83050   0.00000  Uiso   1.00
C15    C     0.80510   0.27038   0.86833   0.00000  Uiso   1.00
C16    C     0.75353   0.26693   0.90349   0.00000  Uiso   1.00
C17    C     0.74598   0.13786   0.93471   0.00000  Uiso   1.00
C18    C     0.82978   0.32341   0.77878   0.00000  Uiso   1.00
C19    C     0.79897   0.36457   0.73864   0.00000  Uiso   1.00
C20    C     0.81220   0.28017   0.69447   0.00000  Uiso   1.00
C21    C     0.88572   0.45374   0.83953   0.00000  Uiso   1.00
C22    C     0.90196   0.60449   0.85046   0.00000  Uiso   1.00
C23    C     0.96230   0.62983   0.85742   0.00000  Uiso   1.00
H24    H     0.93369   0.08275   0.82044   0.00000  Uiso   1.00
H25    H     0.87305   0.92640   0.89268   0.00000  Uiso   1.00
H26    H     0.91848   0.02404   0.72786   0.00000  Uiso   1.00
H27    H     0.02145   0.26392   0.83966   0.00000  Uiso   1.00
H28    H     0.78704   0.80646   0.97446   0.00000  Uiso   1.00
H29    H     0.88286   0.01238   0.62692   0.00000  Uiso   1.00
H30    H     0.10000   0.51821   0.86267   0.00000  Uiso   1.00
H31    H     0.78922   0.49446   0.83348   0.00000  Uiso   1.00
H32    H     0.72064   0.36070   0.90645   0.00000  Uiso   1.00
H33    H     0.76608   0.45834   0.74163   0.00000  Uiso   1.00
H34    H     0.86905   0.69821   0.85343   0.00000  Uiso   1.00
H35    H     0.66335   0.15895   0.98563   0.00000  Uiso   1.00
H36    H     0.75917   0.36487   0.63809   0.00000  Uiso   1.00
H37    H     0.97631   0.87070   0.87385   0.00000  Uiso   1.00
O38    O     0.68268   0.88726   0.02779   0.00000  Uiso   1.00
O39    O     0.80840   0.15744   0.57184   0.00000  Uiso   1.00
O40    O     0.09328   0.82107   0.88114   0.00000  Uiso   1.00
N41    N     0.76735   0.90779   0.96708   0.00000  Uiso   1.00
N42    N     0.85693   0.10029   0.64216   0.00000  Uiso   1.00
N43    N     0.05994   0.57321   0.86255   0.00000  Uiso   1.00
N44    N     0.70079   0.09746   0.97309   0.00000  Uiso   1.00
N45    N     0.79037   0.28997   0.64817   0.00000  Uiso   1.00
N46    N     0.99338   0.76289   0.86856   0.00000  Uiso   1.00
C47    C     0.40060   0.67707   0.82343   0.00000  Uiso   1.00
C48    C     0.34761   0.64922   0.86449   0.00000  Uiso   1.00
C49    C     0.34014   0.52014   0.89567   0.00000  Uiso   1.00
C50    C     0.28857   0.51649   0.93086   0.00000  Uiso   1.00
C51    C     0.21276   0.45478   0.99402   0.00000  Uiso   1.00
C52    C     0.37229   0.70226   0.77494   0.00000  Uiso   1.00
C53    C     0.38557   0.61778   0.73082   0.00000  Uiso   1.00
C54    C     0.35479   0.65880   0.69063   0.00000  Uiso   1.00
C55    C     0.31732   0.67951   0.61475   0.00000  Uiso   1.00
C56    C     0.42824   0.83258   0.83569   0.00000  Uiso   1.00
C57    C     0.48857   0.85771   0.84264   0.00000  Uiso   1.00
C58    C     0.50489   0.00846   0.85358   0.00000  Uiso   1.00
C59    C     0.55429   0.23151   0.87202   0.00000  Uiso   1.00
C60    C     0.32232   0.90013   0.83050   0.00000  Uiso   1.00
C61    C     0.30510   0.77038   0.86833   0.00000  Uiso   1.00
C62    C     0.25353   0.76693   0.90349   0.00000  Uiso   1.00
C63    C     0.24598   0.63786   0.93471   0.00000  Uiso   1.00
C64    C     0.32978   0.82341   0.77878   0.00000  Uiso   1.00
C65    C     0.29897   0.86457   0.73864   0.00000  Uiso   1.00
C66    C     0.31220   0.78017   0.69447   0.00000  Uiso   1.00
C67    C     0.38572   0.95374   0.83953   0.00000  Uiso   1.00
C68    C     0.40196   0.10449   0.85046   0.00000  Uiso   1.00
C69    C     0.46230   0.12983   0.85742   0.00000  Uiso   1.00
H70    H     0.43369   0.58275   0.82044   0.00000  Uiso   1.00
H71    H     0.37305   0.42640   0.89268   0.00000  Uiso   1.00
H72    H     0.41848   0.52404   0.72786   0.00000  Uiso   1.00
H73    H     0.52145   0.76392   0.83966   0.00000  Uiso   1.00
H74    H     0.28704   0.30646   0.97446   0.00000  Uiso   1.00
H75    H     0.38286   0.51238   0.62692   0.00000  Uiso   1.00
H76    H     0.60000   0.01821   0.86267   0.00000  Uiso   1.00
H77    H     0.28922   0.99446   0.83348   0.00000  Uiso   1.00
H78    H     0.22064   0.86070   0.90645   0.00000  Uiso   1.00
H79    H     0.26608   0.95834   0.74163   0.00000  Uiso   1.00
H80    H     0.36905   0.19821   0.85343   0.00000  Uiso   1.00
H81    H     0.16335   0.65895   0.98563   0.00000  Uiso   1.00
H82    H     0.25917   0.86487   0.63809   0.00000  Uiso   1.00
H83    H     0.47631   0.37070   0.87385   0.00000  Uiso   1.00
O84    O     0.18268   0.38726   0.02779   0.00000  Uiso   1.00
O85    O     0.30840   0.65744   0.57184   0.00000  Uiso   1.00
O86    O     0.59328   0.32107   0.88114   0.00000  Uiso   1.00
N87    N     0.26735   0.40779   0.96708   0.00000  Uiso   1.00
N88    N     0.35693   0.60029   0.64216   0.00000  Uiso   1.00
N89    N     0.55994   0.07321   0.86255   0.00000  Uiso   1.00
N90    N     0.20079   0.59746   0.97309   0.00000  Uiso   1.00
N91    N     0.29037   0.78997   0.64817   0.00000  Uiso   1.00
N92    N     0.49338   0.26289   0.86856   0.00000  Uiso   1.00
C93    C     0.09940   0.17707   0.67657   0.00000  Uiso   1.00
C94    C     0.15239   0.14922   0.63551   0.00000  Uiso   1.00
C95    C     0.15986   0.02014   0.60433   0.00000  Uiso   1.00
C96    C     0.21143   0.01649   0.56914   0.00000  Uiso   1.00
C97    C     0.28724   0.95478   0.50598   0.00000  Uiso   1.00
C98    C     0.12771   0.20226   0.72506   0.00000  Uiso   1.00
C99    C     0.11443   0.11778   0.76918   0.00000  Uiso   1.00
C100   C     0.14521   0.15880   0.80937   0.00000  Uiso   1.00
C101   C     0.18268   0.17951   0.88525   0.00000  Uiso   1.00
C102   C     0.07176   0.33258   0.66431   0.00000  Uiso   1.00
C103   C     0.01143   0.35771   0.65736   0.00000  Uiso   1.00
C104   C     0.99511   0.50846   0.64642   0.00000  Uiso   1.00
C105   C     0.94571   0.73151   0.62798   0.00000  Uiso   1.00
C106   C     0.17768   0.40013   0.66950   0.00000  Uiso   1.00
C107   C     0.19490   0.27038   0.63167   0.00000  Uiso   1.00
C108   C     0.24647   0.26693   0.59651   0.00000  Uiso   1.00
C109   C     0.25402   0.13786   0.56529   0.00000  Uiso   1.00
C110   C     0.17022   0.32341   0.72122   0.00000  Uiso   1.00
C111   C     0.20103   0.36457   0.76136   0.00000  Uiso   1.00
C112   C     0.18780   0.28017   0.80553   0.00000  Uiso   1.00
C113   C     0.11428   0.45374   0.66047   0.00000  Uiso   1.00
C114   C     0.09804   0.60449   0.64954   0.00000  Uiso   1.00
C115   C     0.03770   0.62983   0.64258   0.00000  Uiso   1.00
H116   H     0.06631   0.08275   0.67956   0.00000  Uiso   1.00
H117   H     0.12695   0.92640   0.60732   0.00000  Uiso   1.00
H118   H     0.08152   0.02404   0.77214   0.00000  Uiso   1.00
H119   H     0.97855   0.26392   0.66034   0.00000  Uiso   1.00
H120   H     0.21296   0.80646   0.52554   0.00000  Uiso   1.00
H121   H     0.11714   0.01238   0.87308   0.00000  Uiso   1.00
H122   H     0.90000   0.51821   0.63733   0.00000  Uiso   1.00
H123   H     0.21078   0.49446   0.66652   0.00000  Uiso   1.00
H124   H     0.27936   0.36070   0.59355   0.00000  Uiso   1.00
H125   H     0.23392   0.45834   0.75837   0.00000  Uiso   1.00
H126   H     0.13095   0.69821   0.64657   0.00000  Uiso   1.00
H127   H     0.33665   0.15895   0.51437   0.00000  Uiso   1.00
H128   H     0.24083   0.36487   0.86191   0.00000  Uiso   1.00
H129   H     0.02369   0.87070   0.62615   0.00000  Uiso   1.00
O130   O     0.31732   0.88726   0.47221   0.00000  Uiso   1.00
O131   O     0.19160   0.15744   0.92816   0.00000  Uiso   1.00
O132   O     0.90672   0.82107   0.61886   0.00000  Uiso   1.00
N133   N     0.23265   0.90779   0.53292   0.00000  Uiso   1.00
N134   N     0.14307   0.10029   0.85784   0.00000  Uiso   1.00
N135   N     0.94006   0.57321   0.63745   0.00000  Uiso   1.00
N136   N     0.29921   0.09746   0.52691   0.00000  Uiso   1.00
N137   N     0.20963   0.28997   0.85183   0.00000  Uiso   1.00
N138   N     0.00662   0.76289   0.63144   0.00000  Uiso   1.00
C139   C     0.59940   0.67707   0.67657   0.00000  Uiso   1.00
C140   C     0.65239   0.64922   0.63551   0.00000  Uiso   1.00
C141   C     0.65986   0.52014   0.60433   0.00000  Uiso   1.00
C142   C     0.71143   0.51649   0.56914   0.00000  Uiso   1.00
C143   C     0.78724   0.45478   0.50598   0.00000  Uiso   1.00
C144   C     0.62771   0.70226   0.72506   0.00000  Uiso   1.00
C145   C     0.61443   0.61778   0.76918   0.00000  Uiso   1.00
C146   C     0.64521   0.65880   0.80937   0.00000  Uiso   1.00
C147   C     0.68268   0.67951   0.88525   0.00000  Uiso   1.00
C148   C     0.57176   0.83258   0.66431   0.00000  Uiso   1.00
C149   C     0.51143   0.85771   0.65736   0.00000  Uiso   1.00
C150   C     0.49511   0.00846   0.64642   0.00000  Uiso   1.00
C151   C     0.44571   0.23151   0.62798   0.00000  Uiso   1.00
C152   C     0.67768   0.90013   0.66950   0.00000  Uiso   1.00
C153   C     0.69490   0.77038   0.63167   0.00000  Uiso   1.00
C154   C     0.74647   0.76693   0.59651   0.00000  Uiso   1.00
C155   C     0.75402   0.63786   0.56529   0.00000  Uiso   1.00
C156   C     0.67022   0.82341   0.72122   0.00000  Uiso   1.00
C157   C     0.70103   0.86457   0.76136   0.00000  Uiso   1.00
C158   C     0.68780   0.78017   0.80553   0.00000  Uiso   1.00
C159   C     0.61428   0.95374   0.66047   0.00000  Uiso   1.00
C160   C     0.59804   0.10449   0.64954   0.00000  Uiso   1.00
C161   C     0.53770   0.12983   0.64258   0.00000  Uiso   1.00
H162   H     0.56631   0.58275   0.67956   0.00000  Uiso   1.00
H163   H     0.62695   0.42640   0.60732   0.00000  Uiso   1.00
H164   H     0.58152   0.52404   0.77214   0.00000  Uiso   1.00
H165   H     0.47855   0.76392   0.66034   0.00000  Uiso   1.00
H166   H     0.71296   0.30646   0.52554   0.00000  Uiso   1.00
H167   H     0.61714   0.51238   0.87308   0.00000  Uiso   1.00
H168   H     0.40000   0.01821   0.63733   0.00000  Uiso   1.00
H169   H     0.71078   0.99446   0.66652   0.00000  Uiso   1.00
H170   H     0.77936   0.86070   0.59355   0.00000  Uiso   1.00
H171   H     0.73392   0.95834   0.75837   0.00000  Uiso   1.00
H172   H     0.63095   0.19821   0.64657   0.00000  Uiso   1.00
H173   H     0.83665   0.65895   0.51437   0.00000  Uiso   1.00
H174   H     0.74083   0.86487   0.86191   0.00000  Uiso   1.00
H175   H     0.52369   0.37070   0.62615   0.00000  Uiso   1.00
O176   O     0.81732   0.38726   0.47221   0.00000  Uiso   1.00
O177   O     0.69160   0.65744   0.92816   0.00000  Uiso   1.00
O178   O     0.40672   0.32107   0.61886   0.00000  Uiso   1.00
N179   N     0.73265   0.40779   0.53292   0.00000  Uiso   1.00
N180   N     0.64307   0.60029   0.85784   0.00000  Uiso   1.00
N181   N     0.44006   0.07321   0.63745   0.00000  Uiso   1.00
N182   N     0.79921   0.59746   0.52691   0.00000  Uiso   1.00
N183   N     0.70963   0.78997   0.85183   0.00000  Uiso   1.00
N184   N     0.50662   0.26289   0.63144   0.00000  Uiso   1.00
C185   C     0.09940   0.82293   0.17657   0.00000  Uiso   1.00
C186   C     0.15239   0.85078   0.13551   0.00000  Uiso   1.00
C187   C     0.15986   0.97986   0.10433   0.00000  Uiso   1.00
C188   C     0.21143   0.98351   0.06914   0.00000  Uiso   1.00
C189   C     0.28724   0.04522   0.00598   0.00000  Uiso   1.00
C190   C     0.12771   0.79774   0.22506   0.00000  Uiso   1.00
C191   C     0.11443   0.88222   0.26918   0.00000  Uiso   1.00
C192   C     0.14521   0.84120   0.30937   0.00000  Uiso   1.00
C193   C     0.18268   0.82049   0.38525   0.00000  Uiso   1.00
C194   C     0.07176   0.66742   0.16431   0.00000  Uiso   1.00
C195   C     0.01143   0.64229   0.15736   0.00000  Uiso   1.00
C196   C     0.99511   0.49154   0.14642   0.00000  Uiso   1.00
C197   C     0.94571   0.26849   0.12798   0.00000  Uiso   1.00
C198   C     0.17768   0.59987   0.16950   0.00000  Uiso   1.00
C199   C     0.19490   0.72962   0.13167   0.00000  Uiso   1.00
C200   C     0.24647   0.73307   0.09651   0.00000  Uiso   1.00
C201   C     0.25402   0.86214   0.06529   0.00000  Uiso   1.00
C202   C     0.17022   0.67659   0.22122   0.00000  Uiso   1.00
C203   C     0.20103   0.63543   0.26136   0.00000  Uiso   1.00
C204   C     0.18780   0.71983   0.30553   0.00000  Uiso   1.00
C205   C     0.11428   0.54626   0.16047   0.00000  Uiso   1.00
C206   C     0.09804   0.39551   0.14954   0.00000  Uiso   1.00
C207   C     0.03770   0.37017   0.14258   0.00000  Uiso   1.00
H208   H     0.06631   0.91725   0.17956   0.00000  Uiso   1.00
H209   H     0.12695   0.07360   0.10732   0.00000  Uiso   1.00
H210   H     0.08152   0.97596   0.27214   0.00000  Uiso   1.00
H211   H     0.97855   0.73608   0.16034   0.00000  Uiso   1.00
H212   H     0.21296   0.19354   0.02554   0.00000  Uiso   1.00
H213   H     0.11714   0.98762   0.37308   0.00000  Uiso   1.00
H214   H     0.90000   0.48179   0.13733   0.00000  Uiso   1.00
H215   H     0.21078   0.50554   0.16652   0.00000  Uiso   1.00
H216   H     0.27936   0.63930   0.09355   0.00000  Uiso   1.00
H217   H     0.23392   0.54166   0.25837   0.00000  Uiso   1.00
H218   H     0.13095   0.30179   0.14657   0.00000  Uiso   1.00
H219   H     0.33665   0.84105   0.01437   0.00000  Uiso   1.00
H220   H     0.24083   0.63513   0.36191   0.00000  Uiso   1.00
H221   H     0.02369   0.12930   0.12615   0.00000  Uiso   1.00
O222   O     0.31732   0.11274   0.97221   0.00000  Uiso   1.00
O223   O     0.19160   0.84256   0.42816   0.00000  Uiso   1.00
O224   O     0.90672   0.17893   0.11886   0.00000  Uiso   1.00
N225   N     0.23265   0.09221   0.03292   0.00000  Uiso   1.00
N226   N     0.14307   0.89971   0.35784   0.00000  Uiso   1.00
N227   N     0.94006   0.42679   0.13745   0.00000  Uiso   1.00
N228   N     0.29921   0.90254   0.02691   0.00000  Uiso   1.00
N229   N     0.20963   0.71003   0.35183   0.00000  Uiso   1.00
N230   N     0.00662   0.23711   0.13144   0.00000  Uiso   1.00
C231   C     0.59940   0.32293   0.17657   0.00000  Uiso   1.00
C232   C     0.65239   0.35078   0.13551   0.00000  Uiso   1.00
C233   C     0.65986   0.47986   0.10433   0.00000  Uiso   1.00
C234   C     0.71143   0.48351   0.06914   0.00000  Uiso   1.00
C235   C     0.78724   0.54522   0.00598   0.00000  Uiso   1.00
C236   C     0.62771   0.29774   0.22506   0.00000  Uiso   1.00
C237   C     0.61443   0.38222   0.26918   0.00000  Uiso   1.00
C238   C     0.64521   0.34120   0.30937   0.00000  Uiso   1.00
C239   C     0.68268   0.32049   0.38525   0.00000  Uiso   1.00
C240   C     0.57176   0.16742   0.16431   0.00000  Uiso   1.00
C241   C     0.51143   0.14229   0.15736   0.00000  Uiso   1.00
C242   C     0.49511   0.99154   0.14642   0.00000  Uiso   1.00
C243   C     0.44571   0.76849   0.12798   0.00000  Uiso   1.00
C244   C     0.67768   0.09987   0.16950   0.00000  Uiso   1.00
C245   C     0.69490   0.22962   0.13167   0.00000  Uiso   1.00
C246   C     0.74647   0.23307   0.09651   0.00000  Uiso   1.00
C247   C     0.75402   0.36214   0.06529   0.00000  Uiso   1.00
C248   C     0.67022   0.17659   0.22122   0.00000  Uiso   1.00
C249   C     0.70103   0.13543   0.26136   0.00000  Uiso   1.00
C250   C     0.68780   0.21983   0.30553   0.00000  Uiso   1.00
C251   C     0.61428   0.04626   0.16047   0.00000  Uiso   1.00
C252   C     0.59804   0.89551   0.14954   0.00000  Uiso   1.00
C253   C     0.53770   0.87017   0.14258   0.00000  Uiso   1.00
H254   H     0.56631   0.41725   0.17956   0.00000  Uiso   1.00
H255   H     0.62695   0.57360   0.10732   0.00000  Uiso   1.00
H256   H     0.58152   0.47596   0.27214   0.00000  Uiso   1.00
H257   H     0.47855   0.23608   0.16034   0.00000  Uiso   1.00
H258   H     0.71296   0.69354   0.02554   0.00000  Uiso   1.00
H259   H     0.61714   0.48762   0.37308   0.00000  Uiso   1.00
H260   H     0.40000   0.98179   0.13733   0.00000  Uiso   1.00
H261   H     0.71078   0.00554   0.16652   0.00000  Uiso   1.00
H262   H     0.77936   0.13930   0.09355   0.00000  Uiso   1.00
H263   H     0.73392   0.04166   0.25837   0.00000  Uiso   1.00
H264   H     0.63095   0.80179   0.14657   0.00000  Uiso   1.00
H265   H     0.83665   0.34105   0.01437   0.00000  Uiso   1.00
H266   H     0.74083   0.13513   0.36191   0.00000  Uiso   1.00
H267   H     0.52369   0.62930   0.12615   0.00000  Uiso   1.00
O268   O     0.81732   0.61274   0.97221   0.00000  Uiso   1.00
O269   O     0.69160   0.34256   0.42816   0.00000  Uiso   1.00
O270   O     0.40672   0.67893   0.11886   0.00000  Uiso   1.00
N271   N     0.73265   0.59221   0.03292   0.00000  Uiso   1.00
N272   N     0.64307   0.39971   0.35784   0.00000  Uiso   1.00
N273   N     0.44006   0.92679   0.13745   0.00000  Uiso   1.00
N274   N     0.79921   0.40254   0.02691   0.00000  Uiso   1.00
N275   N     0.70963   0.21003   0.35183   0.00000  Uiso   1.00
N276   N     0.50662   0.73711   0.13144   0.00000  Uiso   1.00
C277   C     0.90060   0.82293   0.32343   0.00000  Uiso   1.00
C278   C     0.84761   0.85078   0.36449   0.00000  Uiso   1.00
C279   C     0.84014   0.97986   0.39567   0.00000  Uiso   1.00
C280   C     0.78857   0.98351   0.43086   0.00000  Uiso   1.00
C281   C     0.71276   0.04522   0.49402   0.00000  Uiso   1.00
C282   C     0.87229   0.79774   0.27494   0.00000  Uiso   1.00
C283   C     0.88557   0.88222   0.23082   0.00000  Uiso   1.00
C284   C     0.85479   0.84120   0.19063   0.00000  Uiso   1.00
C285   C     0.81732   0.82049   0.11475   0.00000  Uiso   1.00
C286   C     0.92824   0.66742   0.33569   0.00000  Uiso   1.00
C287   C     0.98857   0.64229   0.34264   0.00000  Uiso   1.00
C288   C     0.00489   0.49154   0.35358   0.00000  Uiso   1.00
C289   C     0.05429   0.26849   0.37202   0.00000  Uiso   1.00
C290   C     0.82232   0.59987   0.33050   0.00000  Uiso   1.00
C291   C     0.80510   0.72962   0.36833   0.00000  Uiso   1.00
C292   C     0.75353   0.73307   0.40349   0.00000  Uiso   1.00
C293   C     0.74598   0.86214   0.43471   0.00000  Uiso   1.00
C294   C     0.82978   0.67659   0.27878   0.00000  Uiso   1.00
C295   C     0.79897   0.63543   0.23864   0.00000  Uiso   1.00
C296   C     0.81220   0.71983   0.19447   0.00000  Uiso   1.00
C297   C     0.88572   0.54626   0.33953   0.00000  Uiso   1.00
C298   C     0.90196   0.39551   0.35046   0.00000  Uiso   1.00
C299   C     0.96230   0.37017   0.35742   0.00000  Uiso   1.00
H300   H     0.93369   0.91725   0.32044   0.00000  Uiso   1.00
H301   H     0.87305   0.07360   0.39268   0.00000  Uiso   1.00
H302   H     0.91848   0.97596   0.22786   0.00000  Uiso   1.00
H303   H     0.02145   0.73608   0.33966   0.00000  Uiso   1.00
H304   H     0.78704   0.19354   0.47446   0.00000  Uiso   1.00
H305   H     0.88286   0.98762   0.12692   0.00000  Uiso   1.00
H306   H     0.10000   0.48179   0.36267   0.00000  Uiso   1.00
H307   H     0.78922   0.50554   0.33348   0.00000  Uiso   1.00
H308   H     0.72064   0.63930   0.40645   0.00000  Uiso   1.00
H309   H     0.76608   0.54166   0.24163   0.00000  Uiso   1.00
H310   H     0.86905   0.30179   0.35343   0.00000  Uiso   1.00
H311   H     0.66335   0.84105   0.48563   0.00000  Uiso   1.00
H312   H     0.75917   0.63513   0.13809   0.00000  Uiso   1.00
H313   H     0.97631   0.12930   0.37385   0.00000  Uiso   1.00
O314   O     0.68268   0.11274   0.52779   0.00000  Uiso   1.00
O315   O     0.80840   0.84256   0.07184   0.00000  Uiso   1.00
O316   O     0.09328   0.17893   0.38114   0.00000  Uiso   1.00
N317   N     0.76735   0.09221   0.46708   0.00000  Uiso   1.00
N318   N     0.85693   0.89971   0.14216   0.00000  Uiso   1.00
N319   N     0.05994   0.42679   0.36255   0.00000  Uiso   1.00
N320   N     0.70079   0.90254   0.47309   0.00000  Uiso   1.00
N321   N     0.79037   0.71003   0.14817   0.00000  Uiso   1.00
N322   N     0.99338   0.23711   0.36856   0.00000  Uiso   1.00
C323   C     0.40060   0.32293   0.32343   0.00000  Uiso   1.00
C324   C     0.34761   0.35078   0.36449   0.00000  Uiso   1.00
C325   C     0.34014   0.47986   0.39567   0.00000  Uiso   1.00
C326   C     0.28857   0.48351   0.43086   0.00000  Uiso   1.00
C327   C     0.21276   0.54522   0.49402   0.00000  Uiso   1.00
C328   C     0.37229   0.29774   0.27494   0.00000  Uiso   1.00
C329   C     0.38557   0.38222   0.23082   0.00000  Uiso   1.00
C330   C     0.35479   0.34120   0.19063   0.00000  Uiso   1.00
C331   C     0.31732   0.32049   0.11475   0.00000  Uiso   1.00
C332   C     0.42824   0.16742   0.33569   0.00000  Uiso   1.00
C333   C     0.48857   0.14229   0.34264   0.00000  Uiso   1.00
C334   C     0.50489   0.99154   0.35358   0.00000  Uiso   1.00
C335   C     0.55429   0.76849   0.37202   0.00000  Uiso   1.00
C336   C     0.32232   0.09987   0.33050   0.00000  Uiso   1.00
C337   C     0.30510   0.22962   0.36833   0.00000  Uiso   1.00
C338   C     0.25353   0.23307   0.40349   0.00000  Uiso   1.00
C339   C     0.24598   0.36214   0.43471   0.00000  Uiso   1.00
C340   C     0.32978   0.17659   0.27878   0.00000  Uiso   1.00
C341   C     0.29897   0.13543   0.23864   0.00000  Uiso   1.00
C342   C     0.31220   0.21983   0.19447   0.00000  Uiso   1.00
C343   C     0.38572   0.04626   0.33953   0.00000  Uiso   1.00
C344   C     0.40196   0.89551   0.35046   0.00000  Uiso   1.00
C345   C     0.46230   0.87017   0.35742   0.00000  Uiso   1.00
H346   H     0.43369   0.41725   0.32044   0.00000  Uiso   1.00
H347   H     0.37305   0.57360   0.39268   0.00000  Uiso   1.00
H348   H     0.41848   0.47596   0.22786   0.00000  Uiso   1.00
H349   H     0.52145   0.23608   0.33966   0.00000  Uiso   1.00
H350   H     0.28704   0.69354   0.47446   0.00000  Uiso   1.00
H351   H     0.38286   0.48762   0.12692   0.00000  Uiso   1.00
H352   H     0.60000   0.98179   0.36267   0.00000  Uiso   1.00
H353   H     0.28922   0.00554   0.33348   0.00000  Uiso   1.00
H354   H     0.22064   0.13930   0.40645   0.00000  Uiso   1.00
H355   H     0.26608   0.04166   0.24163   0.00000  Uiso   1.00
H356   H     0.36905   0.80179   0.35343   0.00000  Uiso   1.00
H357   H     0.16335   0.34105   0.48563   0.00000  Uiso   1.00
H358   H     0.25917   0.13513   0.13809   0.00000  Uiso   1.00
H359   H     0.47631   0.62930   0.37385   0.00000  Uiso   1.00
O360   O     0.18268   0.61274   0.52779   0.00000  Uiso   1.00
O361   O     0.30840   0.34256   0.07184   0.00000  Uiso   1.00
O362   O     0.59328   0.67893   0.38114   0.00000  Uiso   1.00
N363   N     0.26735   0.59221   0.46708   0.00000  Uiso   1.00
N364   N     0.35693   0.39971   0.14216   0.00000  Uiso   1.00
N365   N     0.55994   0.92679   0.36255   0.00000  Uiso   1.00
N366   N     0.20079   0.40254   0.47309   0.00000  Uiso   1.00
N367   N     0.29037   0.21003   0.14817   0.00000  Uiso   1.00
N368   N     0.49338   0.73711   0.36856   0.00000  Uiso   1.00
