data_job_04514
_audit_creation_date              2018-12-19
_audit_creation_method            'Materials Studio'
_symmetry_space_group_name_H-M    'P1'
_symmetry_Int_Tables_number       1
_symmetry_cell_setting            triclinic
loop_
_symmetry_equiv_pos_as_xyz
  x,y,z
_cell_length_a                    12.3004
_cell_length_b                    14.1577
_cell_length_c                    31.5804
_cell_angle_alpha                 90.0000
_cell_angle_beta                  123.7230
_cell_angle_gamma                 90.0000
loop_
_atom_site_label
_atom_site_type_symbol
_atom_site_fract_x
_atom_site_fract_y
_atom_site_fract_z
_atom_site_U_iso_or_equiv
_atom_site_adp_type
_atom_site_occupancy
C1     C     0.37529   0.79676   0.61342   0.00000  Uiso   1.00
C2     C     0.50439   0.84655   0.65052   0.00000  Uiso   1.00
C3     C     0.57820   0.89713   0.63740   0.00000  Uiso   1.00
C4     C     0.69341   0.93739   0.67694   0.00000  Uiso   1.00
C5     C     0.88784   0.01619   0.72682   0.00000  Uiso   1.00
C6     C     0.39513   0.69385   0.63044   0.00000  Uiso   1.00
C7     C     0.37706   0.61605   0.60045   0.00000  Uiso   1.00
C8     C     0.40028   0.52778   0.62309   0.00000  Uiso   1.00
C9     C     0.42500   0.36951   0.64179   0.00000  Uiso   1.00
C10    C     0.27662   0.83724   0.62340   0.00000  Uiso   1.00
C11    C     0.15888   0.87997   0.58748   0.00000  Uiso   1.00
C12    C     0.08231   0.91240   0.60418   0.00000  Uiso   1.00
C13    C     0.92302   0.97676   0.61194   0.00000  Uiso   1.00
C14    C     0.44864   0.77834   0.70695   0.00000  Uiso   1.00
C15    C     0.54423   0.83654   0.70132   0.00000  Uiso   1.00
C16    C     0.65936   0.87675   0.74089   0.00000  Uiso   1.00
C17    C     0.73332   0.92738   0.72784   0.00000  Uiso   1.00
C18    C     0.43497   0.68384   0.68124   0.00000  Uiso   1.00
C19    C     0.45822   0.59567   0.70393   0.00000  Uiso   1.00
C20    C     0.44020   0.51775   0.67398   0.00000  Uiso   1.00
C21    C     0.31646   0.82723   0.67420   0.00000  Uiso   1.00
C22    C     0.24005   0.85959   0.69096   0.00000  Uiso   1.00
C23    C     0.12222   0.90237   0.65507   0.00000  Uiso   1.00
H24    H     0.34427   0.80454   0.57387   0.00000  Uiso   1.00
H25    H     0.54734   0.90484   0.59808   0.00000  Uiso   1.00
H26    H     0.34622   0.62381   0.56114   0.00000  Uiso   1.00
H27    H     0.12808   0.88770   0.54817   0.00000  Uiso   1.00
H28    H     0.79007   0.01161   0.64734   0.00000  Uiso   1.00
H29    H     0.36595   0.41904   0.56943   0.00000  Uiso   1.00
H30    H     0.90597   0.97549   0.54207   0.00000  Uiso   1.00
H31    H     0.47966   0.77054   0.74650   0.00000  Uiso   1.00
H32    H     0.69017   0.86899   0.78020   0.00000  Uiso   1.00
H33    H     0.48904   0.58795   0.74325   0.00000  Uiso   1.00
H34    H     0.27091   0.85184   0.73028   0.00000  Uiso   1.00
H35    H     0.90600   0.98250   0.79515   0.00000  Uiso   1.00
H36    H     0.48187   0.38993   0.71723   0.00000  Uiso   1.00
H37    H     0.02190   0.94638   0.68988   0.00000  Uiso   1.00
O38    O     0.98409   0.06240   0.74029   0.00000  Uiso   1.00
O39    O     0.42764   0.28497   0.63807   0.00000  Uiso   1.00
O40    O     0.82416   0.01503   0.60218   0.00000  Uiso   1.00
N41    N     0.78846   0.99127   0.67750   0.00000  Uiso   1.00
N42    N     0.39195   0.43724   0.60466   0.00000  Uiso   1.00
N43    N     0.96189   0.95746   0.57908   0.00000  Uiso   1.00
N44    N     0.85083   0.97561   0.75704   0.00000  Uiso   1.00
N45    N     0.45433   0.42158   0.68419   0.00000  Uiso   1.00
N46    N     0.02426   0.94180   0.65862   0.00000  Uiso   1.00
C47    C     0.75411   0.19938   0.04702   0.00000  Uiso   1.00
C48    C     0.88776   0.24533   0.08165   0.00000  Uiso   1.00
C49    C     0.96634   0.28017   0.06641   0.00000  Uiso   1.00
C50    C     0.08521   0.31954   0.10389   0.00000  Uiso   1.00
C51    C     0.28687   0.39018   0.14993   0.00000  Uiso   1.00
C52    C     0.76382   0.10214   0.06965   0.00000  Uiso   1.00
C53    C     0.73818   0.01660   0.04431   0.00000  Uiso   1.00
C54    C     0.75269   0.93544   0.07168   0.00000  Uiso   1.00
C55    C     0.76184   0.78379   0.09907   0.00000  Uiso   1.00
C56    C     0.65964   0.25613   0.05394   0.00000  Uiso   1.00
C57    C     0.54639   0.30005   0.01540   0.00000  Uiso   1.00
C58    C     0.47317   0.34851   0.02954   0.00000  Uiso   1.00
C59    C     0.32057   0.43595   0.03254   0.00000  Uiso   1.00
C60    C     0.82545   0.20735   0.14067   0.00000  Uiso   1.00
C61    C     0.92651   0.24965   0.13252   0.00000  Uiso   1.00
C62    C     0.04528   0.28898   0.17003   0.00000  Uiso   1.00
C63    C     0.12403   0.32388   0.15484   0.00000  Uiso   1.00
C64    C     0.80257   0.10646   0.12051   0.00000  Uiso   1.00
C65    C     0.81711   0.02541   0.14792   0.00000  Uiso   1.00
C66    C     0.79151   0.93977   0.12264   0.00000  Uiso   1.00
C67    C     0.69839   0.26046   0.10481   0.00000  Uiso   1.00
C68    C     0.62533   0.30886   0.11901   0.00000  Uiso   1.00
C69    C     0.51200   0.35285   0.08050   0.00000  Uiso   1.00
H70    H     0.72394   0.19601   0.00742   0.00000  Uiso   1.00
H71    H     0.93632   0.27680   0.02705   0.00000  Uiso   1.00
H72    H     0.70818   0.01328   0.00495   0.00000  Uiso   1.00
H73    H     0.51643   0.29668   0.97604   0.00000  Uiso   1.00
H74    H     0.18891   0.36825   0.07124   0.00000  Uiso   1.00
H75    H     0.70781   0.81260   0.02464   0.00000  Uiso   1.00
H76    H     0.30346   0.41021   0.96368   0.00000  Uiso   1.00
H77    H     0.85562   0.21071   0.18027   0.00000  Uiso   1.00
H78    H     0.07524   0.29232   0.20939   0.00000  Uiso   1.00
H79    H     0.84710   0.02879   0.18728   0.00000  Uiso   1.00
H80    H     0.65535   0.31219   0.15838   0.00000  Uiso   1.00
H81    H     0.30166   0.38084   0.21923   0.00000  Uiso   1.00
H82    H     0.82056   0.82518   0.17263   0.00000  Uiso   1.00
H83    H     0.41622   0.42280   0.11167   0.00000  Uiso   1.00
O84    O     0.38740   0.42793   0.16127   0.00000  Uiso   1.00
O85    O     0.75619   0.69894   0.10012   0.00000  Uiso   1.00
O86    O     0.22571   0.48299   0.02015   0.00000  Uiso   1.00
N87    N     0.18529   0.36003   0.10207   0.00000  Uiso   1.00
N88    N     0.73552   0.84053   0.05850   0.00000  Uiso   1.00
N89    N     0.35747   0.39922   0.00151   0.00000  Uiso   1.00
N90    N     0.24597   0.36681   0.18171   0.00000  Uiso   1.00
N91    N     0.79619   0.84730   0.13814   0.00000  Uiso   1.00
N92    N     0.41814   0.40600   0.08114   0.00000  Uiso   1.00
C93    C     0.62471   0.29676   0.88658   0.00000  Uiso   1.00
C94    C     0.49561   0.34655   0.84948   0.00000  Uiso   1.00
C95    C     0.42180   0.39713   0.86260   0.00000  Uiso   1.00
C96    C     0.30659   0.43739   0.82306   0.00000  Uiso   1.00
C97    C     0.11216   0.51619   0.77318   0.00000  Uiso   1.00
C98    C     0.60487   0.19385   0.86956   0.00000  Uiso   1.00
C99    C     0.62294   0.11605   0.89955   0.00000  Uiso   1.00
C100   C     0.59972   0.02778   0.87691   0.00000  Uiso   1.00
C101   C     0.57500   0.86951   0.85821   0.00000  Uiso   1.00
C102   C     0.72338   0.33724   0.87660   0.00000  Uiso   1.00
C103   C     0.84112   0.37997   0.91252   0.00000  Uiso   1.00
C104   C     0.91769   0.41240   0.89582   0.00000  Uiso   1.00
C105   C     0.07698   0.47676   0.88806   0.00000  Uiso   1.00
C106   C     0.55136   0.27834   0.79305   0.00000  Uiso   1.00
C107   C     0.45577   0.33654   0.79868   0.00000  Uiso   1.00
C108   C     0.34064   0.37675   0.75911   0.00000  Uiso   1.00
C109   C     0.26668   0.42738   0.77216   0.00000  Uiso   1.00
C110   C     0.56503   0.18384   0.81876   0.00000  Uiso   1.00
C111   C     0.54178   0.09567   0.79607   0.00000  Uiso   1.00
C112   C     0.55980   0.01775   0.82602   0.00000  Uiso   1.00
C113   C     0.68354   0.32723   0.82580   0.00000  Uiso   1.00
C114   C     0.75995   0.35959   0.80904   0.00000  Uiso   1.00
C115   C     0.87778   0.40237   0.84493   0.00000  Uiso   1.00
H116   H     0.65573   0.30454   0.92613   0.00000  Uiso   1.00
H117   H     0.45266   0.40484   0.90192   0.00000  Uiso   1.00
H118   H     0.65378   0.12381   0.93886   0.00000  Uiso   1.00
H119   H     0.87192   0.38770   0.95183   0.00000  Uiso   1.00
H120   H     0.20993   0.51161   0.85266   0.00000  Uiso   1.00
H121   H     0.63405   0.91904   0.93057   0.00000  Uiso   1.00
H122   H     0.09403   0.47549   0.95793   0.00000  Uiso   1.00
H123   H     0.52034   0.27054   0.75350   0.00000  Uiso   1.00
H124   H     0.30983   0.36899   0.71980   0.00000  Uiso   1.00
H125   H     0.51096   0.08795   0.75675   0.00000  Uiso   1.00
H126   H     0.72909   0.35184   0.76972   0.00000  Uiso   1.00
H127   H     0.09400   0.48250   0.70485   0.00000  Uiso   1.00
H128   H     0.51813   0.88993   0.78277   0.00000  Uiso   1.00
H129   H     0.97810   0.44638   0.81012   0.00000  Uiso   1.00
O130   O     0.01591   0.56240   0.75971   0.00000  Uiso   1.00
O131   O     0.57236   0.78497   0.86193   0.00000  Uiso   1.00
O132   O     0.17584   0.51503   0.89782   0.00000  Uiso   1.00
N133   N     0.21154   0.49127   0.82250   0.00000  Uiso   1.00
N134   N     0.60805   0.93724   0.89534   0.00000  Uiso   1.00
N135   N     0.03811   0.45746   0.92092   0.00000  Uiso   1.00
N136   N     0.14917   0.47561   0.74296   0.00000  Uiso   1.00
N137   N     0.54567   0.92158   0.81581   0.00000  Uiso   1.00
N138   N     0.97574   0.44180   0.84138   0.00000  Uiso   1.00
C139   C     0.24589   0.69938   0.45298   0.00000  Uiso   1.00
C140   C     0.11224   0.74533   0.41835   0.00000  Uiso   1.00
C141   C     0.03366   0.78017   0.43359   0.00000  Uiso   1.00
C142   C     0.91479   0.81954   0.39611   0.00000  Uiso   1.00
C143   C     0.71313   0.89018   0.35007   0.00000  Uiso   1.00
C144   C     0.23618   0.60214   0.43035   0.00000  Uiso   1.00
C145   C     0.26182   0.51660   0.45569   0.00000  Uiso   1.00
C146   C     0.24731   0.43544   0.42832   0.00000  Uiso   1.00
C147   C     0.23816   0.28379   0.40093   0.00000  Uiso   1.00
C148   C     0.34036   0.75613   0.44606   0.00000  Uiso   1.00
C149   C     0.45361   0.80005   0.48460   0.00000  Uiso   1.00
C150   C     0.52683   0.84851   0.47046   0.00000  Uiso   1.00
C151   C     0.67943   0.93595   0.46746   0.00000  Uiso   1.00
C152   C     0.17455   0.70735   0.35933   0.00000  Uiso   1.00
C153   C     0.07349   0.74965   0.36748   0.00000  Uiso   1.00
C154   C     0.95472   0.78898   0.32997   0.00000  Uiso   1.00
C155   C     0.87597   0.82388   0.34516   0.00000  Uiso   1.00
C156   C     0.19743   0.60646   0.37949   0.00000  Uiso   1.00
C157   C     0.18289   0.52541   0.35208   0.00000  Uiso   1.00
C158   C     0.20849   0.43977   0.37736   0.00000  Uiso   1.00
C159   C     0.30161   0.76046   0.39519   0.00000  Uiso   1.00
C160   C     0.37467   0.80886   0.38099   0.00000  Uiso   1.00
C161   C     0.48800   0.85285   0.41950   0.00000  Uiso   1.00
H162   H     0.27606   0.69601   0.49258   0.00000  Uiso   1.00
H163   H     0.06368   0.77680   0.47295   0.00000  Uiso   1.00
H164   H     0.29182   0.51328   0.49505   0.00000  Uiso   1.00
H165   H     0.48357   0.79668   0.52396   0.00000  Uiso   1.00
H166   H     0.81109   0.86825   0.42876   0.00000  Uiso   1.00
H167   H     0.29219   0.31260   0.47536   0.00000  Uiso   1.00
H168   H     0.69654   0.91021   0.53632   0.00000  Uiso   1.00
H169   H     0.14438   0.71071   0.31973   0.00000  Uiso   1.00
H170   H     0.92476   0.79232   0.29061   0.00000  Uiso   1.00
H171   H     0.15290   0.52879   0.31272   0.00000  Uiso   1.00
H172   H     0.34465   0.81219   0.34162   0.00000  Uiso   1.00
H173   H     0.69834   0.88084   0.28077   0.00000  Uiso   1.00
H174   H     0.17944   0.32518   0.32737   0.00000  Uiso   1.00
H175   H     0.58378   0.92280   0.38833   0.00000  Uiso   1.00
O176   O     0.61260   0.92793   0.33873   0.00000  Uiso   1.00
O177   O     0.24381   0.19894   0.39988   0.00000  Uiso   1.00
O178   O     0.77429   0.98299   0.47985   0.00000  Uiso   1.00
N179   N     0.81471   0.86003   0.39793   0.00000  Uiso   1.00
N180   N     0.26448   0.34053   0.44150   0.00000  Uiso   1.00
N181   N     0.64253   0.89922   0.49849   0.00000  Uiso   1.00
N182   N     0.75403   0.86681   0.31829   0.00000  Uiso   1.00
N183   N     0.20381   0.34730   0.36186   0.00000  Uiso   1.00
N184   N     0.58186   0.90600   0.41886   0.00000  Uiso   1.00
C185   C     0.62471   0.20324   0.38658   0.00000  Uiso   1.00
C186   C     0.49561   0.15345   0.34948   0.00000  Uiso   1.00
C187   C     0.42180   0.10287   0.36260   0.00000  Uiso   1.00
C188   C     0.30659   0.06261   0.32306   0.00000  Uiso   1.00
C189   C     0.11216   0.98381   0.27318   0.00000  Uiso   1.00
C190   C     0.60487   0.30615   0.36956   0.00000  Uiso   1.00
C191   C     0.62294   0.38395   0.39955   0.00000  Uiso   1.00
C192   C     0.59972   0.47222   0.37691   0.00000  Uiso   1.00
C193   C     0.57500   0.63049   0.35821   0.00000  Uiso   1.00
C194   C     0.72338   0.16276   0.37660   0.00000  Uiso   1.00
C195   C     0.84112   0.12003   0.41252   0.00000  Uiso   1.00
C196   C     0.91769   0.08760   0.39582   0.00000  Uiso   1.00
C197   C     0.07698   0.02324   0.38806   0.00000  Uiso   1.00
C198   C     0.55136   0.22166   0.29305   0.00000  Uiso   1.00
C199   C     0.45577   0.16346   0.29868   0.00000  Uiso   1.00
C200   C     0.34064   0.12325   0.25911   0.00000  Uiso   1.00
C201   C     0.26668   0.07262   0.27216   0.00000  Uiso   1.00
C202   C     0.56503   0.31616   0.31876   0.00000  Uiso   1.00
C203   C     0.54178   0.40433   0.29607   0.00000  Uiso   1.00
C204   C     0.55980   0.48225   0.32602   0.00000  Uiso   1.00
C205   C     0.68354   0.17277   0.32580   0.00000  Uiso   1.00
C206   C     0.75995   0.14041   0.30904   0.00000  Uiso   1.00
C207   C     0.87778   0.09763   0.34493   0.00000  Uiso   1.00
H208   H     0.65573   0.19546   0.42613   0.00000  Uiso   1.00
H209   H     0.45266   0.09516   0.40192   0.00000  Uiso   1.00
H210   H     0.65378   0.37619   0.43886   0.00000  Uiso   1.00
H211   H     0.87192   0.11230   0.45183   0.00000  Uiso   1.00
H212   H     0.20993   0.98839   0.35266   0.00000  Uiso   1.00
H213   H     0.63405   0.58096   0.43057   0.00000  Uiso   1.00
H214   H     0.09403   0.02451   0.45793   0.00000  Uiso   1.00
H215   H     0.52034   0.22946   0.25350   0.00000  Uiso   1.00
H216   H     0.30983   0.13101   0.21980   0.00000  Uiso   1.00
H217   H     0.51096   0.41205   0.25675   0.00000  Uiso   1.00
H218   H     0.72909   0.14816   0.26972   0.00000  Uiso   1.00
H219   H     0.09400   0.01750   0.20485   0.00000  Uiso   1.00
H220   H     0.51813   0.61007   0.28277   0.00000  Uiso   1.00
H221   H     0.97810   0.05362   0.31012   0.00000  Uiso   1.00
O222   O     0.01591   0.93760   0.25971   0.00000  Uiso   1.00
O223   O     0.57236   0.71503   0.36193   0.00000  Uiso   1.00
O224   O     0.17584   0.98497   0.39782   0.00000  Uiso   1.00
N225   N     0.21154   0.00873   0.32250   0.00000  Uiso   1.00
N226   N     0.60805   0.56276   0.39534   0.00000  Uiso   1.00
N227   N     0.03811   0.04254   0.42092   0.00000  Uiso   1.00
N228   N     0.14917   0.02439   0.24296   0.00000  Uiso   1.00
N229   N     0.54567   0.57842   0.31581   0.00000  Uiso   1.00
N230   N     0.97574   0.05820   0.34138   0.00000  Uiso   1.00
C231   C     0.24589   0.80062   0.95298   0.00000  Uiso   1.00
C232   C     0.11224   0.75467   0.91835   0.00000  Uiso   1.00
C233   C     0.03366   0.71983   0.93359   0.00000  Uiso   1.00
C234   C     0.91479   0.68046   0.89611   0.00000  Uiso   1.00
C235   C     0.71313   0.60982   0.85007   0.00000  Uiso   1.00
C236   C     0.23618   0.89786   0.93035   0.00000  Uiso   1.00
C237   C     0.26182   0.98340   0.95569   0.00000  Uiso   1.00
C238   C     0.24731   0.06456   0.92832   0.00000  Uiso   1.00
C239   C     0.23816   0.21621   0.90093   0.00000  Uiso   1.00
C240   C     0.34036   0.74387   0.94606   0.00000  Uiso   1.00
C241   C     0.45361   0.69995   0.98460   0.00000  Uiso   1.00
C242   C     0.52683   0.65149   0.97046   0.00000  Uiso   1.00
C243   C     0.67943   0.56405   0.96746   0.00000  Uiso   1.00
C244   C     0.17455   0.79265   0.85933   0.00000  Uiso   1.00
C245   C     0.07349   0.75035   0.86748   0.00000  Uiso   1.00
C246   C     0.95472   0.71102   0.82997   0.00000  Uiso   1.00
C247   C     0.87597   0.67612   0.84516   0.00000  Uiso   1.00
C248   C     0.19743   0.89354   0.87949   0.00000  Uiso   1.00
C249   C     0.18289   0.97459   0.85208   0.00000  Uiso   1.00
C250   C     0.20849   0.06023   0.87736   0.00000  Uiso   1.00
C251   C     0.30161   0.73954   0.89519   0.00000  Uiso   1.00
C252   C     0.37467   0.69114   0.88099   0.00000  Uiso   1.00
C253   C     0.48800   0.64715   0.91950   0.00000  Uiso   1.00
H254   H     0.27606   0.80399   0.99258   0.00000  Uiso   1.00
H255   H     0.06368   0.72320   0.97295   0.00000  Uiso   1.00
H256   H     0.29182   0.98672   0.99505   0.00000  Uiso   1.00
H257   H     0.48357   0.70332   0.02396   0.00000  Uiso   1.00
H258   H     0.81109   0.63175   0.92876   0.00000  Uiso   1.00
H259   H     0.29219   0.18740   0.97536   0.00000  Uiso   1.00
H260   H     0.69654   0.58979   0.03632   0.00000  Uiso   1.00
H261   H     0.14438   0.78929   0.81973   0.00000  Uiso   1.00
H262   H     0.92476   0.70768   0.79061   0.00000  Uiso   1.00
H263   H     0.15290   0.97121   0.81272   0.00000  Uiso   1.00
H264   H     0.34465   0.68781   0.84162   0.00000  Uiso   1.00
H265   H     0.69834   0.61916   0.78077   0.00000  Uiso   1.00
H266   H     0.17944   0.17482   0.82737   0.00000  Uiso   1.00
H267   H     0.58378   0.57720   0.88833   0.00000  Uiso   1.00
O268   O     0.61260   0.57207   0.83873   0.00000  Uiso   1.00
O269   O     0.24381   0.30106   0.89988   0.00000  Uiso   1.00
O270   O     0.77429   0.51701   0.97985   0.00000  Uiso   1.00
N271   N     0.81471   0.63997   0.89793   0.00000  Uiso   1.00
N272   N     0.26448   0.15947   0.94150   0.00000  Uiso   1.00
N273   N     0.64253   0.60078   0.99849   0.00000  Uiso   1.00
N274   N     0.75403   0.63319   0.81829   0.00000  Uiso   1.00
N275   N     0.20381   0.15270   0.86186   0.00000  Uiso   1.00
N276   N     0.58186   0.59400   0.91886   0.00000  Uiso   1.00
C277   C     0.37529   0.70324   0.11342   0.00000  Uiso   1.00
C278   C     0.50439   0.65345   0.15052   0.00000  Uiso   1.00
C279   C     0.57820   0.60287   0.13740   0.00000  Uiso   1.00
C280   C     0.69341   0.56261   0.17694   0.00000  Uiso   1.00
C281   C     0.88784   0.48381   0.22682   0.00000  Uiso   1.00
C282   C     0.39513   0.80615   0.13044   0.00000  Uiso   1.00
C283   C     0.37706   0.88395   0.10045   0.00000  Uiso   1.00
C284   C     0.40028   0.97222   0.12309   0.00000  Uiso   1.00
C285   C     0.42500   0.13049   0.14179   0.00000  Uiso   1.00
C286   C     0.27662   0.66276   0.12340   0.00000  Uiso   1.00
C287   C     0.15888   0.62003   0.08748   0.00000  Uiso   1.00
C288   C     0.08231   0.58760   0.10418   0.00000  Uiso   1.00
C289   C     0.92302   0.52324   0.11194   0.00000  Uiso   1.00
C290   C     0.44864   0.72166   0.20695   0.00000  Uiso   1.00
C291   C     0.54423   0.66346   0.20132   0.00000  Uiso   1.00
C292   C     0.65936   0.62325   0.24089   0.00000  Uiso   1.00
C293   C     0.73332   0.57262   0.22784   0.00000  Uiso   1.00
C294   C     0.43497   0.81616   0.18124   0.00000  Uiso   1.00
C295   C     0.45822   0.90433   0.20393   0.00000  Uiso   1.00
C296   C     0.44020   0.98225   0.17398   0.00000  Uiso   1.00
C297   C     0.31646   0.67277   0.17420   0.00000  Uiso   1.00
C298   C     0.24005   0.64041   0.19096   0.00000  Uiso   1.00
C299   C     0.12222   0.59763   0.15507   0.00000  Uiso   1.00
H300   H     0.34427   0.69546   0.07387   0.00000  Uiso   1.00
H301   H     0.54734   0.59516   0.09808   0.00000  Uiso   1.00
H302   H     0.34622   0.87619   0.06114   0.00000  Uiso   1.00
H303   H     0.12808   0.61230   0.04817   0.00000  Uiso   1.00
H304   H     0.79007   0.48839   0.14734   0.00000  Uiso   1.00
H305   H     0.36595   0.08096   0.06943   0.00000  Uiso   1.00
H306   H     0.90597   0.52451   0.04207   0.00000  Uiso   1.00
H307   H     0.47966   0.72946   0.24650   0.00000  Uiso   1.00
H308   H     0.69017   0.63101   0.28020   0.00000  Uiso   1.00
H309   H     0.48904   0.91205   0.24325   0.00000  Uiso   1.00
H310   H     0.27091   0.64816   0.23028   0.00000  Uiso   1.00
H311   H     0.90600   0.51750   0.29515   0.00000  Uiso   1.00
H312   H     0.48187   0.11007   0.21723   0.00000  Uiso   1.00
H313   H     0.02190   0.55362   0.18988   0.00000  Uiso   1.00
O314   O     0.98409   0.43760   0.24029   0.00000  Uiso   1.00
O315   O     0.42764   0.21503   0.13807   0.00000  Uiso   1.00
O316   O     0.82416   0.48497   0.10218   0.00000  Uiso   1.00
N317   N     0.78846   0.50873   0.17750   0.00000  Uiso   1.00
N318   N     0.39195   0.06276   0.10466   0.00000  Uiso   1.00
N319   N     0.96189   0.54254   0.07908   0.00000  Uiso   1.00
N320   N     0.85083   0.52439   0.25704   0.00000  Uiso   1.00
N321   N     0.45433   0.07842   0.18419   0.00000  Uiso   1.00
N322   N     0.02426   0.55820   0.15862   0.00000  Uiso   1.00
C323   C     0.75411   0.30062   0.54702   0.00000  Uiso   1.00
C324   C     0.88776   0.25467   0.58165   0.00000  Uiso   1.00
C325   C     0.96634   0.21983   0.56641   0.00000  Uiso   1.00
C326   C     0.08521   0.18046   0.60389   0.00000  Uiso   1.00
C327   C     0.28687   0.10982   0.64993   0.00000  Uiso   1.00
C328   C     0.76382   0.39786   0.56965   0.00000  Uiso   1.00
C329   C     0.73818   0.48340   0.54431   0.00000  Uiso   1.00
C330   C     0.75269   0.56456   0.57168   0.00000  Uiso   1.00
C331   C     0.76184   0.71621   0.59907   0.00000  Uiso   1.00
C332   C     0.65964   0.24387   0.55394   0.00000  Uiso   1.00
C333   C     0.54639   0.19995   0.51540   0.00000  Uiso   1.00
C334   C     0.47317   0.15149   0.52954   0.00000  Uiso   1.00
C335   C     0.32057   0.06405   0.53254   0.00000  Uiso   1.00
C336   C     0.82545   0.29265   0.64067   0.00000  Uiso   1.00
C337   C     0.92651   0.25035   0.63252   0.00000  Uiso   1.00
C338   C     0.04528   0.21102   0.67003   0.00000  Uiso   1.00
C339   C     0.12403   0.17612   0.65484   0.00000  Uiso   1.00
C340   C     0.80257   0.39354   0.62051   0.00000  Uiso   1.00
C341   C     0.81711   0.47459   0.64792   0.00000  Uiso   1.00
C342   C     0.79151   0.56023   0.62264   0.00000  Uiso   1.00
C343   C     0.69839   0.23954   0.60481   0.00000  Uiso   1.00
C344   C     0.62533   0.19114   0.61901   0.00000  Uiso   1.00
C345   C     0.51200   0.14715   0.58050   0.00000  Uiso   1.00
H346   H     0.72394   0.30399   0.50742   0.00000  Uiso   1.00
H347   H     0.93632   0.22320   0.52705   0.00000  Uiso   1.00
H348   H     0.70818   0.48672   0.50495   0.00000  Uiso   1.00
H349   H     0.51643   0.20332   0.47604   0.00000  Uiso   1.00
H350   H     0.18891   0.13175   0.57124   0.00000  Uiso   1.00
H351   H     0.70781   0.68740   0.52464   0.00000  Uiso   1.00
H352   H     0.30346   0.08979   0.46368   0.00000  Uiso   1.00
H353   H     0.85562   0.28929   0.68027   0.00000  Uiso   1.00
H354   H     0.07524   0.20768   0.70939   0.00000  Uiso   1.00
H355   H     0.84710   0.47121   0.68728   0.00000  Uiso   1.00
H356   H     0.65535   0.18781   0.65838   0.00000  Uiso   1.00
H357   H     0.30166   0.11916   0.71923   0.00000  Uiso   1.00
H358   H     0.82056   0.67482   0.67263   0.00000  Uiso   1.00
H359   H     0.41622   0.07720   0.61167   0.00000  Uiso   1.00
O360   O     0.38740   0.07207   0.66127   0.00000  Uiso   1.00
O361   O     0.75619   0.80106   0.60012   0.00000  Uiso   1.00
O362   O     0.22571   0.01701   0.52015   0.00000  Uiso   1.00
N363   N     0.18529   0.13997   0.60207   0.00000  Uiso   1.00
N364   N     0.73552   0.65947   0.55850   0.00000  Uiso   1.00
N365   N     0.35747   0.10078   0.50151   0.00000  Uiso   1.00
N366   N     0.24597   0.13319   0.68171   0.00000  Uiso   1.00
N367   N     0.79619   0.65270   0.63814   0.00000  Uiso   1.00
N368   N     0.41814   0.09400   0.58114   0.00000  Uiso   1.00
