data_job_02467
_audit_creation_date              2018-12-19
_audit_creation_method            'Materials Studio'
_symmetry_space_group_name_H-M    'P1'
_symmetry_Int_Tables_number       1
_symmetry_cell_setting            triclinic
loop_
_symmetry_equiv_pos_as_xyz
  x,y,z
_cell_length_a                    16.5989
_cell_length_b                    16.5989
_cell_length_c                    18.0924
_cell_angle_alpha                 90.0000
_cell_angle_beta                  90.0000
_cell_angle_gamma                 90.0000
loop_
_atom_site_label
_atom_site_type_symbol
_atom_site_fract_x
_atom_site_fract_y
_atom_site_fract_z
_atom_site_U_iso_or_equiv
_atom_site_adp_type
_atom_site_occupancy
C1     C     0.90659   0.22515   0.47346   0.00000  Uiso   1.00
C2     C     0.88885   0.16031   0.41601   0.00000  Uiso   1.00
C3     C     0.89926   0.07804   0.42574   0.00000  Uiso   1.00
C4     C     0.87959   0.02866   0.36648   0.00000  Uiso   1.00
C5     C     0.85650   0.92315   0.28738   0.00000  Uiso   1.00
C6     C     0.96589   0.28310   0.43716   0.00000  Uiso   1.00
C7     C     0.04107   0.30406   0.46468   0.00000  Uiso   1.00
C8     C     0.08625   0.35805   0.42324   0.00000  Uiso   1.00
C9     C     0.18274   0.44320   0.37700   0.00000  Uiso   1.00
C10    C     0.82842   0.27221   0.48325   0.00000  Uiso   1.00
C11    C     0.78801   0.28404   0.54952   0.00000  Uiso   1.00
C12    C     0.71745   0.32888   0.54688   0.00000  Uiso   1.00
C13    C     0.60049   0.39713   0.57221   0.00000  Uiso   1.00
C14    C     0.85315   0.28376   0.35094   0.00000  Uiso   1.00
C15    C     0.85982   0.19215   0.34946   0.00000  Uiso   1.00
C16    C     0.84013   0.14289   0.29017   0.00000  Uiso   1.00
C17    C     0.85051   0.06055   0.29981   0.00000  Uiso   1.00
C18    C     0.93687   0.31493   0.37061   0.00000  Uiso   1.00
C19    C     0.98194   0.36891   0.32912   0.00000  Uiso   1.00
C20    C     0.05717   0.38995   0.35657   0.00000  Uiso   1.00
C21    C     0.79939   0.30404   0.41670   0.00000  Uiso   1.00
C22    C     0.72888   0.34888   0.41396   0.00000  Uiso   1.00
C23    C     0.68838   0.36077   0.48021   0.00000  Uiso   1.00
H24    H     0.92919   0.20037   0.52528   0.00000  Uiso   1.00
H25    H     0.92173   0.05342   0.47725   0.00000  Uiso   1.00
H26    H     0.06351   0.27942   0.51619   0.00000  Uiso   1.00
H27    H     0.81049   0.25939   0.60101   0.00000  Uiso   1.00
H28    H     0.90068   0.90455   0.39464   0.00000  Uiso   1.00
H29    H     0.19963   0.38110   0.47676   0.00000  Uiso   1.00
H30    H     0.66609   0.33887   0.65563   0.00000  Uiso   1.00
H31    H     0.83055   0.30855   0.29912   0.00000  Uiso   1.00
H32    H     0.81767   0.16754   0.23868   0.00000  Uiso   1.00
H33    H     0.95946   0.39354   0.27762   0.00000  Uiso   1.00
H34    H     0.70644   0.37351   0.36245   0.00000  Uiso   1.00
H35    H     0.81623   0.99718   0.20101   0.00000  Uiso   1.00
H36    H     0.11518   0.47372   0.28313   0.00000  Uiso   1.00
H37    H     0.58163   0.43149   0.46200   0.00000  Uiso   1.00
O38    O     0.85179   0.85615   0.26213   0.00000  Uiso   1.00
O39    O     0.24399   0.48137   0.36989   0.00000  Uiso   1.00
O40    O     0.54399   0.42597   0.60456   0.00000  Uiso   1.00
N41    N     0.88256   0.94570   0.35737   0.00000  Uiso   1.00
N42    N     0.16206   0.39123   0.43414   0.00000  Uiso   1.00
N43    N     0.66326   0.35177   0.60138   0.00000  Uiso   1.00
N44    N     0.83711   0.99554   0.25318   0.00000  Uiso   1.00
N45    N     0.11662   0.44107   0.32995   0.00000  Uiso   1.00
N46    N     0.61781   0.40161   0.49719   0.00000  Uiso   1.00
C47    C     0.09341   0.77485   0.47346   0.00000  Uiso   1.00
C48    C     0.11115   0.83969   0.41601   0.00000  Uiso   1.00
C49    C     0.10074   0.92196   0.42574   0.00000  Uiso   1.00
C50    C     0.12041   0.97134   0.36648   0.00000  Uiso   1.00
C51    C     0.14350   0.07685   0.28738   0.00000  Uiso   1.00
C52    C     0.03411   0.71690   0.43716   0.00000  Uiso   1.00
C53    C     0.95893   0.69594   0.46468   0.00000  Uiso   1.00
C54    C     0.91375   0.64195   0.42324   0.00000  Uiso   1.00
C55    C     0.81726   0.55680   0.37700   0.00000  Uiso   1.00
C56    C     0.17158   0.72779   0.48325   0.00000  Uiso   1.00
C57    C     0.21199   0.71596   0.54952   0.00000  Uiso   1.00
C58    C     0.28255   0.67112   0.54688   0.00000  Uiso   1.00
C59    C     0.39951   0.60287   0.57221   0.00000  Uiso   1.00
C60    C     0.14685   0.71624   0.35094   0.00000  Uiso   1.00
C61    C     0.14018   0.80785   0.34946   0.00000  Uiso   1.00
C62    C     0.15987   0.85711   0.29017   0.00000  Uiso   1.00
C63    C     0.14949   0.93945   0.29981   0.00000  Uiso   1.00
C64    C     0.06313   0.68507   0.37061   0.00000  Uiso   1.00
C65    C     0.01806   0.63109   0.32912   0.00000  Uiso   1.00
C66    C     0.94283   0.61005   0.35657   0.00000  Uiso   1.00
C67    C     0.20061   0.69596   0.41670   0.00000  Uiso   1.00
C68    C     0.27112   0.65112   0.41396   0.00000  Uiso   1.00
C69    C     0.31162   0.63923   0.48021   0.00000  Uiso   1.00
H70    H     0.07081   0.79963   0.52528   0.00000  Uiso   1.00
H71    H     0.07827   0.94658   0.47725   0.00000  Uiso   1.00
H72    H     0.93649   0.72058   0.51619   0.00000  Uiso   1.00
H73    H     0.18951   0.74061   0.60101   0.00000  Uiso   1.00
H74    H     0.09932   0.09545   0.39464   0.00000  Uiso   1.00
H75    H     0.80037   0.61890   0.47676   0.00000  Uiso   1.00
H76    H     0.33391   0.66113   0.65563   0.00000  Uiso   1.00
H77    H     0.16945   0.69145   0.29912   0.00000  Uiso   1.00
H78    H     0.18233   0.83246   0.23868   0.00000  Uiso   1.00
H79    H     0.04054   0.60646   0.27762   0.00000  Uiso   1.00
H80    H     0.29356   0.62649   0.36245   0.00000  Uiso   1.00
H81    H     0.18377   0.00282   0.20101   0.00000  Uiso   1.00
H82    H     0.88482   0.52628   0.28313   0.00000  Uiso   1.00
H83    H     0.41837   0.56851   0.46200   0.00000  Uiso   1.00
O84    O     0.14821   0.14385   0.26213   0.00000  Uiso   1.00
O85    O     0.75601   0.51863   0.36989   0.00000  Uiso   1.00
O86    O     0.45601   0.57403   0.60456   0.00000  Uiso   1.00
N87    N     0.11744   0.05430   0.35737   0.00000  Uiso   1.00
N88    N     0.83794   0.60877   0.43414   0.00000  Uiso   1.00
N89    N     0.33674   0.64823   0.60138   0.00000  Uiso   1.00
N90    N     0.16289   0.00446   0.25318   0.00000  Uiso   1.00
N91    N     0.88338   0.55893   0.32995   0.00000  Uiso   1.00
N92    N     0.38219   0.59839   0.49719   0.00000  Uiso   1.00
C93    C     0.27485   0.40659   0.97346   0.00000  Uiso   1.00
C94    C     0.33969   0.38885   0.91601   0.00000  Uiso   1.00
C95    C     0.42196   0.39926   0.92574   0.00000  Uiso   1.00
C96    C     0.47134   0.37959   0.86648   0.00000  Uiso   1.00
C97    C     0.57685   0.35650   0.78738   0.00000  Uiso   1.00
C98    C     0.21690   0.46589   0.93716   0.00000  Uiso   1.00
C99    C     0.19594   0.54107   0.96468   0.00000  Uiso   1.00
C100   C     0.14195   0.58625   0.92324   0.00000  Uiso   1.00
C101   C     0.05680   0.68274   0.87700   0.00000  Uiso   1.00
C102   C     0.22779   0.32842   0.98325   0.00000  Uiso   1.00
C103   C     0.21596   0.28801   0.04952   0.00000  Uiso   1.00
C104   C     0.17112   0.21745   0.04688   0.00000  Uiso   1.00
C105   C     0.10287   0.10049   0.07221   0.00000  Uiso   1.00
C106   C     0.21624   0.35315   0.85094   0.00000  Uiso   1.00
C107   C     0.30785   0.35982   0.84946   0.00000  Uiso   1.00
C108   C     0.35711   0.34013   0.79017   0.00000  Uiso   1.00
C109   C     0.43945   0.35051   0.79981   0.00000  Uiso   1.00
C110   C     0.18507   0.43687   0.87061   0.00000  Uiso   1.00
C111   C     0.13109   0.48194   0.82912   0.00000  Uiso   1.00
C112   C     0.11005   0.55717   0.85657   0.00000  Uiso   1.00
C113   C     0.19596   0.29939   0.91670   0.00000  Uiso   1.00
C114   C     0.15112   0.22888   0.91396   0.00000  Uiso   1.00
C115   C     0.13923   0.18838   0.98021   0.00000  Uiso   1.00
H116   H     0.29963   0.42919   0.02528   0.00000  Uiso   1.00
H117   H     0.44658   0.42173   0.97725   0.00000  Uiso   1.00
H118   H     0.22058   0.56351   0.01619   0.00000  Uiso   1.00
H119   H     0.24061   0.31049   0.10101   0.00000  Uiso   1.00
H120   H     0.59545   0.40068   0.89464   0.00000  Uiso   1.00
H121   H     0.11890   0.69963   0.97676   0.00000  Uiso   1.00
H122   H     0.16113   0.16609   0.15563   0.00000  Uiso   1.00
H123   H     0.19145   0.33055   0.79912   0.00000  Uiso   1.00
H124   H     0.33246   0.31767   0.73868   0.00000  Uiso   1.00
H125   H     0.10646   0.45946   0.77762   0.00000  Uiso   1.00
H126   H     0.12649   0.20644   0.86245   0.00000  Uiso   1.00
H127   H     0.50282   0.31623   0.70101   0.00000  Uiso   1.00
H128   H     0.02628   0.61518   0.78313   0.00000  Uiso   1.00
H129   H     0.06851   0.08163   0.96200   0.00000  Uiso   1.00
O130   O     0.64385   0.35179   0.76213   0.00000  Uiso   1.00
O131   O     0.01863   0.74399   0.86989   0.00000  Uiso   1.00
O132   O     0.07403   0.04399   0.10456   0.00000  Uiso   1.00
N133   N     0.55430   0.38256   0.85737   0.00000  Uiso   1.00
N134   N     0.10877   0.66206   0.93414   0.00000  Uiso   1.00
N135   N     0.14823   0.16326   0.10138   0.00000  Uiso   1.00
N136   N     0.50446   0.33711   0.75318   0.00000  Uiso   1.00
N137   N     0.05893   0.61662   0.82995   0.00000  Uiso   1.00
N138   N     0.09839   0.11781   0.99719   0.00000  Uiso   1.00
C139   C     0.72515   0.59341   0.97346   0.00000  Uiso   1.00
C140   C     0.66031   0.61115   0.91601   0.00000  Uiso   1.00
C141   C     0.57804   0.60074   0.92574   0.00000  Uiso   1.00
C142   C     0.52866   0.62041   0.86648   0.00000  Uiso   1.00
C143   C     0.42315   0.64350   0.78738   0.00000  Uiso   1.00
C144   C     0.78310   0.53411   0.93716   0.00000  Uiso   1.00
C145   C     0.80406   0.45893   0.96468   0.00000  Uiso   1.00
C146   C     0.85805   0.41375   0.92324   0.00000  Uiso   1.00
C147   C     0.94320   0.31726   0.87700   0.00000  Uiso   1.00
C148   C     0.77221   0.67158   0.98325   0.00000  Uiso   1.00
C149   C     0.78404   0.71199   0.04952   0.00000  Uiso   1.00
C150   C     0.82888   0.78255   0.04688   0.00000  Uiso   1.00
C151   C     0.89713   0.89951   0.07221   0.00000  Uiso   1.00
C152   C     0.78376   0.64685   0.85094   0.00000  Uiso   1.00
C153   C     0.69215   0.64018   0.84946   0.00000  Uiso   1.00
C154   C     0.64289   0.65987   0.79017   0.00000  Uiso   1.00
C155   C     0.56055   0.64949   0.79981   0.00000  Uiso   1.00
C156   C     0.81493   0.56313   0.87061   0.00000  Uiso   1.00
C157   C     0.86891   0.51806   0.82912   0.00000  Uiso   1.00
C158   C     0.88995   0.44283   0.85657   0.00000  Uiso   1.00
C159   C     0.80404   0.70061   0.91670   0.00000  Uiso   1.00
C160   C     0.84888   0.77112   0.91396   0.00000  Uiso   1.00
C161   C     0.86077   0.81162   0.98021   0.00000  Uiso   1.00
H162   H     0.70037   0.57081   0.02528   0.00000  Uiso   1.00
H163   H     0.55342   0.57827   0.97725   0.00000  Uiso   1.00
H164   H     0.77942   0.43649   0.01619   0.00000  Uiso   1.00
H165   H     0.75939   0.68951   0.10101   0.00000  Uiso   1.00
H166   H     0.40455   0.59932   0.89464   0.00000  Uiso   1.00
H167   H     0.88110   0.30037   0.97676   0.00000  Uiso   1.00
H168   H     0.83887   0.83391   0.15563   0.00000  Uiso   1.00
H169   H     0.80855   0.66945   0.79912   0.00000  Uiso   1.00
H170   H     0.66754   0.68233   0.73868   0.00000  Uiso   1.00
H171   H     0.89354   0.54054   0.77762   0.00000  Uiso   1.00
H172   H     0.87351   0.79356   0.86245   0.00000  Uiso   1.00
H173   H     0.49718   0.68377   0.70101   0.00000  Uiso   1.00
H174   H     0.97372   0.38482   0.78313   0.00000  Uiso   1.00
H175   H     0.93149   0.91837   0.96200   0.00000  Uiso   1.00
O176   O     0.35615   0.64821   0.76213   0.00000  Uiso   1.00
O177   O     0.98137   0.25601   0.86989   0.00000  Uiso   1.00
O178   O     0.92597   0.95601   0.10456   0.00000  Uiso   1.00
N179   N     0.44570   0.61744   0.85737   0.00000  Uiso   1.00
N180   N     0.89123   0.33794   0.93414   0.00000  Uiso   1.00
N181   N     0.85177   0.83674   0.10138   0.00000  Uiso   1.00
N182   N     0.49554   0.66289   0.75318   0.00000  Uiso   1.00
N183   N     0.94107   0.38338   0.82995   0.00000  Uiso   1.00
N184   N     0.90161   0.88219   0.99719   0.00000  Uiso   1.00
C185   C     0.59341   0.27485   0.02654   0.00000  Uiso   1.00
C186   C     0.61115   0.33969   0.08399   0.00000  Uiso   1.00
C187   C     0.60074   0.42196   0.07426   0.00000  Uiso   1.00
C188   C     0.62041   0.47134   0.13352   0.00000  Uiso   1.00
C189   C     0.64350   0.57685   0.21262   0.00000  Uiso   1.00
C190   C     0.53411   0.21690   0.06284   0.00000  Uiso   1.00
C191   C     0.45893   0.19594   0.03532   0.00000  Uiso   1.00
C192   C     0.41375   0.14195   0.07676   0.00000  Uiso   1.00
C193   C     0.31726   0.05680   0.12300   0.00000  Uiso   1.00
C194   C     0.67158   0.22779   0.01675   0.00000  Uiso   1.00
C195   C     0.71199   0.21596   0.95048   0.00000  Uiso   1.00
C196   C     0.78255   0.17112   0.95312   0.00000  Uiso   1.00
C197   C     0.89951   0.10287   0.92779   0.00000  Uiso   1.00
C198   C     0.64685   0.21624   0.14906   0.00000  Uiso   1.00
C199   C     0.64018   0.30785   0.15054   0.00000  Uiso   1.00
C200   C     0.65987   0.35711   0.20983   0.00000  Uiso   1.00
C201   C     0.64949   0.43945   0.20019   0.00000  Uiso   1.00
C202   C     0.56313   0.18507   0.12939   0.00000  Uiso   1.00
C203   C     0.51806   0.13109   0.17088   0.00000  Uiso   1.00
C204   C     0.44283   0.11005   0.14343   0.00000  Uiso   1.00
C205   C     0.70061   0.19596   0.08330   0.00000  Uiso   1.00
C206   C     0.77112   0.15112   0.08604   0.00000  Uiso   1.00
C207   C     0.81162   0.13923   0.01979   0.00000  Uiso   1.00
H208   H     0.57081   0.29963   0.97472   0.00000  Uiso   1.00
H209   H     0.57827   0.44658   0.02275   0.00000  Uiso   1.00
H210   H     0.43649   0.22058   0.98381   0.00000  Uiso   1.00
H211   H     0.68951   0.24061   0.89899   0.00000  Uiso   1.00
H212   H     0.59932   0.59545   0.10536   0.00000  Uiso   1.00
H213   H     0.30037   0.11890   0.02324   0.00000  Uiso   1.00
H214   H     0.83391   0.16113   0.84437   0.00000  Uiso   1.00
H215   H     0.66945   0.19145   0.20088   0.00000  Uiso   1.00
H216   H     0.68233   0.33246   0.26132   0.00000  Uiso   1.00
H217   H     0.54054   0.10646   0.22238   0.00000  Uiso   1.00
H218   H     0.79356   0.12649   0.13755   0.00000  Uiso   1.00
H219   H     0.68377   0.50282   0.29899   0.00000  Uiso   1.00
H220   H     0.38482   0.02628   0.21687   0.00000  Uiso   1.00
H221   H     0.91837   0.06851   0.03800   0.00000  Uiso   1.00
O222   O     0.64821   0.64385   0.23787   0.00000  Uiso   1.00
O223   O     0.25601   0.01863   0.13011   0.00000  Uiso   1.00
O224   O     0.95601   0.07403   0.89544   0.00000  Uiso   1.00
N225   N     0.61744   0.55430   0.14263   0.00000  Uiso   1.00
N226   N     0.33794   0.10877   0.06586   0.00000  Uiso   1.00
N227   N     0.83674   0.14823   0.89862   0.00000  Uiso   1.00
N228   N     0.66289   0.50446   0.24682   0.00000  Uiso   1.00
N229   N     0.38338   0.05893   0.17005   0.00000  Uiso   1.00
N230   N     0.88219   0.09839   0.00281   0.00000  Uiso   1.00
C231   C     0.40659   0.72515   0.02654   0.00000  Uiso   1.00
C232   C     0.38885   0.66031   0.08399   0.00000  Uiso   1.00
C233   C     0.39926   0.57804   0.07426   0.00000  Uiso   1.00
C234   C     0.37959   0.52866   0.13352   0.00000  Uiso   1.00
C235   C     0.35650   0.42315   0.21262   0.00000  Uiso   1.00
C236   C     0.46589   0.78310   0.06284   0.00000  Uiso   1.00
C237   C     0.54107   0.80406   0.03532   0.00000  Uiso   1.00
C238   C     0.58625   0.85805   0.07676   0.00000  Uiso   1.00
C239   C     0.68274   0.94320   0.12300   0.00000  Uiso   1.00
C240   C     0.32842   0.77221   0.01675   0.00000  Uiso   1.00
C241   C     0.28801   0.78404   0.95048   0.00000  Uiso   1.00
C242   C     0.21745   0.82888   0.95312   0.00000  Uiso   1.00
C243   C     0.10049   0.89713   0.92779   0.00000  Uiso   1.00
C244   C     0.35315   0.78376   0.14906   0.00000  Uiso   1.00
C245   C     0.35982   0.69215   0.15054   0.00000  Uiso   1.00
C246   C     0.34013   0.64289   0.20983   0.00000  Uiso   1.00
C247   C     0.35051   0.56055   0.20019   0.00000  Uiso   1.00
C248   C     0.43687   0.81493   0.12939   0.00000  Uiso   1.00
C249   C     0.48194   0.86891   0.17088   0.00000  Uiso   1.00
C250   C     0.55717   0.88995   0.14343   0.00000  Uiso   1.00
C251   C     0.29939   0.80404   0.08330   0.00000  Uiso   1.00
C252   C     0.22888   0.84888   0.08604   0.00000  Uiso   1.00
C253   C     0.18838   0.86077   0.01979   0.00000  Uiso   1.00
H254   H     0.42919   0.70037   0.97472   0.00000  Uiso   1.00
H255   H     0.42173   0.55342   0.02275   0.00000  Uiso   1.00
H256   H     0.56351   0.77942   0.98381   0.00000  Uiso   1.00
H257   H     0.31049   0.75939   0.89899   0.00000  Uiso   1.00
H258   H     0.40068   0.40455   0.10536   0.00000  Uiso   1.00
H259   H     0.69963   0.88110   0.02324   0.00000  Uiso   1.00
H260   H     0.16609   0.83887   0.84437   0.00000  Uiso   1.00
H261   H     0.33055   0.80855   0.20088   0.00000  Uiso   1.00
H262   H     0.31767   0.66754   0.26132   0.00000  Uiso   1.00
H263   H     0.45946   0.89354   0.22238   0.00000  Uiso   1.00
H264   H     0.20644   0.87351   0.13755   0.00000  Uiso   1.00
H265   H     0.31623   0.49718   0.29899   0.00000  Uiso   1.00
H266   H     0.61518   0.97372   0.21687   0.00000  Uiso   1.00
H267   H     0.08163   0.93149   0.03800   0.00000  Uiso   1.00
O268   O     0.35179   0.35615   0.23787   0.00000  Uiso   1.00
O269   O     0.74399   0.98137   0.13011   0.00000  Uiso   1.00
O270   O     0.04399   0.92597   0.89544   0.00000  Uiso   1.00
N271   N     0.38256   0.44570   0.14263   0.00000  Uiso   1.00
N272   N     0.66206   0.89123   0.06586   0.00000  Uiso   1.00
N273   N     0.16326   0.85177   0.89862   0.00000  Uiso   1.00
N274   N     0.33711   0.49554   0.24682   0.00000  Uiso   1.00
N275   N     0.61662   0.94107   0.17005   0.00000  Uiso   1.00
N276   N     0.11781   0.90161   0.00281   0.00000  Uiso   1.00
C277   C     0.22515   0.09341   0.52654   0.00000  Uiso   1.00
C278   C     0.16031   0.11115   0.58399   0.00000  Uiso   1.00
C279   C     0.07804   0.10074   0.57426   0.00000  Uiso   1.00
C280   C     0.02866   0.12041   0.63352   0.00000  Uiso   1.00
C281   C     0.92315   0.14350   0.71262   0.00000  Uiso   1.00
C282   C     0.28310   0.03411   0.56284   0.00000  Uiso   1.00
C283   C     0.30406   0.95893   0.53532   0.00000  Uiso   1.00
C284   C     0.35805   0.91375   0.57676   0.00000  Uiso   1.00
C285   C     0.44320   0.81726   0.62300   0.00000  Uiso   1.00
C286   C     0.27221   0.17158   0.51675   0.00000  Uiso   1.00
C287   C     0.28404   0.21199   0.45048   0.00000  Uiso   1.00
C288   C     0.32888   0.28255   0.45312   0.00000  Uiso   1.00
C289   C     0.39713   0.39951   0.42779   0.00000  Uiso   1.00
C290   C     0.28376   0.14685   0.64906   0.00000  Uiso   1.00
C291   C     0.19215   0.14018   0.65054   0.00000  Uiso   1.00
C292   C     0.14289   0.15987   0.70983   0.00000  Uiso   1.00
C293   C     0.06055   0.14949   0.70019   0.00000  Uiso   1.00
C294   C     0.31493   0.06313   0.62939   0.00000  Uiso   1.00
C295   C     0.36891   0.01806   0.67088   0.00000  Uiso   1.00
C296   C     0.38995   0.94283   0.64343   0.00000  Uiso   1.00
C297   C     0.30404   0.20061   0.58330   0.00000  Uiso   1.00
C298   C     0.34888   0.27112   0.58604   0.00000  Uiso   1.00
C299   C     0.36077   0.31162   0.51979   0.00000  Uiso   1.00
H300   H     0.20037   0.07081   0.47472   0.00000  Uiso   1.00
H301   H     0.05342   0.07827   0.52275   0.00000  Uiso   1.00
H302   H     0.27942   0.93649   0.48381   0.00000  Uiso   1.00
H303   H     0.25939   0.18951   0.39899   0.00000  Uiso   1.00
H304   H     0.90455   0.09932   0.60536   0.00000  Uiso   1.00
H305   H     0.38110   0.80037   0.52324   0.00000  Uiso   1.00
H306   H     0.33887   0.33391   0.34437   0.00000  Uiso   1.00
H307   H     0.30855   0.16945   0.70088   0.00000  Uiso   1.00
H308   H     0.16754   0.18233   0.76132   0.00000  Uiso   1.00
H309   H     0.39354   0.04054   0.72238   0.00000  Uiso   1.00
H310   H     0.37351   0.29356   0.63755   0.00000  Uiso   1.00
H311   H     0.99718   0.18377   0.79899   0.00000  Uiso   1.00
H312   H     0.47372   0.88482   0.71687   0.00000  Uiso   1.00
H313   H     0.43149   0.41837   0.53800   0.00000  Uiso   1.00
O314   O     0.85615   0.14821   0.73787   0.00000  Uiso   1.00
O315   O     0.48137   0.75601   0.63011   0.00000  Uiso   1.00
O316   O     0.42597   0.45601   0.39544   0.00000  Uiso   1.00
N317   N     0.94570   0.11744   0.64263   0.00000  Uiso   1.00
N318   N     0.39123   0.83794   0.56586   0.00000  Uiso   1.00
N319   N     0.35177   0.33674   0.39862   0.00000  Uiso   1.00
N320   N     0.99554   0.16289   0.74682   0.00000  Uiso   1.00
N321   N     0.44107   0.88338   0.67005   0.00000  Uiso   1.00
N322   N     0.40161   0.38219   0.50281   0.00000  Uiso   1.00
C323   C     0.77485   0.90659   0.52654   0.00000  Uiso   1.00
C324   C     0.83969   0.88885   0.58399   0.00000  Uiso   1.00
C325   C     0.92196   0.89926   0.57426   0.00000  Uiso   1.00
C326   C     0.97134   0.87959   0.63352   0.00000  Uiso   1.00
C327   C     0.07685   0.85650   0.71262   0.00000  Uiso   1.00
C328   C     0.71690   0.96589   0.56284   0.00000  Uiso   1.00
C329   C     0.69594   0.04107   0.53532   0.00000  Uiso   1.00
C330   C     0.64195   0.08625   0.57676   0.00000  Uiso   1.00
C331   C     0.55680   0.18274   0.62300   0.00000  Uiso   1.00
C332   C     0.72779   0.82842   0.51675   0.00000  Uiso   1.00
C333   C     0.71596   0.78801   0.45048   0.00000  Uiso   1.00
C334   C     0.67112   0.71745   0.45312   0.00000  Uiso   1.00
C335   C     0.60287   0.60049   0.42779   0.00000  Uiso   1.00
C336   C     0.71624   0.85315   0.64906   0.00000  Uiso   1.00
C337   C     0.80785   0.85982   0.65054   0.00000  Uiso   1.00
C338   C     0.85711   0.84013   0.70983   0.00000  Uiso   1.00
C339   C     0.93945   0.85051   0.70019   0.00000  Uiso   1.00
C340   C     0.68507   0.93687   0.62939   0.00000  Uiso   1.00
C341   C     0.63109   0.98194   0.67088   0.00000  Uiso   1.00
C342   C     0.61005   0.05717   0.64343   0.00000  Uiso   1.00
C343   C     0.69596   0.79939   0.58330   0.00000  Uiso   1.00
C344   C     0.65112   0.72888   0.58604   0.00000  Uiso   1.00
C345   C     0.63923   0.68838   0.51979   0.00000  Uiso   1.00
H346   H     0.79963   0.92919   0.47472   0.00000  Uiso   1.00
H347   H     0.94658   0.92173   0.52275   0.00000  Uiso   1.00
H348   H     0.72058   0.06351   0.48381   0.00000  Uiso   1.00
H349   H     0.74061   0.81049   0.39899   0.00000  Uiso   1.00
H350   H     0.09545   0.90068   0.60536   0.00000  Uiso   1.00
H351   H     0.61890   0.19963   0.52324   0.00000  Uiso   1.00
H352   H     0.66113   0.66609   0.34437   0.00000  Uiso   1.00
H353   H     0.69145   0.83055   0.70088   0.00000  Uiso   1.00
H354   H     0.83246   0.81767   0.76132   0.00000  Uiso   1.00
H355   H     0.60646   0.95946   0.72238   0.00000  Uiso   1.00
H356   H     0.62649   0.70644   0.63755   0.00000  Uiso   1.00
H357   H     0.00282   0.81623   0.79899   0.00000  Uiso   1.00
H358   H     0.52628   0.11518   0.71687   0.00000  Uiso   1.00
H359   H     0.56851   0.58163   0.53800   0.00000  Uiso   1.00
O360   O     0.14385   0.85179   0.73787   0.00000  Uiso   1.00
O361   O     0.51863   0.24399   0.63011   0.00000  Uiso   1.00
O362   O     0.57403   0.54399   0.39544   0.00000  Uiso   1.00
N363   N     0.05430   0.88256   0.64263   0.00000  Uiso   1.00
N364   N     0.60877   0.16206   0.56586   0.00000  Uiso   1.00
N365   N     0.64823   0.66326   0.39862   0.00000  Uiso   1.00
N366   N     0.00446   0.83711   0.74682   0.00000  Uiso   1.00
N367   N     0.55893   0.11662   0.67005   0.00000  Uiso   1.00
N368   N     0.59839   0.61781   0.50281   0.00000  Uiso   1.00
