data_job_04435
_audit_creation_date              2018-12-19
_audit_creation_method            'Materials Studio'
_symmetry_space_group_name_H-M    'P1'
_symmetry_Int_Tables_number       1
_symmetry_cell_setting            triclinic
loop_
_symmetry_equiv_pos_as_xyz
  x,y,z
_cell_length_a                    16.2132
_cell_length_b                    16.2132
_cell_length_c                    16.3840
_cell_angle_alpha                 90.0000
_cell_angle_beta                  90.0000
_cell_angle_gamma                 90.0000
loop_
_atom_site_label
_atom_site_type_symbol
_atom_site_fract_x
_atom_site_fract_y
_atom_site_fract_z
_atom_site_U_iso_or_equiv
_atom_site_adp_type
_atom_site_occupancy
C1     C     0.56926   0.87670   0.45027   0.00000  Uiso   1.00
C2     C     0.65381   0.91479   0.43471   0.00000  Uiso   1.00
C3     C     0.67785   0.99394   0.45650   0.00000  Uiso   1.00
C4     C     0.75784   0.01719   0.43685   0.00000  Uiso   1.00
C5     C     0.88090   0.08457   0.41874   0.00000  Uiso   1.00
C6     C     0.53706   0.84933   0.36712   0.00000  Uiso   1.00
C7     C     0.46295   0.87343   0.33208   0.00000  Uiso   1.00
C8     C     0.44466   0.84156   0.25554   0.00000  Uiso   1.00
C9     C     0.38644   0.80728   0.13251   0.00000  Uiso   1.00
C10    C     0.58496   0.79781   0.49851   0.00000  Uiso   1.00
C11    C     0.55110   0.77857   0.57394   0.00000  Uiso   1.00
C12    C     0.57313   0.70331   0.60801   0.00000  Uiso   1.00
C13    C     0.58928   0.58903   0.68899   0.00000  Uiso   1.00
C14    C     0.66856   0.77724   0.37663   0.00000  Uiso   1.00
C15    C     0.70774   0.86077   0.39471   0.00000  Uiso   1.00
C16    C     0.78772   0.88391   0.37503   0.00000  Uiso   1.00
C17    C     0.81188   0.96307   0.39678   0.00000  Uiso   1.00
C18    C     0.59100   0.79532   0.32712   0.00000  Uiso   1.00
C19    C     0.57281   0.76340   0.25061   0.00000  Uiso   1.00
C20    C     0.49869   0.78745   0.21546   0.00000  Uiso   1.00
C21    C     0.63890   0.74379   0.45851   0.00000  Uiso   1.00
C22    C     0.66097   0.66855   0.49246   0.00000  Uiso   1.00
C23    C     0.62716   0.64920   0.56793   0.00000  Uiso   1.00
H24    H     0.52727   0.91875   0.48141   0.00000  Uiso   1.00
H25    H     0.63609   0.03572   0.48745   0.00000  Uiso   1.00
H26    H     0.42122   0.91523   0.36305   0.00000  Uiso   1.00
H27    H     0.50937   0.82039   0.60487   0.00000  Uiso   1.00
H28    H     0.78052   0.14160   0.47648   0.00000  Uiso   1.00
H29    H     0.32743   0.88751   0.21420   0.00000  Uiso   1.00
H30    H     0.51331   0.68752   0.72413   0.00000  Uiso   1.00
H31    H     0.71055   0.73519   0.34549   0.00000  Uiso   1.00
H32    H     0.82944   0.84209   0.34407   0.00000  Uiso   1.00
H33    H     0.61456   0.72160   0.21967   0.00000  Uiso   1.00
H34    H     0.70271   0.62676   0.46149   0.00000  Uiso   1.00
H35    H     0.93744   0.98444   0.36010   0.00000  Uiso   1.00
H36    H     0.48436   0.73035   0.09783   0.00000  Uiso   1.00
H37    H     0.67024   0.53036   0.60775   0.00000  Uiso   1.00
O38    O     0.93387   0.13667   0.41979   0.00000  Uiso   1.00
O39    O     0.33944   0.80330   0.07570   0.00000  Uiso   1.00
O40    O     0.58330   0.54092   0.74471   0.00000  Uiso   1.00
N41    N     0.80114   0.08994   0.44930   0.00000  Uiso   1.00
N42    N     0.37754   0.85239   0.20408   0.00000  Uiso   1.00
N43    N     0.55130   0.66540   0.68081   0.00000  Uiso   1.00
N44    N     0.88558   0.00537   0.38668   0.00000  Uiso   1.00
N45    N     0.46198   0.76782   0.14146   0.00000  Uiso   1.00
N46    N     0.63574   0.58084   0.61819   0.00000  Uiso   1.00
C47    C     0.43074   0.12330   0.45027   0.00000  Uiso   1.00
C48    C     0.34619   0.08521   0.43471   0.00000  Uiso   1.00
C49    C     0.32215   0.00606   0.45650   0.00000  Uiso   1.00
C50    C     0.24216   0.98281   0.43685   0.00000  Uiso   1.00
C51    C     0.11910   0.91543   0.41874   0.00000  Uiso   1.00
C52    C     0.46294   0.15067   0.36712   0.00000  Uiso   1.00
C53    C     0.53705   0.12657   0.33208   0.00000  Uiso   1.00
C54    C     0.55534   0.15844   0.25554   0.00000  Uiso   1.00
C55    C     0.61356   0.19272   0.13251   0.00000  Uiso   1.00
C56    C     0.41504   0.20219   0.49851   0.00000  Uiso   1.00
C57    C     0.44890   0.22143   0.57394   0.00000  Uiso   1.00
C58    C     0.42687   0.29669   0.60801   0.00000  Uiso   1.00
C59    C     0.41072   0.41097   0.68899   0.00000  Uiso   1.00
C60    C     0.33144   0.22276   0.37663   0.00000  Uiso   1.00
C61    C     0.29226   0.13923   0.39471   0.00000  Uiso   1.00
C62    C     0.21228   0.11609   0.37503   0.00000  Uiso   1.00
C63    C     0.18812   0.03693   0.39678   0.00000  Uiso   1.00
C64    C     0.40900   0.20468   0.32712   0.00000  Uiso   1.00
C65    C     0.42719   0.23660   0.25061   0.00000  Uiso   1.00
C66    C     0.50131   0.21255   0.21546   0.00000  Uiso   1.00
C67    C     0.36110   0.25621   0.45851   0.00000  Uiso   1.00
C68    C     0.33903   0.33145   0.49246   0.00000  Uiso   1.00
C69    C     0.37284   0.35080   0.56793   0.00000  Uiso   1.00
H70    H     0.47273   0.08125   0.48141   0.00000  Uiso   1.00
H71    H     0.36391   0.96428   0.48745   0.00000  Uiso   1.00
H72    H     0.57878   0.08477   0.36305   0.00000  Uiso   1.00
H73    H     0.49063   0.17961   0.60487   0.00000  Uiso   1.00
H74    H     0.21948   0.85840   0.47648   0.00000  Uiso   1.00
H75    H     0.67257   0.11249   0.21420   0.00000  Uiso   1.00
H76    H     0.48669   0.31248   0.72413   0.00000  Uiso   1.00
H77    H     0.28945   0.26481   0.34549   0.00000  Uiso   1.00
H78    H     0.17056   0.15791   0.34407   0.00000  Uiso   1.00
H79    H     0.38544   0.27840   0.21967   0.00000  Uiso   1.00
H80    H     0.29729   0.37324   0.46149   0.00000  Uiso   1.00
H81    H     0.06256   0.01556   0.36010   0.00000  Uiso   1.00
H82    H     0.51564   0.26965   0.09783   0.00000  Uiso   1.00
H83    H     0.32976   0.46964   0.60775   0.00000  Uiso   1.00
O84    O     0.06613   0.86333   0.41979   0.00000  Uiso   1.00
O85    O     0.66056   0.19670   0.07570   0.00000  Uiso   1.00
O86    O     0.41670   0.45908   0.74471   0.00000  Uiso   1.00
N87    N     0.19886   0.91006   0.44930   0.00000  Uiso   1.00
N88    N     0.62246   0.14761   0.20408   0.00000  Uiso   1.00
N89    N     0.44870   0.33460   0.68081   0.00000  Uiso   1.00
N90    N     0.11442   0.99463   0.38668   0.00000  Uiso   1.00
N91    N     0.53802   0.23218   0.14146   0.00000  Uiso   1.00
N92    N     0.36426   0.41916   0.61819   0.00000  Uiso   1.00
C93    C     0.87670   0.43074   0.54973   0.00000  Uiso   1.00
C94    C     0.91479   0.34619   0.56529   0.00000  Uiso   1.00
C95    C     0.99394   0.32215   0.54350   0.00000  Uiso   1.00
C96    C     0.01719   0.24216   0.56315   0.00000  Uiso   1.00
C97    C     0.08457   0.11910   0.58126   0.00000  Uiso   1.00
C98    C     0.84933   0.46294   0.63288   0.00000  Uiso   1.00
C99    C     0.87343   0.53705   0.66792   0.00000  Uiso   1.00
C100   C     0.84156   0.55534   0.74446   0.00000  Uiso   1.00
C101   C     0.80728   0.61356   0.86749   0.00000  Uiso   1.00
C102   C     0.79781   0.41504   0.50149   0.00000  Uiso   1.00
C103   C     0.77857   0.44890   0.42606   0.00000  Uiso   1.00
C104   C     0.70331   0.42687   0.39199   0.00000  Uiso   1.00
C105   C     0.58903   0.41072   0.31101   0.00000  Uiso   1.00
C106   C     0.77724   0.33144   0.62337   0.00000  Uiso   1.00
C107   C     0.86077   0.29226   0.60529   0.00000  Uiso   1.00
C108   C     0.88391   0.21228   0.62497   0.00000  Uiso   1.00
C109   C     0.96307   0.18812   0.60322   0.00000  Uiso   1.00
C110   C     0.79532   0.40900   0.67288   0.00000  Uiso   1.00
C111   C     0.76340   0.42719   0.74939   0.00000  Uiso   1.00
C112   C     0.78745   0.50131   0.78454   0.00000  Uiso   1.00
C113   C     0.74379   0.36110   0.54149   0.00000  Uiso   1.00
C114   C     0.66855   0.33903   0.50754   0.00000  Uiso   1.00
C115   C     0.64920   0.37284   0.43207   0.00000  Uiso   1.00
H116   H     0.91875   0.47273   0.51859   0.00000  Uiso   1.00
H117   H     0.03572   0.36391   0.51255   0.00000  Uiso   1.00
H118   H     0.91523   0.57878   0.63695   0.00000  Uiso   1.00
H119   H     0.82039   0.49063   0.39513   0.00000  Uiso   1.00
H120   H     0.14160   0.21948   0.52352   0.00000  Uiso   1.00
H121   H     0.88751   0.67257   0.78580   0.00000  Uiso   1.00
H122   H     0.68752   0.48669   0.27587   0.00000  Uiso   1.00
H123   H     0.73519   0.28945   0.65451   0.00000  Uiso   1.00
H124   H     0.84209   0.17056   0.65593   0.00000  Uiso   1.00
H125   H     0.72160   0.38544   0.78033   0.00000  Uiso   1.00
H126   H     0.62676   0.29729   0.53851   0.00000  Uiso   1.00
H127   H     0.98444   0.06256   0.63990   0.00000  Uiso   1.00
H128   H     0.73035   0.51564   0.90217   0.00000  Uiso   1.00
H129   H     0.53036   0.32976   0.39225   0.00000  Uiso   1.00
O130   O     0.13667   0.06613   0.58021   0.00000  Uiso   1.00
O131   O     0.80330   0.66056   0.92430   0.00000  Uiso   1.00
O132   O     0.54092   0.41670   0.25529   0.00000  Uiso   1.00
N133   N     0.08994   0.19886   0.55070   0.00000  Uiso   1.00
N134   N     0.85239   0.62246   0.79592   0.00000  Uiso   1.00
N135   N     0.66540   0.44870   0.31919   0.00000  Uiso   1.00
N136   N     0.00537   0.11442   0.61332   0.00000  Uiso   1.00
N137   N     0.76782   0.53802   0.85854   0.00000  Uiso   1.00
N138   N     0.58084   0.36426   0.38181   0.00000  Uiso   1.00
C139   C     0.12330   0.56926   0.54973   0.00000  Uiso   1.00
C140   C     0.08521   0.65381   0.56529   0.00000  Uiso   1.00
C141   C     0.00606   0.67785   0.54350   0.00000  Uiso   1.00
C142   C     0.98281   0.75784   0.56315   0.00000  Uiso   1.00
C143   C     0.91543   0.88090   0.58126   0.00000  Uiso   1.00
C144   C     0.15067   0.53706   0.63288   0.00000  Uiso   1.00
C145   C     0.12657   0.46295   0.66792   0.00000  Uiso   1.00
C146   C     0.15844   0.44466   0.74446   0.00000  Uiso   1.00
C147   C     0.19272   0.38644   0.86749   0.00000  Uiso   1.00
C148   C     0.20219   0.58496   0.50149   0.00000  Uiso   1.00
C149   C     0.22143   0.55110   0.42606   0.00000  Uiso   1.00
C150   C     0.29669   0.57313   0.39199   0.00000  Uiso   1.00
C151   C     0.41097   0.58928   0.31101   0.00000  Uiso   1.00
C152   C     0.22276   0.66856   0.62337   0.00000  Uiso   1.00
C153   C     0.13923   0.70774   0.60529   0.00000  Uiso   1.00
C154   C     0.11609   0.78772   0.62497   0.00000  Uiso   1.00
C155   C     0.03693   0.81188   0.60322   0.00000  Uiso   1.00
C156   C     0.20468   0.59100   0.67288   0.00000  Uiso   1.00
C157   C     0.23660   0.57281   0.74939   0.00000  Uiso   1.00
C158   C     0.21255   0.49869   0.78454   0.00000  Uiso   1.00
C159   C     0.25621   0.63890   0.54149   0.00000  Uiso   1.00
C160   C     0.33145   0.66097   0.50754   0.00000  Uiso   1.00
C161   C     0.35080   0.62716   0.43207   0.00000  Uiso   1.00
H162   H     0.08125   0.52727   0.51859   0.00000  Uiso   1.00
H163   H     0.96428   0.63609   0.51255   0.00000  Uiso   1.00
H164   H     0.08477   0.42122   0.63695   0.00000  Uiso   1.00
H165   H     0.17961   0.50937   0.39513   0.00000  Uiso   1.00
H166   H     0.85840   0.78052   0.52352   0.00000  Uiso   1.00
H167   H     0.11249   0.32743   0.78580   0.00000  Uiso   1.00
H168   H     0.31248   0.51331   0.27587   0.00000  Uiso   1.00
H169   H     0.26481   0.71055   0.65451   0.00000  Uiso   1.00
H170   H     0.15791   0.82944   0.65593   0.00000  Uiso   1.00
H171   H     0.27840   0.61456   0.78033   0.00000  Uiso   1.00
H172   H     0.37324   0.70271   0.53851   0.00000  Uiso   1.00
H173   H     0.01556   0.93744   0.63990   0.00000  Uiso   1.00
H174   H     0.26965   0.48436   0.90217   0.00000  Uiso   1.00
H175   H     0.46964   0.67024   0.39225   0.00000  Uiso   1.00
O176   O     0.86333   0.93387   0.58021   0.00000  Uiso   1.00
O177   O     0.19670   0.33944   0.92430   0.00000  Uiso   1.00
O178   O     0.45908   0.58330   0.25529   0.00000  Uiso   1.00
N179   N     0.91006   0.80114   0.55070   0.00000  Uiso   1.00
N180   N     0.14761   0.37754   0.79592   0.00000  Uiso   1.00
N181   N     0.33460   0.55130   0.31919   0.00000  Uiso   1.00
N182   N     0.99463   0.88558   0.61332   0.00000  Uiso   1.00
N183   N     0.23218   0.46198   0.85854   0.00000  Uiso   1.00
N184   N     0.41916   0.63574   0.38181   0.00000  Uiso   1.00
C185   C     0.93074   0.37670   0.04973   0.00000  Uiso   1.00
C186   C     0.84619   0.41479   0.06529   0.00000  Uiso   1.00
C187   C     0.82215   0.49394   0.04350   0.00000  Uiso   1.00
C188   C     0.74216   0.51719   0.06315   0.00000  Uiso   1.00
C189   C     0.61910   0.58457   0.08126   0.00000  Uiso   1.00
C190   C     0.96294   0.34933   0.13288   0.00000  Uiso   1.00
C191   C     0.03705   0.37343   0.16792   0.00000  Uiso   1.00
C192   C     0.05534   0.34156   0.24446   0.00000  Uiso   1.00
C193   C     0.11356   0.30728   0.36749   0.00000  Uiso   1.00
C194   C     0.91504   0.29781   0.00149   0.00000  Uiso   1.00
C195   C     0.94890   0.27857   0.92606   0.00000  Uiso   1.00
C196   C     0.92687   0.20331   0.89199   0.00000  Uiso   1.00
C197   C     0.91072   0.08903   0.81101   0.00000  Uiso   1.00
C198   C     0.83144   0.27724   0.12337   0.00000  Uiso   1.00
C199   C     0.79226   0.36077   0.10529   0.00000  Uiso   1.00
C200   C     0.71228   0.38391   0.12497   0.00000  Uiso   1.00
C201   C     0.68812   0.46307   0.10322   0.00000  Uiso   1.00
C202   C     0.90900   0.29532   0.17288   0.00000  Uiso   1.00
C203   C     0.92719   0.26340   0.24939   0.00000  Uiso   1.00
C204   C     0.00131   0.28745   0.28454   0.00000  Uiso   1.00
C205   C     0.86110   0.24379   0.04149   0.00000  Uiso   1.00
C206   C     0.83903   0.16855   0.00754   0.00000  Uiso   1.00
C207   C     0.87284   0.14920   0.93207   0.00000  Uiso   1.00
H208   H     0.97273   0.41875   0.01859   0.00000  Uiso   1.00
H209   H     0.86391   0.53572   0.01255   0.00000  Uiso   1.00
H210   H     0.07878   0.41523   0.13695   0.00000  Uiso   1.00
H211   H     0.99063   0.32039   0.89513   0.00000  Uiso   1.00
H212   H     0.71948   0.64160   0.02352   0.00000  Uiso   1.00
H213   H     0.17257   0.38751   0.28580   0.00000  Uiso   1.00
H214   H     0.98669   0.18752   0.77587   0.00000  Uiso   1.00
H215   H     0.78945   0.23519   0.15451   0.00000  Uiso   1.00
H216   H     0.67056   0.34209   0.15593   0.00000  Uiso   1.00
H217   H     0.88544   0.22160   0.28033   0.00000  Uiso   1.00
H218   H     0.79729   0.12676   0.03851   0.00000  Uiso   1.00
H219   H     0.56256   0.48444   0.13990   0.00000  Uiso   1.00
H220   H     0.01564   0.23035   0.40217   0.00000  Uiso   1.00
H221   H     0.82976   0.03036   0.89225   0.00000  Uiso   1.00
O222   O     0.56613   0.63667   0.08021   0.00000  Uiso   1.00
O223   O     0.16056   0.30330   0.42430   0.00000  Uiso   1.00
O224   O     0.91670   0.04092   0.75529   0.00000  Uiso   1.00
N225   N     0.69886   0.58994   0.05070   0.00000  Uiso   1.00
N226   N     0.12246   0.35239   0.29592   0.00000  Uiso   1.00
N227   N     0.94870   0.16540   0.81919   0.00000  Uiso   1.00
N228   N     0.61442   0.50537   0.11332   0.00000  Uiso   1.00
N229   N     0.03802   0.26782   0.35854   0.00000  Uiso   1.00
N230   N     0.86426   0.08084   0.88181   0.00000  Uiso   1.00
C231   C     0.06926   0.62330   0.04973   0.00000  Uiso   1.00
C232   C     0.15381   0.58521   0.06529   0.00000  Uiso   1.00
C233   C     0.17785   0.50606   0.04350   0.00000  Uiso   1.00
C234   C     0.25784   0.48281   0.06315   0.00000  Uiso   1.00
C235   C     0.38090   0.41543   0.08126   0.00000  Uiso   1.00
C236   C     0.03706   0.65067   0.13288   0.00000  Uiso   1.00
C237   C     0.96295   0.62657   0.16792   0.00000  Uiso   1.00
C238   C     0.94466   0.65844   0.24446   0.00000  Uiso   1.00
C239   C     0.88644   0.69272   0.36749   0.00000  Uiso   1.00
C240   C     0.08496   0.70219   0.00149   0.00000  Uiso   1.00
C241   C     0.05110   0.72143   0.92606   0.00000  Uiso   1.00
C242   C     0.07313   0.79669   0.89199   0.00000  Uiso   1.00
C243   C     0.08928   0.91097   0.81101   0.00000  Uiso   1.00
C244   C     0.16856   0.72276   0.12337   0.00000  Uiso   1.00
C245   C     0.20774   0.63923   0.10529   0.00000  Uiso   1.00
C246   C     0.28772   0.61609   0.12497   0.00000  Uiso   1.00
C247   C     0.31188   0.53693   0.10322   0.00000  Uiso   1.00
C248   C     0.09100   0.70468   0.17288   0.00000  Uiso   1.00
C249   C     0.07281   0.73660   0.24939   0.00000  Uiso   1.00
C250   C     0.99869   0.71255   0.28454   0.00000  Uiso   1.00
C251   C     0.13890   0.75621   0.04149   0.00000  Uiso   1.00
C252   C     0.16097   0.83145   0.00754   0.00000  Uiso   1.00
C253   C     0.12716   0.85080   0.93207   0.00000  Uiso   1.00
H254   H     0.02727   0.58125   0.01859   0.00000  Uiso   1.00
H255   H     0.13609   0.46428   0.01255   0.00000  Uiso   1.00
H256   H     0.92122   0.58477   0.13695   0.00000  Uiso   1.00
H257   H     0.00937   0.67961   0.89513   0.00000  Uiso   1.00
H258   H     0.28052   0.35840   0.02352   0.00000  Uiso   1.00
H259   H     0.82743   0.61249   0.28580   0.00000  Uiso   1.00
H260   H     0.01331   0.81248   0.77587   0.00000  Uiso   1.00
H261   H     0.21055   0.76481   0.15451   0.00000  Uiso   1.00
H262   H     0.32944   0.65791   0.15593   0.00000  Uiso   1.00
H263   H     0.11456   0.77840   0.28033   0.00000  Uiso   1.00
H264   H     0.20271   0.87324   0.03851   0.00000  Uiso   1.00
H265   H     0.43744   0.51556   0.13990   0.00000  Uiso   1.00
H266   H     0.98436   0.76965   0.40217   0.00000  Uiso   1.00
H267   H     0.17024   0.96964   0.89225   0.00000  Uiso   1.00
O268   O     0.43387   0.36333   0.08021   0.00000  Uiso   1.00
O269   O     0.83944   0.69670   0.42430   0.00000  Uiso   1.00
O270   O     0.08330   0.95908   0.75529   0.00000  Uiso   1.00
N271   N     0.30114   0.41006   0.05070   0.00000  Uiso   1.00
N272   N     0.87754   0.64761   0.29592   0.00000  Uiso   1.00
N273   N     0.05130   0.83460   0.81919   0.00000  Uiso   1.00
N274   N     0.38558   0.49463   0.11332   0.00000  Uiso   1.00
N275   N     0.96198   0.73218   0.35854   0.00000  Uiso   1.00
N276   N     0.13574   0.91916   0.88181   0.00000  Uiso   1.00
C277   C     0.62330   0.93074   0.95027   0.00000  Uiso   1.00
C278   C     0.58521   0.84619   0.93471   0.00000  Uiso   1.00
C279   C     0.50606   0.82215   0.95650   0.00000  Uiso   1.00
C280   C     0.48281   0.74216   0.93685   0.00000  Uiso   1.00
C281   C     0.41543   0.61910   0.91874   0.00000  Uiso   1.00
C282   C     0.65067   0.96294   0.86712   0.00000  Uiso   1.00
C283   C     0.62657   0.03705   0.83208   0.00000  Uiso   1.00
C284   C     0.65844   0.05534   0.75554   0.00000  Uiso   1.00
C285   C     0.69272   0.11356   0.63251   0.00000  Uiso   1.00
C286   C     0.70219   0.91504   0.99851   0.00000  Uiso   1.00
C287   C     0.72143   0.94890   0.07394   0.00000  Uiso   1.00
C288   C     0.79669   0.92687   0.10801   0.00000  Uiso   1.00
C289   C     0.91097   0.91072   0.18899   0.00000  Uiso   1.00
C290   C     0.72276   0.83144   0.87663   0.00000  Uiso   1.00
C291   C     0.63923   0.79226   0.89471   0.00000  Uiso   1.00
C292   C     0.61609   0.71228   0.87503   0.00000  Uiso   1.00
C293   C     0.53693   0.68812   0.89678   0.00000  Uiso   1.00
C294   C     0.70468   0.90900   0.82712   0.00000  Uiso   1.00
C295   C     0.73660   0.92719   0.75061   0.00000  Uiso   1.00
C296   C     0.71255   0.00131   0.71546   0.00000  Uiso   1.00
C297   C     0.75621   0.86110   0.95851   0.00000  Uiso   1.00
C298   C     0.83145   0.83903   0.99246   0.00000  Uiso   1.00
C299   C     0.85080   0.87284   0.06793   0.00000  Uiso   1.00
H300   H     0.58125   0.97273   0.98141   0.00000  Uiso   1.00
H301   H     0.46428   0.86391   0.98745   0.00000  Uiso   1.00
H302   H     0.58477   0.07878   0.86305   0.00000  Uiso   1.00
H303   H     0.67961   0.99063   0.10487   0.00000  Uiso   1.00
H304   H     0.35840   0.71948   0.97648   0.00000  Uiso   1.00
H305   H     0.61249   0.17257   0.71420   0.00000  Uiso   1.00
H306   H     0.81248   0.98669   0.22413   0.00000  Uiso   1.00
H307   H     0.76481   0.78945   0.84549   0.00000  Uiso   1.00
H308   H     0.65791   0.67056   0.84407   0.00000  Uiso   1.00
H309   H     0.77840   0.88544   0.71967   0.00000  Uiso   1.00
H310   H     0.87324   0.79729   0.96149   0.00000  Uiso   1.00
H311   H     0.51556   0.56256   0.86010   0.00000  Uiso   1.00
H312   H     0.76965   0.01564   0.59783   0.00000  Uiso   1.00
H313   H     0.96964   0.82976   0.10775   0.00000  Uiso   1.00
O314   O     0.36333   0.56613   0.91979   0.00000  Uiso   1.00
O315   O     0.69670   0.16056   0.57570   0.00000  Uiso   1.00
O316   O     0.95908   0.91670   0.24471   0.00000  Uiso   1.00
N317   N     0.41006   0.69886   0.94930   0.00000  Uiso   1.00
N318   N     0.64761   0.12246   0.70408   0.00000  Uiso   1.00
N319   N     0.83460   0.94870   0.18081   0.00000  Uiso   1.00
N320   N     0.49463   0.61442   0.88668   0.00000  Uiso   1.00
N321   N     0.73218   0.03802   0.64146   0.00000  Uiso   1.00
N322   N     0.91916   0.86426   0.11819   0.00000  Uiso   1.00
C323   C     0.37670   0.06926   0.95027   0.00000  Uiso   1.00
C324   C     0.41479   0.15381   0.93471   0.00000  Uiso   1.00
C325   C     0.49394   0.17785   0.95650   0.00000  Uiso   1.00
C326   C     0.51719   0.25784   0.93685   0.00000  Uiso   1.00
C327   C     0.58457   0.38090   0.91874   0.00000  Uiso   1.00
C328   C     0.34933   0.03706   0.86712   0.00000  Uiso   1.00
C329   C     0.37343   0.96295   0.83208   0.00000  Uiso   1.00
C330   C     0.34156   0.94466   0.75554   0.00000  Uiso   1.00
C331   C     0.30728   0.88644   0.63251   0.00000  Uiso   1.00
C332   C     0.29781   0.08496   0.99851   0.00000  Uiso   1.00
C333   C     0.27857   0.05110   0.07394   0.00000  Uiso   1.00
C334   C     0.20331   0.07313   0.10801   0.00000  Uiso   1.00
C335   C     0.08903   0.08928   0.18899   0.00000  Uiso   1.00
C336   C     0.27724   0.16856   0.87663   0.00000  Uiso   1.00
C337   C     0.36077   0.20774   0.89471   0.00000  Uiso   1.00
C338   C     0.38391   0.28772   0.87503   0.00000  Uiso   1.00
C339   C     0.46307   0.31188   0.89678   0.00000  Uiso   1.00
C340   C     0.29532   0.09100   0.82712   0.00000  Uiso   1.00
C341   C     0.26340   0.07281   0.75061   0.00000  Uiso   1.00
C342   C     0.28745   0.99869   0.71546   0.00000  Uiso   1.00
C343   C     0.24379   0.13890   0.95851   0.00000  Uiso   1.00
C344   C     0.16855   0.16097   0.99246   0.00000  Uiso   1.00
C345   C     0.14920   0.12716   0.06793   0.00000  Uiso   1.00
H346   H     0.41875   0.02727   0.98141   0.00000  Uiso   1.00
H347   H     0.53572   0.13609   0.98745   0.00000  Uiso   1.00
H348   H     0.41523   0.92122   0.86305   0.00000  Uiso   1.00
H349   H     0.32039   0.00937   0.10487   0.00000  Uiso   1.00
H350   H     0.64160   0.28052   0.97648   0.00000  Uiso   1.00
H351   H     0.38751   0.82743   0.71420   0.00000  Uiso   1.00
H352   H     0.18752   0.01331   0.22413   0.00000  Uiso   1.00
H353   H     0.23519   0.21055   0.84549   0.00000  Uiso   1.00
H354   H     0.34209   0.32944   0.84407   0.00000  Uiso   1.00
H355   H     0.22160   0.11456   0.71967   0.00000  Uiso   1.00
H356   H     0.12676   0.20271   0.96149   0.00000  Uiso   1.00
H357   H     0.48444   0.43744   0.86010   0.00000  Uiso   1.00
H358   H     0.23035   0.98436   0.59783   0.00000  Uiso   1.00
H359   H     0.03036   0.17024   0.10775   0.00000  Uiso   1.00
O360   O     0.63667   0.43387   0.91979   0.00000  Uiso   1.00
O361   O     0.30330   0.83944   0.57570   0.00000  Uiso   1.00
O362   O     0.04092   0.08330   0.24471   0.00000  Uiso   1.00
N363   N     0.58994   0.30114   0.94930   0.00000  Uiso   1.00
N364   N     0.35239   0.87754   0.70408   0.00000  Uiso   1.00
N365   N     0.16540   0.05130   0.18081   0.00000  Uiso   1.00
N366   N     0.50537   0.38558   0.88668   0.00000  Uiso   1.00
N367   N     0.26782   0.96198   0.64146   0.00000  Uiso   1.00
N368   N     0.08084   0.13574   0.11819   0.00000  Uiso   1.00
