data_job_02750
_audit_creation_date              2018-12-19
_audit_creation_method            'Materials Studio'
_symmetry_space_group_name_H-M    'P1'
_symmetry_Int_Tables_number       1
_symmetry_cell_setting            triclinic
loop_
_symmetry_equiv_pos_as_xyz
  x,y,z
_cell_length_a                    12.7924
_cell_length_b                    21.5402
_cell_length_c                    24.5926
_cell_angle_alpha                 90.0000
_cell_angle_beta                  69.2338
_cell_angle_gamma                 90.0000
loop_
_atom_site_label
_atom_site_type_symbol
_atom_site_fract_x
_atom_site_fract_y
_atom_site_fract_z
_atom_site_U_iso_or_equiv
_atom_site_adp_type
_atom_site_occupancy
C1     C     0.34964   0.46458   0.54500   0.00000  Uiso   1.00
C2     C     0.29326   0.49120   0.60589   0.00000  Uiso   1.00
C3     C     0.32023   0.54695   0.62596   0.00000  Uiso   1.00
C4     C     0.25884   0.56310   0.68306   0.00000  Uiso   1.00
C5     C     0.18430   0.61023   0.77219   0.00000  Uiso   1.00
C6     C     0.39152   0.40027   0.55331   0.00000  Uiso   1.00
C7     C     0.50110   0.37957   0.52917   0.00000  Uiso   1.00
C8     C     0.52241   0.31917   0.54200   0.00000  Uiso   1.00
C9     C     0.60040   0.22512   0.54947   0.00000  Uiso   1.00
C10    C     0.25657   0.45398   0.52082   0.00000  Uiso   1.00
C11    C     0.25269   0.47843   0.46936   0.00000  Uiso   1.00
C12    C     0.16039   0.46324   0.45483   0.00000  Uiso   1.00
C13    C     0.02886   0.45259   0.41186   0.00000  Uiso   1.00
C14    C     0.19264   0.39411   0.61070   0.00000  Uiso   1.00
C15    C     0.20799   0.45292   0.64157   0.00000  Uiso   1.00
C16    C     0.14653   0.46898   0.69866   0.00000  Uiso   1.00
C17    C     0.17341   0.52475   0.71882   0.00000  Uiso   1.00
C18    C     0.30624   0.36199   0.58900   0.00000  Uiso   1.00
C19    C     0.32739   0.30161   0.60186   0.00000  Uiso   1.00
C20    C     0.43698   0.28082   0.57776   0.00000  Uiso   1.00
C21    C     0.17129   0.41571   0.55651   0.00000  Uiso   1.00
C22    C     0.07898   0.40047   0.54206   0.00000  Uiso   1.00
C23    C     0.07496   0.42489   0.49058   0.00000  Uiso   1.00
H24    H     0.41604   0.49438   0.51721   0.00000  Uiso   1.00
H25    H     0.38624   0.57656   0.59833   0.00000  Uiso   1.00
H26    H     0.56707   0.40920   0.50155   0.00000  Uiso   1.00
H27    H     0.31870   0.50805   0.44175   0.00000  Uiso   1.00
H28    H     0.31563   0.65078   0.70402   0.00000  Uiso   1.00
H29    H     0.69691   0.29789   0.49993   0.00000  Uiso   1.00
H30    H     0.17317   0.50633   0.37383   0.00000  Uiso   1.00
H31    H     0.12625   0.36431   0.63849   0.00000  Uiso   1.00
H32    H     0.08054   0.43935   0.72627   0.00000  Uiso   1.00
H33    H     0.26138   0.27200   0.62948   0.00000  Uiso   1.00
H34    H     0.01301   0.37084   0.56968   0.00000  Uiso   1.00
H35    H     0.06752   0.53942   0.80785   0.00000  Uiso   1.00
H36    H     0.44880   0.18653   0.60376   0.00000  Uiso   1.00
H37    H     0.92506   0.39497   0.47767   0.00000  Uiso   1.00
O38    O     0.16676   0.64680   0.81150   0.00000  Uiso   1.00
O39    O     0.66698   0.18383   0.54373   0.00000  Uiso   1.00
O40    O     0.97985   0.45729   0.37830   0.00000  Uiso   1.00
N41    N     0.26349   0.61428   0.71641   0.00000  Uiso   1.00
N42    N     0.61997   0.28435   0.52560   0.00000  Uiso   1.00
N43    N     0.13033   0.47921   0.40770   0.00000  Uiso   1.00
N44    N     0.12998   0.55435   0.77228   0.00000  Uiso   1.00
N45    N     0.48646   0.22443   0.58147   0.00000  Uiso   1.00
N46    N     0.99683   0.41929   0.46358   0.00000  Uiso   1.00
C47    C     0.84964   0.96458   0.54500   0.00000  Uiso   1.00
C48    C     0.79326   0.99120   0.60589   0.00000  Uiso   1.00
C49    C     0.82023   0.04695   0.62596   0.00000  Uiso   1.00
C50    C     0.75884   0.06310   0.68306   0.00000  Uiso   1.00
C51    C     0.68430   0.11023   0.77219   0.00000  Uiso   1.00
C52    C     0.89152   0.90027   0.55331   0.00000  Uiso   1.00
C53    C     0.00110   0.87957   0.52917   0.00000  Uiso   1.00
C54    C     0.02241   0.81917   0.54200   0.00000  Uiso   1.00
C55    C     0.10040   0.72512   0.54947   0.00000  Uiso   1.00
C56    C     0.75657   0.95398   0.52082   0.00000  Uiso   1.00
C57    C     0.75269   0.97843   0.46936   0.00000  Uiso   1.00
C58    C     0.66039   0.96324   0.45483   0.00000  Uiso   1.00
C59    C     0.52886   0.95259   0.41186   0.00000  Uiso   1.00
C60    C     0.69264   0.89411   0.61070   0.00000  Uiso   1.00
C61    C     0.70799   0.95292   0.64157   0.00000  Uiso   1.00
C62    C     0.64653   0.96898   0.69866   0.00000  Uiso   1.00
C63    C     0.67341   0.02475   0.71882   0.00000  Uiso   1.00
C64    C     0.80624   0.86199   0.58900   0.00000  Uiso   1.00
C65    C     0.82739   0.80161   0.60186   0.00000  Uiso   1.00
C66    C     0.93698   0.78082   0.57776   0.00000  Uiso   1.00
C67    C     0.67129   0.91571   0.55651   0.00000  Uiso   1.00
C68    C     0.57898   0.90047   0.54206   0.00000  Uiso   1.00
C69    C     0.57496   0.92489   0.49058   0.00000  Uiso   1.00
H70    H     0.91604   0.99438   0.51721   0.00000  Uiso   1.00
H71    H     0.88624   0.07656   0.59833   0.00000  Uiso   1.00
H72    H     0.06707   0.90920   0.50155   0.00000  Uiso   1.00
H73    H     0.81870   0.00805   0.44175   0.00000  Uiso   1.00
H74    H     0.81563   0.15078   0.70402   0.00000  Uiso   1.00
H75    H     0.19691   0.79789   0.49993   0.00000  Uiso   1.00
H76    H     0.67317   0.00633   0.37383   0.00000  Uiso   1.00
H77    H     0.62625   0.86431   0.63849   0.00000  Uiso   1.00
H78    H     0.58054   0.93935   0.72627   0.00000  Uiso   1.00
H79    H     0.76138   0.77200   0.62948   0.00000  Uiso   1.00
H80    H     0.51301   0.87084   0.56968   0.00000  Uiso   1.00
H81    H     0.56752   0.03942   0.80785   0.00000  Uiso   1.00
H82    H     0.94880   0.68653   0.60376   0.00000  Uiso   1.00
H83    H     0.42506   0.89497   0.47767   0.00000  Uiso   1.00
O84    O     0.66676   0.14680   0.81150   0.00000  Uiso   1.00
O85    O     0.16698   0.68383   0.54373   0.00000  Uiso   1.00
O86    O     0.47985   0.95729   0.37830   0.00000  Uiso   1.00
N87    N     0.76349   0.11428   0.71641   0.00000  Uiso   1.00
N88    N     0.11997   0.78435   0.52560   0.00000  Uiso   1.00
N89    N     0.63033   0.97921   0.40770   0.00000  Uiso   1.00
N90    N     0.62998   0.05435   0.77228   0.00000  Uiso   1.00
N91    N     0.98646   0.72443   0.58147   0.00000  Uiso   1.00
N92    N     0.49683   0.91929   0.46358   0.00000  Uiso   1.00
C93    C     0.65036   0.46458   0.95500   0.00000  Uiso   1.00
C94    C     0.70674   0.49120   0.89411   0.00000  Uiso   1.00
C95    C     0.67977   0.54695   0.87404   0.00000  Uiso   1.00
C96    C     0.74116   0.56310   0.81694   0.00000  Uiso   1.00
C97    C     0.81570   0.61023   0.72781   0.00000  Uiso   1.00
C98    C     0.60848   0.40027   0.94669   0.00000  Uiso   1.00
C99    C     0.49890   0.37957   0.97083   0.00000  Uiso   1.00
C100   C     0.47759   0.31917   0.95800   0.00000  Uiso   1.00
C101   C     0.39960   0.22512   0.95053   0.00000  Uiso   1.00
C102   C     0.74343   0.45398   0.97918   0.00000  Uiso   1.00
C103   C     0.74731   0.47843   0.03064   0.00000  Uiso   1.00
C104   C     0.83961   0.46324   0.04517   0.00000  Uiso   1.00
C105   C     0.97114   0.45259   0.08814   0.00000  Uiso   1.00
C106   C     0.80736   0.39411   0.88930   0.00000  Uiso   1.00
C107   C     0.79201   0.45292   0.85843   0.00000  Uiso   1.00
C108   C     0.85347   0.46898   0.80134   0.00000  Uiso   1.00
C109   C     0.82659   0.52475   0.78118   0.00000  Uiso   1.00
C110   C     0.69376   0.36199   0.91100   0.00000  Uiso   1.00
C111   C     0.67261   0.30161   0.89814   0.00000  Uiso   1.00
C112   C     0.56302   0.28082   0.92224   0.00000  Uiso   1.00
C113   C     0.82871   0.41571   0.94349   0.00000  Uiso   1.00
C114   C     0.92102   0.40047   0.95794   0.00000  Uiso   1.00
C115   C     0.92504   0.42489   0.00942   0.00000  Uiso   1.00
H116   H     0.58396   0.49438   0.98279   0.00000  Uiso   1.00
H117   H     0.61376   0.57656   0.90167   0.00000  Uiso   1.00
H118   H     0.43293   0.40920   0.99845   0.00000  Uiso   1.00
H119   H     0.68130   0.50805   0.05825   0.00000  Uiso   1.00
H120   H     0.68437   0.65078   0.79598   0.00000  Uiso   1.00
H121   H     0.30309   0.29789   0.00007   0.00000  Uiso   1.00
H122   H     0.82683   0.50633   0.12617   0.00000  Uiso   1.00
H123   H     0.87375   0.36431   0.86151   0.00000  Uiso   1.00
H124   H     0.91946   0.43935   0.77373   0.00000  Uiso   1.00
H125   H     0.73862   0.27200   0.87052   0.00000  Uiso   1.00
H126   H     0.98699   0.37084   0.93032   0.00000  Uiso   1.00
H127   H     0.93248   0.53942   0.69215   0.00000  Uiso   1.00
H128   H     0.55120   0.18653   0.89624   0.00000  Uiso   1.00
H129   H     0.07494   0.39497   0.02233   0.00000  Uiso   1.00
O130   O     0.83324   0.64680   0.68850   0.00000  Uiso   1.00
O131   O     0.33302   0.18383   0.95627   0.00000  Uiso   1.00
O132   O     0.02015   0.45729   0.12170   0.00000  Uiso   1.00
N133   N     0.73651   0.61428   0.78359   0.00000  Uiso   1.00
N134   N     0.38003   0.28435   0.97440   0.00000  Uiso   1.00
N135   N     0.86967   0.47921   0.09230   0.00000  Uiso   1.00
N136   N     0.87002   0.55435   0.72772   0.00000  Uiso   1.00
N137   N     0.51354   0.22443   0.91853   0.00000  Uiso   1.00
N138   N     0.00317   0.41929   0.03642   0.00000  Uiso   1.00
C139   C     0.15036   0.96458   0.95500   0.00000  Uiso   1.00
C140   C     0.20674   0.99120   0.89411   0.00000  Uiso   1.00
C141   C     0.17977   0.04695   0.87404   0.00000  Uiso   1.00
C142   C     0.24116   0.06310   0.81694   0.00000  Uiso   1.00
C143   C     0.31570   0.11023   0.72781   0.00000  Uiso   1.00
C144   C     0.10848   0.90027   0.94669   0.00000  Uiso   1.00
C145   C     0.99890   0.87957   0.97083   0.00000  Uiso   1.00
C146   C     0.97759   0.81917   0.95800   0.00000  Uiso   1.00
C147   C     0.89960   0.72512   0.95053   0.00000  Uiso   1.00
C148   C     0.24343   0.95398   0.97918   0.00000  Uiso   1.00
C149   C     0.24731   0.97843   0.03064   0.00000  Uiso   1.00
C150   C     0.33961   0.96324   0.04517   0.00000  Uiso   1.00
C151   C     0.47114   0.95259   0.08814   0.00000  Uiso   1.00
C152   C     0.30736   0.89411   0.88930   0.00000  Uiso   1.00
C153   C     0.29201   0.95292   0.85843   0.00000  Uiso   1.00
C154   C     0.35347   0.96898   0.80134   0.00000  Uiso   1.00
C155   C     0.32659   0.02475   0.78118   0.00000  Uiso   1.00
C156   C     0.19376   0.86199   0.91100   0.00000  Uiso   1.00
C157   C     0.17261   0.80161   0.89814   0.00000  Uiso   1.00
C158   C     0.06302   0.78082   0.92224   0.00000  Uiso   1.00
C159   C     0.32871   0.91571   0.94349   0.00000  Uiso   1.00
C160   C     0.42102   0.90047   0.95794   0.00000  Uiso   1.00
C161   C     0.42504   0.92489   0.00942   0.00000  Uiso   1.00
H162   H     0.08396   0.99438   0.98279   0.00000  Uiso   1.00
H163   H     0.11376   0.07656   0.90167   0.00000  Uiso   1.00
H164   H     0.93293   0.90920   0.99845   0.00000  Uiso   1.00
H165   H     0.18130   0.00805   0.05825   0.00000  Uiso   1.00
H166   H     0.18437   0.15078   0.79598   0.00000  Uiso   1.00
H167   H     0.80309   0.79789   0.00007   0.00000  Uiso   1.00
H168   H     0.32683   0.00633   0.12617   0.00000  Uiso   1.00
H169   H     0.37375   0.86431   0.86151   0.00000  Uiso   1.00
H170   H     0.41946   0.93935   0.77373   0.00000  Uiso   1.00
H171   H     0.23862   0.77200   0.87052   0.00000  Uiso   1.00
H172   H     0.48699   0.87084   0.93032   0.00000  Uiso   1.00
H173   H     0.43248   0.03942   0.69215   0.00000  Uiso   1.00
H174   H     0.05120   0.68653   0.89624   0.00000  Uiso   1.00
H175   H     0.57494   0.89497   0.02233   0.00000  Uiso   1.00
O176   O     0.33324   0.14680   0.68850   0.00000  Uiso   1.00
O177   O     0.83302   0.68383   0.95627   0.00000  Uiso   1.00
O178   O     0.52015   0.95729   0.12170   0.00000  Uiso   1.00
N179   N     0.23651   0.11428   0.78359   0.00000  Uiso   1.00
N180   N     0.88003   0.78435   0.97440   0.00000  Uiso   1.00
N181   N     0.36967   0.97921   0.09230   0.00000  Uiso   1.00
N182   N     0.37002   0.05435   0.72772   0.00000  Uiso   1.00
N183   N     0.01354   0.72443   0.91853   0.00000  Uiso   1.00
N184   N     0.50317   0.91929   0.03642   0.00000  Uiso   1.00
C185   C     0.65036   0.53542   0.45500   0.00000  Uiso   1.00
C186   C     0.70674   0.50880   0.39411   0.00000  Uiso   1.00
C187   C     0.67977   0.45305   0.37404   0.00000  Uiso   1.00
C188   C     0.74116   0.43690   0.31694   0.00000  Uiso   1.00
C189   C     0.81570   0.38977   0.22781   0.00000  Uiso   1.00
C190   C     0.60848   0.59973   0.44669   0.00000  Uiso   1.00
C191   C     0.49890   0.62043   0.47083   0.00000  Uiso   1.00
C192   C     0.47759   0.68083   0.45800   0.00000  Uiso   1.00
C193   C     0.39960   0.77488   0.45053   0.00000  Uiso   1.00
C194   C     0.74343   0.54602   0.47918   0.00000  Uiso   1.00
C195   C     0.74731   0.52157   0.53064   0.00000  Uiso   1.00
C196   C     0.83961   0.53676   0.54517   0.00000  Uiso   1.00
C197   C     0.97114   0.54741   0.58814   0.00000  Uiso   1.00
C198   C     0.80736   0.60589   0.38930   0.00000  Uiso   1.00
C199   C     0.79201   0.54708   0.35843   0.00000  Uiso   1.00
C200   C     0.85347   0.53102   0.30134   0.00000  Uiso   1.00
C201   C     0.82659   0.47525   0.28118   0.00000  Uiso   1.00
C202   C     0.69376   0.63801   0.41100   0.00000  Uiso   1.00
C203   C     0.67261   0.69839   0.39814   0.00000  Uiso   1.00
C204   C     0.56302   0.71918   0.42224   0.00000  Uiso   1.00
C205   C     0.82871   0.58429   0.44349   0.00000  Uiso   1.00
C206   C     0.92102   0.59953   0.45794   0.00000  Uiso   1.00
C207   C     0.92504   0.57511   0.50942   0.00000  Uiso   1.00
H208   H     0.58396   0.50562   0.48279   0.00000  Uiso   1.00
H209   H     0.61376   0.42344   0.40167   0.00000  Uiso   1.00
H210   H     0.43293   0.59080   0.49845   0.00000  Uiso   1.00
H211   H     0.68130   0.49195   0.55825   0.00000  Uiso   1.00
H212   H     0.68437   0.34922   0.29598   0.00000  Uiso   1.00
H213   H     0.30309   0.70211   0.50007   0.00000  Uiso   1.00
H214   H     0.82683   0.49367   0.62617   0.00000  Uiso   1.00
H215   H     0.87375   0.63569   0.36151   0.00000  Uiso   1.00
H216   H     0.91946   0.56065   0.27373   0.00000  Uiso   1.00
H217   H     0.73862   0.72800   0.37052   0.00000  Uiso   1.00
H218   H     0.98699   0.62916   0.43032   0.00000  Uiso   1.00
H219   H     0.93248   0.46058   0.19215   0.00000  Uiso   1.00
H220   H     0.55120   0.81347   0.39624   0.00000  Uiso   1.00
H221   H     0.07494   0.60503   0.52233   0.00000  Uiso   1.00
O222   O     0.83324   0.35320   0.18850   0.00000  Uiso   1.00
O223   O     0.33302   0.81617   0.45627   0.00000  Uiso   1.00
O224   O     0.02015   0.54271   0.62170   0.00000  Uiso   1.00
N225   N     0.73651   0.38572   0.28359   0.00000  Uiso   1.00
N226   N     0.38003   0.71565   0.47440   0.00000  Uiso   1.00
N227   N     0.86967   0.52079   0.59230   0.00000  Uiso   1.00
N228   N     0.87002   0.44565   0.22772   0.00000  Uiso   1.00
N229   N     0.51354   0.77557   0.41853   0.00000  Uiso   1.00
N230   N     0.00317   0.58071   0.53642   0.00000  Uiso   1.00
C231   C     0.15036   0.03542   0.45500   0.00000  Uiso   1.00
C232   C     0.20674   0.00880   0.39411   0.00000  Uiso   1.00
C233   C     0.17977   0.95305   0.37404   0.00000  Uiso   1.00
C234   C     0.24116   0.93690   0.31694   0.00000  Uiso   1.00
C235   C     0.31570   0.88977   0.22781   0.00000  Uiso   1.00
C236   C     0.10848   0.09973   0.44669   0.00000  Uiso   1.00
C237   C     0.99890   0.12043   0.47083   0.00000  Uiso   1.00
C238   C     0.97759   0.18083   0.45800   0.00000  Uiso   1.00
C239   C     0.89960   0.27488   0.45053   0.00000  Uiso   1.00
C240   C     0.24343   0.04602   0.47918   0.00000  Uiso   1.00
C241   C     0.24731   0.02157   0.53064   0.00000  Uiso   1.00
C242   C     0.33961   0.03676   0.54517   0.00000  Uiso   1.00
C243   C     0.47114   0.04741   0.58814   0.00000  Uiso   1.00
C244   C     0.30736   0.10589   0.38930   0.00000  Uiso   1.00
C245   C     0.29201   0.04708   0.35843   0.00000  Uiso   1.00
C246   C     0.35347   0.03102   0.30134   0.00000  Uiso   1.00
C247   C     0.32659   0.97525   0.28118   0.00000  Uiso   1.00
C248   C     0.19376   0.13801   0.41100   0.00000  Uiso   1.00
C249   C     0.17261   0.19839   0.39814   0.00000  Uiso   1.00
C250   C     0.06302   0.21918   0.42224   0.00000  Uiso   1.00
C251   C     0.32871   0.08429   0.44349   0.00000  Uiso   1.00
C252   C     0.42102   0.09953   0.45794   0.00000  Uiso   1.00
C253   C     0.42504   0.07511   0.50942   0.00000  Uiso   1.00
H254   H     0.08396   0.00562   0.48279   0.00000  Uiso   1.00
H255   H     0.11376   0.92344   0.40167   0.00000  Uiso   1.00
H256   H     0.93293   0.09080   0.49845   0.00000  Uiso   1.00
H257   H     0.18130   0.99195   0.55825   0.00000  Uiso   1.00
H258   H     0.18437   0.84922   0.29598   0.00000  Uiso   1.00
H259   H     0.80309   0.20211   0.50007   0.00000  Uiso   1.00
H260   H     0.32683   0.99367   0.62617   0.00000  Uiso   1.00
H261   H     0.37375   0.13569   0.36151   0.00000  Uiso   1.00
H262   H     0.41946   0.06065   0.27373   0.00000  Uiso   1.00
H263   H     0.23862   0.22800   0.37052   0.00000  Uiso   1.00
H264   H     0.48699   0.12916   0.43032   0.00000  Uiso   1.00
H265   H     0.43248   0.96058   0.19215   0.00000  Uiso   1.00
H266   H     0.05120   0.31347   0.39624   0.00000  Uiso   1.00
H267   H     0.57494   0.10503   0.52233   0.00000  Uiso   1.00
O268   O     0.33324   0.85320   0.18850   0.00000  Uiso   1.00
O269   O     0.83302   0.31617   0.45627   0.00000  Uiso   1.00
O270   O     0.52015   0.04271   0.62170   0.00000  Uiso   1.00
N271   N     0.23651   0.88572   0.28359   0.00000  Uiso   1.00
N272   N     0.88003   0.21565   0.47440   0.00000  Uiso   1.00
N273   N     0.36967   0.02079   0.59230   0.00000  Uiso   1.00
N274   N     0.37002   0.94565   0.22772   0.00000  Uiso   1.00
N275   N     0.01354   0.27557   0.41853   0.00000  Uiso   1.00
N276   N     0.50317   0.08071   0.53642   0.00000  Uiso   1.00
C277   C     0.34964   0.53542   0.04500   0.00000  Uiso   1.00
C278   C     0.29326   0.50880   0.10589   0.00000  Uiso   1.00
C279   C     0.32023   0.45305   0.12596   0.00000  Uiso   1.00
C280   C     0.25884   0.43690   0.18306   0.00000  Uiso   1.00
C281   C     0.18430   0.38977   0.27219   0.00000  Uiso   1.00
C282   C     0.39152   0.59973   0.05331   0.00000  Uiso   1.00
C283   C     0.50110   0.62043   0.02917   0.00000  Uiso   1.00
C284   C     0.52241   0.68083   0.04200   0.00000  Uiso   1.00
C285   C     0.60040   0.77488   0.04947   0.00000  Uiso   1.00
C286   C     0.25657   0.54602   0.02082   0.00000  Uiso   1.00
C287   C     0.25269   0.52157   0.96936   0.00000  Uiso   1.00
C288   C     0.16039   0.53676   0.95483   0.00000  Uiso   1.00
C289   C     0.02886   0.54741   0.91186   0.00000  Uiso   1.00
C290   C     0.19264   0.60589   0.11070   0.00000  Uiso   1.00
C291   C     0.20799   0.54708   0.14157   0.00000  Uiso   1.00
C292   C     0.14653   0.53102   0.19866   0.00000  Uiso   1.00
C293   C     0.17341   0.47525   0.21882   0.00000  Uiso   1.00
C294   C     0.30624   0.63801   0.08900   0.00000  Uiso   1.00
C295   C     0.32739   0.69839   0.10186   0.00000  Uiso   1.00
C296   C     0.43698   0.71918   0.07776   0.00000  Uiso   1.00
C297   C     0.17129   0.58429   0.05651   0.00000  Uiso   1.00
C298   C     0.07898   0.59953   0.04206   0.00000  Uiso   1.00
C299   C     0.07496   0.57511   0.99058   0.00000  Uiso   1.00
H300   H     0.41604   0.50562   0.01721   0.00000  Uiso   1.00
H301   H     0.38624   0.42344   0.09833   0.00000  Uiso   1.00
H302   H     0.56707   0.59080   0.00155   0.00000  Uiso   1.00
H303   H     0.31870   0.49195   0.94175   0.00000  Uiso   1.00
H304   H     0.31563   0.34922   0.20402   0.00000  Uiso   1.00
H305   H     0.69691   0.70211   0.99993   0.00000  Uiso   1.00
H306   H     0.17317   0.49367   0.87383   0.00000  Uiso   1.00
H307   H     0.12625   0.63569   0.13849   0.00000  Uiso   1.00
H308   H     0.08054   0.56065   0.22627   0.00000  Uiso   1.00
H309   H     0.26138   0.72800   0.12948   0.00000  Uiso   1.00
H310   H     0.01301   0.62916   0.06968   0.00000  Uiso   1.00
H311   H     0.06752   0.46058   0.30785   0.00000  Uiso   1.00
H312   H     0.44880   0.81347   0.10376   0.00000  Uiso   1.00
H313   H     0.92506   0.60503   0.97767   0.00000  Uiso   1.00
O314   O     0.16676   0.35320   0.31150   0.00000  Uiso   1.00
O315   O     0.66698   0.81617   0.04373   0.00000  Uiso   1.00
O316   O     0.97985   0.54271   0.87830   0.00000  Uiso   1.00
N317   N     0.26349   0.38572   0.21641   0.00000  Uiso   1.00
N318   N     0.61997   0.71565   0.02560   0.00000  Uiso   1.00
N319   N     0.13033   0.52079   0.90770   0.00000  Uiso   1.00
N320   N     0.12998   0.44565   0.27228   0.00000  Uiso   1.00
N321   N     0.48646   0.77557   0.08147   0.00000  Uiso   1.00
N322   N     0.99683   0.58071   0.96358   0.00000  Uiso   1.00
C323   C     0.84964   0.03542   0.04500   0.00000  Uiso   1.00
C324   C     0.79326   0.00880   0.10589   0.00000  Uiso   1.00
C325   C     0.82023   0.95305   0.12596   0.00000  Uiso   1.00
C326   C     0.75884   0.93690   0.18306   0.00000  Uiso   1.00
C327   C     0.68430   0.88977   0.27219   0.00000  Uiso   1.00
C328   C     0.89152   0.09973   0.05331   0.00000  Uiso   1.00
C329   C     0.00110   0.12043   0.02917   0.00000  Uiso   1.00
C330   C     0.02241   0.18083   0.04200   0.00000  Uiso   1.00
C331   C     0.10040   0.27488   0.04947   0.00000  Uiso   1.00
C332   C     0.75657   0.04602   0.02082   0.00000  Uiso   1.00
C333   C     0.75269   0.02157   0.96936   0.00000  Uiso   1.00
C334   C     0.66039   0.03676   0.95483   0.00000  Uiso   1.00
C335   C     0.52886   0.04741   0.91186   0.00000  Uiso   1.00
C336   C     0.69264   0.10589   0.11070   0.00000  Uiso   1.00
C337   C     0.70799   0.04708   0.14157   0.00000  Uiso   1.00
C338   C     0.64653   0.03102   0.19866   0.00000  Uiso   1.00
C339   C     0.67341   0.97525   0.21882   0.00000  Uiso   1.00
C340   C     0.80624   0.13801   0.08900   0.00000  Uiso   1.00
C341   C     0.82739   0.19839   0.10186   0.00000  Uiso   1.00
C342   C     0.93698   0.21918   0.07776   0.00000  Uiso   1.00
C343   C     0.67129   0.08429   0.05651   0.00000  Uiso   1.00
C344   C     0.57898   0.09953   0.04206   0.00000  Uiso   1.00
C345   C     0.57496   0.07511   0.99058   0.00000  Uiso   1.00
H346   H     0.91604   0.00562   0.01721   0.00000  Uiso   1.00
H347   H     0.88624   0.92344   0.09833   0.00000  Uiso   1.00
H348   H     0.06707   0.09080   0.00155   0.00000  Uiso   1.00
H349   H     0.81870   0.99195   0.94175   0.00000  Uiso   1.00
H350   H     0.81563   0.84922   0.20402   0.00000  Uiso   1.00
H351   H     0.19691   0.20211   0.99993   0.00000  Uiso   1.00
H352   H     0.67317   0.99367   0.87383   0.00000  Uiso   1.00
H353   H     0.62625   0.13569   0.13849   0.00000  Uiso   1.00
H354   H     0.58054   0.06065   0.22627   0.00000  Uiso   1.00
H355   H     0.76138   0.22800   0.12948   0.00000  Uiso   1.00
H356   H     0.51301   0.12916   0.06968   0.00000  Uiso   1.00
H357   H     0.56752   0.96058   0.30785   0.00000  Uiso   1.00
H358   H     0.94880   0.31347   0.10376   0.00000  Uiso   1.00
H359   H     0.42506   0.10503   0.97767   0.00000  Uiso   1.00
O360   O     0.66676   0.85320   0.31150   0.00000  Uiso   1.00
O361   O     0.16698   0.31617   0.04373   0.00000  Uiso   1.00
O362   O     0.47985   0.04271   0.87830   0.00000  Uiso   1.00
N363   N     0.76349   0.88572   0.21641   0.00000  Uiso   1.00
N364   N     0.11997   0.21565   0.02560   0.00000  Uiso   1.00
N365   N     0.63033   0.02079   0.90770   0.00000  Uiso   1.00
N366   N     0.62998   0.94565   0.27228   0.00000  Uiso   1.00
N367   N     0.98646   0.27557   0.08147   0.00000  Uiso   1.00
N368   N     0.49683   0.08071   0.96358   0.00000  Uiso   1.00
