data_job_00634
_audit_creation_date              2018-12-19
_audit_creation_method            'Materials Studio'
_symmetry_space_group_name_H-M    'P1'
_symmetry_Int_Tables_number       1
_symmetry_cell_setting            triclinic
loop_
_symmetry_equiv_pos_as_xyz
  x,y,z
_cell_length_a                    9.5192
_cell_length_b                    14.2482
_cell_length_c                    17.9646
_cell_angle_alpha                 90.0000
_cell_angle_beta                  105.5368
_cell_angle_gamma                 90.0000
loop_
_atom_site_label
_atom_site_type_symbol
_atom_site_fract_x
_atom_site_fract_y
_atom_site_fract_z
_atom_site_U_iso_or_equiv
_atom_site_adp_type
_atom_site_occupancy
C1     C     0.06503   0.95544   0.21745   0.00000  Uiso   1.00
C2     C     0.17892   0.03267   0.24214   0.00000  Uiso   1.00
C3     C     0.32350   0.02709   0.24031   0.00000  Uiso   1.00
C4     C     0.41023   0.10533   0.26535   0.00000  Uiso   1.00
C5     C     0.59561   0.21293   0.29979   0.00000  Uiso   1.00
C6     C     0.00602   0.93684   0.28705   0.00000  Uiso   1.00
C7     C     0.00521   0.85067   0.32296   0.00000  Uiso   1.00
C8     C     0.94638   0.84823   0.38579   0.00000  Uiso   1.00
C9     C     0.86322   0.80703   0.48991   0.00000  Uiso   1.00
C10    C     0.93952   0.99882   0.15587   0.00000  Uiso   1.00
C11    C     0.88278   0.96477   0.08149   0.00000  Uiso   1.00
C12    C     0.76793   0.01450   0.03388   0.00000  Uiso   1.00
C13    C     0.58153   0.06955   0.93432   0.00000  Uiso   1.00
C14    C     0.96195   0.10431   0.26517   0.00000  Uiso   1.00
C15    C     0.12293   0.11353   0.26807   0.00000  Uiso   1.00
C16    C     0.20946   0.19180   0.29312   0.00000  Uiso   1.00
C17    C     0.35415   0.18633   0.29132   0.00000  Uiso   1.00
C18    C     0.95003   0.01769   0.31297   0.00000  Uiso   1.00
C19    C     0.89117   0.01538   0.37576   0.00000  Uiso   1.00
C20    C     0.89029   0.92923   0.41176   0.00000  Uiso   1.00
C21    C     0.88353   0.07968   0.18179   0.00000  Uiso   1.00
C22    C     0.76874   0.12948   0.13429   0.00000  Uiso   1.00
C23    C     0.71184   0.09551   0.05985   0.00000  Uiso   1.00
H24    H     0.10861   0.89249   0.19727   0.00000  Uiso   1.00
H25    H     0.36679   0.96450   0.22025   0.00000  Uiso   1.00
H26    H     0.04853   0.78811   0.30288   0.00000  Uiso   1.00
H27    H     0.92613   0.90219   0.06145   0.00000  Uiso   1.00
H28    H     0.62835   0.07999   0.25719   0.00000  Uiso   1.00
H29    H     0.95725   0.70805   0.43140   0.00000  Uiso   1.00
H30    H     0.69912   0.94861   0.92229   0.00000  Uiso   1.00
H31    H     0.91836   0.16726   0.28536   0.00000  Uiso   1.00
H32    H     0.16610   0.25436   0.31318   0.00000  Uiso   1.00
H33    H     0.84785   0.07796   0.39581   0.00000  Uiso   1.00
H34    H     0.72544   0.19204   0.15437   0.00000  Uiso   1.00
H35    H     0.46547   0.31525   0.33262   0.00000  Uiso   1.00
H36    H     0.79436   0.94330   0.50682   0.00000  Uiso   1.00
H37    H     0.53624   0.18387   0.99771   0.00000  Uiso   1.00
O38    O     0.71333   0.24994   0.31164   0.00000  Uiso   1.00
O39    O     0.83284   0.76197   0.54018   0.00000  Uiso   1.00
O40    O     0.49420   0.07759   0.87224   0.00000  Uiso   1.00
N41    N     0.55601   0.12341   0.27111   0.00000  Uiso   1.00
N42    N     0.92859   0.77567   0.43399   0.00000  Uiso   1.00
N43    N     0.68724   0.00056   0.95802   0.00000  Uiso   1.00
N44    N     0.46836   0.25000   0.31170   0.00000  Uiso   1.00
N45    N     0.84094   0.90226   0.47458   0.00000  Uiso   1.00
N46    N     0.59959   0.12715   0.99861   0.00000  Uiso   1.00
C47    C     0.93497   0.45544   0.28255   0.00000  Uiso   1.00
C48    C     0.82108   0.53267   0.25786   0.00000  Uiso   1.00
C49    C     0.67650   0.52709   0.25969   0.00000  Uiso   1.00
C50    C     0.58977   0.60533   0.23465   0.00000  Uiso   1.00
C51    C     0.40439   0.71293   0.20021   0.00000  Uiso   1.00
C52    C     0.99398   0.43684   0.21295   0.00000  Uiso   1.00
C53    C     0.99479   0.35067   0.17704   0.00000  Uiso   1.00
C54    C     0.05362   0.34823   0.11421   0.00000  Uiso   1.00
C55    C     0.13678   0.30703   0.01009   0.00000  Uiso   1.00
C56    C     0.06048   0.49882   0.34413   0.00000  Uiso   1.00
C57    C     0.11722   0.46477   0.41851   0.00000  Uiso   1.00
C58    C     0.23207   0.51450   0.46612   0.00000  Uiso   1.00
C59    C     0.41847   0.56955   0.56568   0.00000  Uiso   1.00
C60    C     0.03805   0.60431   0.23483   0.00000  Uiso   1.00
C61    C     0.87707   0.61353   0.23193   0.00000  Uiso   1.00
C62    C     0.79054   0.69180   0.20688   0.00000  Uiso   1.00
C63    C     0.64585   0.68633   0.20868   0.00000  Uiso   1.00
C64    C     0.04997   0.51769   0.18703   0.00000  Uiso   1.00
C65    C     0.10883   0.51538   0.12424   0.00000  Uiso   1.00
C66    C     0.10971   0.42923   0.08824   0.00000  Uiso   1.00
C67    C     0.11647   0.57968   0.31821   0.00000  Uiso   1.00
C68    C     0.23126   0.62948   0.36571   0.00000  Uiso   1.00
C69    C     0.28816   0.59551   0.44015   0.00000  Uiso   1.00
H70    H     0.89139   0.39249   0.30273   0.00000  Uiso   1.00
H71    H     0.63321   0.46450   0.27975   0.00000  Uiso   1.00
H72    H     0.95147   0.28811   0.19712   0.00000  Uiso   1.00
H73    H     0.07387   0.40219   0.43855   0.00000  Uiso   1.00
H74    H     0.37165   0.57999   0.24281   0.00000  Uiso   1.00
H75    H     0.04275   0.20805   0.06860   0.00000  Uiso   1.00
H76    H     0.30088   0.44861   0.57771   0.00000  Uiso   1.00
H77    H     0.08164   0.66726   0.21464   0.00000  Uiso   1.00
H78    H     0.83390   0.75436   0.18682   0.00000  Uiso   1.00
H79    H     0.15215   0.57796   0.10419   0.00000  Uiso   1.00
H80    H     0.27456   0.69204   0.34563   0.00000  Uiso   1.00
H81    H     0.53453   0.81525   0.16738   0.00000  Uiso   1.00
H82    H     0.20564   0.44330   0.99318   0.00000  Uiso   1.00
H83    H     0.46376   0.68387   0.50229   0.00000  Uiso   1.00
O84    O     0.28667   0.74994   0.18836   0.00000  Uiso   1.00
O85    O     0.16716   0.26197   0.95982   0.00000  Uiso   1.00
O86    O     0.50580   0.57759   0.62776   0.00000  Uiso   1.00
N87    N     0.44399   0.62341   0.22889   0.00000  Uiso   1.00
N88    N     0.07141   0.27567   0.06601   0.00000  Uiso   1.00
N89    N     0.31276   0.50056   0.54198   0.00000  Uiso   1.00
N90    N     0.53164   0.75000   0.18830   0.00000  Uiso   1.00
N91    N     0.15906   0.40226   0.02542   0.00000  Uiso   1.00
N92    N     0.40041   0.62715   0.50139   0.00000  Uiso   1.00
C93    C     0.93497   0.04456   0.78255   0.00000  Uiso   1.00
C94    C     0.82108   0.96733   0.75786   0.00000  Uiso   1.00
C95    C     0.67650   0.97291   0.75969   0.00000  Uiso   1.00
C96    C     0.58977   0.89467   0.73465   0.00000  Uiso   1.00
C97    C     0.40439   0.78707   0.70021   0.00000  Uiso   1.00
C98    C     0.99398   0.06316   0.71295   0.00000  Uiso   1.00
C99    C     0.99479   0.14933   0.67704   0.00000  Uiso   1.00
C100   C     0.05362   0.15177   0.61421   0.00000  Uiso   1.00
C101   C     0.13678   0.19297   0.51009   0.00000  Uiso   1.00
C102   C     0.06048   0.00118   0.84413   0.00000  Uiso   1.00
C103   C     0.11722   0.03523   0.91851   0.00000  Uiso   1.00
C104   C     0.23207   0.98550   0.96612   0.00000  Uiso   1.00
C105   C     0.41847   0.93045   0.06568   0.00000  Uiso   1.00
C106   C     0.03805   0.89569   0.73483   0.00000  Uiso   1.00
C107   C     0.87707   0.88647   0.73193   0.00000  Uiso   1.00
C108   C     0.79054   0.80820   0.70688   0.00000  Uiso   1.00
C109   C     0.64585   0.81367   0.70868   0.00000  Uiso   1.00
C110   C     0.04997   0.98231   0.68703   0.00000  Uiso   1.00
C111   C     0.10883   0.98462   0.62424   0.00000  Uiso   1.00
C112   C     0.10971   0.07077   0.58824   0.00000  Uiso   1.00
C113   C     0.11647   0.92032   0.81821   0.00000  Uiso   1.00
C114   C     0.23126   0.87052   0.86571   0.00000  Uiso   1.00
C115   C     0.28816   0.90449   0.94015   0.00000  Uiso   1.00
H116   H     0.89139   0.10751   0.80273   0.00000  Uiso   1.00
H117   H     0.63321   0.03550   0.77975   0.00000  Uiso   1.00
H118   H     0.95147   0.21189   0.69712   0.00000  Uiso   1.00
H119   H     0.07387   0.09781   0.93855   0.00000  Uiso   1.00
H120   H     0.37165   0.92001   0.74281   0.00000  Uiso   1.00
H121   H     0.04275   0.29195   0.56860   0.00000  Uiso   1.00
H122   H     0.30088   0.05139   0.07771   0.00000  Uiso   1.00
H123   H     0.08164   0.83274   0.71464   0.00000  Uiso   1.00
H124   H     0.83390   0.74564   0.68682   0.00000  Uiso   1.00
H125   H     0.15215   0.92204   0.60419   0.00000  Uiso   1.00
H126   H     0.27456   0.80796   0.84563   0.00000  Uiso   1.00
H127   H     0.53453   0.68475   0.66738   0.00000  Uiso   1.00
H128   H     0.20564   0.05670   0.49318   0.00000  Uiso   1.00
H129   H     0.46376   0.81613   0.00229   0.00000  Uiso   1.00
O130   O     0.28667   0.75006   0.68836   0.00000  Uiso   1.00
O131   O     0.16716   0.23803   0.45982   0.00000  Uiso   1.00
O132   O     0.50580   0.92241   0.12776   0.00000  Uiso   1.00
N133   N     0.44399   0.87659   0.72889   0.00000  Uiso   1.00
N134   N     0.07141   0.22433   0.56601   0.00000  Uiso   1.00
N135   N     0.31276   0.99944   0.04198   0.00000  Uiso   1.00
N136   N     0.53164   0.75000   0.68830   0.00000  Uiso   1.00
N137   N     0.15906   0.09774   0.52542   0.00000  Uiso   1.00
N138   N     0.40041   0.87285   0.00139   0.00000  Uiso   1.00
C139   C     0.06503   0.54456   0.71745   0.00000  Uiso   1.00
C140   C     0.17892   0.46733   0.74214   0.00000  Uiso   1.00
C141   C     0.32350   0.47291   0.74031   0.00000  Uiso   1.00
C142   C     0.41023   0.39467   0.76535   0.00000  Uiso   1.00
C143   C     0.59561   0.28707   0.79979   0.00000  Uiso   1.00
C144   C     0.00602   0.56316   0.78705   0.00000  Uiso   1.00
C145   C     0.00521   0.64933   0.82296   0.00000  Uiso   1.00
C146   C     0.94638   0.65177   0.88579   0.00000  Uiso   1.00
C147   C     0.86322   0.69297   0.98991   0.00000  Uiso   1.00
C148   C     0.93952   0.50118   0.65587   0.00000  Uiso   1.00
C149   C     0.88278   0.53523   0.58149   0.00000  Uiso   1.00
C150   C     0.76793   0.48550   0.53388   0.00000  Uiso   1.00
C151   C     0.58153   0.43045   0.43432   0.00000  Uiso   1.00
C152   C     0.96195   0.39569   0.76517   0.00000  Uiso   1.00
C153   C     0.12293   0.38647   0.76807   0.00000  Uiso   1.00
C154   C     0.20946   0.30820   0.79312   0.00000  Uiso   1.00
C155   C     0.35415   0.31367   0.79132   0.00000  Uiso   1.00
C156   C     0.95003   0.48231   0.81297   0.00000  Uiso   1.00
C157   C     0.89117   0.48462   0.87576   0.00000  Uiso   1.00
C158   C     0.89029   0.57077   0.91176   0.00000  Uiso   1.00
C159   C     0.88353   0.42032   0.68179   0.00000  Uiso   1.00
C160   C     0.76874   0.37052   0.63429   0.00000  Uiso   1.00
C161   C     0.71184   0.40449   0.55985   0.00000  Uiso   1.00
H162   H     0.10861   0.60751   0.69727   0.00000  Uiso   1.00
H163   H     0.36679   0.53550   0.72025   0.00000  Uiso   1.00
H164   H     0.04853   0.71189   0.80288   0.00000  Uiso   1.00
H165   H     0.92613   0.59781   0.56145   0.00000  Uiso   1.00
H166   H     0.62835   0.42001   0.75719   0.00000  Uiso   1.00
H167   H     0.95725   0.79195   0.93140   0.00000  Uiso   1.00
H168   H     0.69912   0.55139   0.42229   0.00000  Uiso   1.00
H169   H     0.91836   0.33274   0.78536   0.00000  Uiso   1.00
H170   H     0.16610   0.24564   0.81318   0.00000  Uiso   1.00
H171   H     0.84785   0.42204   0.89581   0.00000  Uiso   1.00
H172   H     0.72544   0.30796   0.65437   0.00000  Uiso   1.00
H173   H     0.46547   0.18475   0.83262   0.00000  Uiso   1.00
H174   H     0.79436   0.55670   0.00682   0.00000  Uiso   1.00
H175   H     0.53624   0.31613   0.49771   0.00000  Uiso   1.00
O176   O     0.71333   0.25006   0.81164   0.00000  Uiso   1.00
O177   O     0.83284   0.73803   0.04018   0.00000  Uiso   1.00
O178   O     0.49420   0.42241   0.37224   0.00000  Uiso   1.00
N179   N     0.55601   0.37659   0.77111   0.00000  Uiso   1.00
N180   N     0.92859   0.72433   0.93399   0.00000  Uiso   1.00
N181   N     0.68724   0.49944   0.45802   0.00000  Uiso   1.00
N182   N     0.46836   0.25000   0.81170   0.00000  Uiso   1.00
N183   N     0.84094   0.59774   0.97458   0.00000  Uiso   1.00
N184   N     0.59959   0.37285   0.49861   0.00000  Uiso   1.00
