data_job_06186
_audit_creation_date              2018-12-19
_audit_creation_method            'Materials Studio'
_symmetry_space_group_name_H-M    'P1'
_symmetry_Int_Tables_number       1
_symmetry_cell_setting            triclinic
loop_
_symmetry_equiv_pos_as_xyz
  x,y,z
_cell_length_a                    16.7006
_cell_length_b                    16.5036
_cell_length_c                    16.1159
_cell_angle_alpha                 90.3765
_cell_angle_beta                  90.4337
_cell_angle_gamma                 90.0108
loop_
_atom_site_label
_atom_site_type_symbol
_atom_site_fract_x
_atom_site_fract_y
_atom_site_fract_z
_atom_site_U_iso_or_equiv
_atom_site_adp_type
_atom_site_occupancy
C1     C     0.21058   0.51205   0.03969   0.00000  Uiso   1.00
C2     C     0.16389   0.44156   0.00139   0.00000  Uiso   1.00
C3     C     0.08443   0.42278   0.01696   0.00000  Uiso   1.00
C4     C     0.05267   0.35583   0.97578   0.00000  Uiso   1.00
C5     C     0.97318   0.25340   0.92468   0.00000  Uiso   1.00
C6     C     0.28392   0.47478   0.08146   0.00000  Uiso   1.00
C7     C     0.30539   0.48394   0.16436   0.00000  Uiso   1.00
C8     C     0.37468   0.44496   0.19057   0.00000  Uiso   1.00
C9     C     0.48157   0.39417   0.26377   0.00000  Uiso   1.00
C10    C     0.24210   0.56123   0.96711   0.00000  Uiso   1.00
C11    C     0.22841   0.64309   0.95387   0.00000  Uiso   1.00
C12    C     0.26250   0.67690   0.88382   0.00000  Uiso   1.00
C13    C     0.30444   0.76032   0.77947   0.00000  Uiso   1.00
C14    C     0.29547   0.42655   0.93885   0.00000  Uiso   1.00
C15    C     0.21000   0.39511   0.94662   0.00000  Uiso   1.00
C16    C     0.17835   0.32817   0.90540   0.00000  Uiso   1.00
C17    C     0.09886   0.30930   0.92091   0.00000  Uiso   1.00
C18    C     0.33003   0.42833   0.02669   0.00000  Uiso   1.00
C19    C     0.39931   0.38934   0.05279   0.00000  Uiso   1.00
C20    C     0.42087   0.39844   0.13570   0.00000  Uiso   1.00
C21    C     0.28820   0.51478   0.91234   0.00000  Uiso   1.00
C22    C     0.32233   0.54848   0.84230   0.00000  Uiso   1.00
C23    C     0.30869   0.63037   0.82895   0.00000  Uiso   1.00
H24    H     0.17469   0.54821   0.08233   0.00000  Uiso   1.00
H25    H     0.04877   0.45873   0.05936   0.00000  Uiso   1.00
H26    H     0.26970   0.51989   0.20672   0.00000  Uiso   1.00
H27    H     0.19273   0.67901   0.99626   0.00000  Uiso   1.00
H28    H     0.92952   0.33902   0.00976   0.00000  Uiso   1.00
H29    H     0.39537   0.46801   0.32048   0.00000  Uiso   1.00
H30    H     0.23306   0.80354   0.87669   0.00000  Uiso   1.00
H31    H     0.33137   0.39039   0.89621   0.00000  Uiso   1.00
H32    H     0.21405   0.29224   0.86302   0.00000  Uiso   1.00
H33    H     0.43498   0.35341   0.01039   0.00000  Uiso   1.00
H34    H     0.35800   0.51252   0.79993   0.00000  Uiso   1.00
H35    H     0.06366   0.20389   0.85041   0.00000  Uiso   1.00
H36    H     0.52952   0.33289   0.16113   0.00000  Uiso   1.00
H37    H     0.36720   0.66841   0.71733   0.00000  Uiso   1.00
O38    O     0.91660   0.20973   0.91163   0.00000  Uiso   1.00
O39    O     0.52778   0.37897   0.31928   0.00000  Uiso   1.00
O40    O     0.31483   0.81917   0.73703   0.00000  Uiso   1.00
N41    N     0.97718   0.32070   0.97680   0.00000  Uiso   1.00
N42    N     0.41272   0.44129   0.26731   0.00000  Uiso   1.00
N43    N     0.26099   0.75498   0.85241   0.00000  Uiso   1.00
N44    N     0.04937   0.24799   0.89105   0.00000  Uiso   1.00
N45    N     0.48491   0.36857   0.18156   0.00000  Uiso   1.00
N46    N     0.33317   0.68227   0.76666   0.00000  Uiso   1.00
C47    C     0.03872   0.20946   0.51624   0.00000  Uiso   1.00
C48    C     0.00227   0.16209   0.44370   0.00000  Uiso   1.00
C49    C     0.01786   0.08162   0.42421   0.00000  Uiso   1.00
C50    C     0.97851   0.04936   0.35535   0.00000  Uiso   1.00
C51    C     0.93000   0.96873   0.24993   0.00000  Uiso   1.00
C52    C     0.07868   0.28355   0.47853   0.00000  Uiso   1.00
C53    C     0.15852   0.30521   0.48834   0.00000  Uiso   1.00
C54    C     0.18349   0.37521   0.44881   0.00000  Uiso   1.00
C55    C     0.25360   0.48318   0.39752   0.00000  Uiso   1.00
C56    C     0.96835   0.24154   0.56643   0.00000  Uiso   1.00
C57    C     0.95541   0.22790   0.65015   0.00000  Uiso   1.00
C58    C     0.88749   0.26254   0.68464   0.00000  Uiso   1.00
C59    C     0.78629   0.30528   0.76983   0.00000  Uiso   1.00
C60    C     0.94113   0.29526   0.42863   0.00000  Uiso   1.00
C61    C     0.94926   0.20870   0.39611   0.00000  Uiso   1.00
C62    C     0.90988   0.17655   0.32727   0.00000  Uiso   1.00
C63    C     0.92540   0.09605   0.30768   0.00000  Uiso   1.00
C64    C     0.02568   0.33016   0.43095   0.00000  Uiso   1.00
C65    C     0.05054   0.40014   0.39140   0.00000  Uiso   1.00
C66    C     0.13039   0.42190   0.40114   0.00000  Uiso   1.00
C67    C     0.91533   0.28814   0.51885   0.00000  Uiso   1.00
C68    C     0.84743   0.32282   0.55321   0.00000  Uiso   1.00
C69    C     0.83439   0.30923   0.63696   0.00000  Uiso   1.00
H70    H     0.08000   0.17318   0.55329   0.00000  Uiso   1.00
H71    H     0.05889   0.04558   0.46104   0.00000  Uiso   1.00
H72    H     0.19952   0.26914   0.52517   0.00000  Uiso   1.00
H73    H     0.99644   0.19183   0.68696   0.00000  Uiso   1.00
H74    H     0.01213   0.92467   0.33777   0.00000  Uiso   1.00
H75    H     0.30866   0.39607   0.47301   0.00000  Uiso   1.00
H76    H     0.88043   0.23305   0.81417   0.00000  Uiso   1.00
H77    H     0.89986   0.33155   0.39157   0.00000  Uiso   1.00
H78    H     0.86886   0.21263   0.29046   0.00000  Uiso   1.00
H79    H     0.00950   0.43619   0.35459   0.00000  Uiso   1.00
H80    H     0.80642   0.35888   0.51637   0.00000  Uiso   1.00
H81    H     0.85790   0.06026   0.19931   0.00000  Uiso   1.00
H82    H     0.15443   0.53166   0.33456   0.00000  Uiso   1.00
H83    H     0.72620   0.36864   0.67572   0.00000  Uiso   1.00
O84    O     0.91790   0.91139   0.20493   0.00000  Uiso   1.00
O85    O     0.30692   0.52986   0.38237   0.00000  Uiso   1.00
O86    O     0.74510   0.31597   0.82996   0.00000  Uiso   1.00
N87    N     0.98008   0.97289   0.31907   0.00000  Uiso   1.00
N88    N     0.25731   0.41362   0.44551   0.00000  Uiso   1.00
N89    N     0.85697   0.26123   0.76447   0.00000  Uiso   1.00
N90    N     0.89709   0.04585   0.24457   0.00000  Uiso   1.00
N91    N     0.17432   0.48658   0.37100   0.00000  Uiso   1.00
N92    N     0.77398   0.33419   0.68996   0.00000  Uiso   1.00
C93    C     0.50960   0.03864   0.20730   0.00000  Uiso   1.00
C94    C     0.43997   0.00172   0.15836   0.00000  Uiso   1.00
C95    C     0.42130   0.01732   0.07594   0.00000  Uiso   1.00
C96    C     0.35519   0.97750   0.04247   0.00000  Uiso   1.00
C97    C     0.25401   0.92833   0.95929   0.00000  Uiso   1.00
C98    C     0.47275   0.07929   0.28319   0.00000  Uiso   1.00
C99    C     0.48164   0.16012   0.30574   0.00000  Uiso   1.00
C100   C     0.44313   0.18559   0.37737   0.00000  Uiso   1.00
C101   C     0.39288   0.25685   0.48802   0.00000  Uiso   1.00
C102   C     0.55839   0.96745   0.24007   0.00000  Uiso   1.00
C103   C     0.63930   0.95424   0.22637   0.00000  Uiso   1.00
C104   C     0.67291   0.88556   0.26171   0.00000  Uiso   1.00
C105   C     0.75563   0.78316   0.30540   0.00000  Uiso   1.00
C106   C     0.42542   0.94017   0.29442   0.00000  Uiso   1.00
C107   C     0.39425   0.94823   0.20568   0.00000  Uiso   1.00
C108   C     0.32816   0.90837   0.17232   0.00000  Uiso   1.00
C109   C     0.30939   0.92391   0.08987   0.00000  Uiso   1.00
C110   C     0.42702   0.02581   0.33051   0.00000  Uiso   1.00
C111   C     0.38850   0.05117   0.40212   0.00000  Uiso   1.00
C112   C     0.39732   0.13201   0.42477   0.00000  Uiso   1.00
C113   C     0.51267   0.91396   0.28738   0.00000  Uiso   1.00
C114   C     0.54616   0.84529   0.32275   0.00000  Uiso   1.00
C115   C     0.62710   0.83198   0.30911   0.00000  Uiso   1.00
H116   H     0.54520   0.08029   0.17047   0.00000  Uiso   1.00
H117   H     0.45670   0.05872   0.03935   0.00000  Uiso   1.00
H118   H     0.51703   0.20149   0.26912   0.00000  Uiso   1.00
H119   H     0.67467   0.99564   0.18976   0.00000  Uiso   1.00
H120   H     0.33839   0.01125   0.91485   0.00000  Uiso   1.00
H121   H     0.46564   0.31228   0.39934   0.00000  Uiso   1.00
H122   H     0.79804   0.87822   0.23200   0.00000  Uiso   1.00
H123   H     0.38982   0.89853   0.33126   0.00000  Uiso   1.00
H124   H     0.29278   0.86699   0.20896   0.00000  Uiso   1.00
H125   H     0.35312   0.00976   0.43873   0.00000  Uiso   1.00
H126   H     0.51076   0.80392   0.35936   0.00000  Uiso   1.00
H127   H     0.20535   0.85563   0.05251   0.00000  Uiso   1.00
H128   H     0.33260   0.15667   0.53701   0.00000  Uiso   1.00
H129   H     0.66500   0.72260   0.36966   0.00000  Uiso   1.00
O130   O     0.21082   0.91599   0.90033   0.00000  Uiso   1.00
O131   O     0.37779   0.31093   0.53598   0.00000  Uiso   1.00
O132   O     0.81389   0.74145   0.31642   0.00000  Uiso   1.00
N133   N     0.32040   0.97894   0.96403   0.00000  Uiso   1.00
N134   N     0.43936   0.26039   0.41700   0.00000  Uiso   1.00
N135   N     0.75014   0.85459   0.26056   0.00000  Uiso   1.00
N136   N     0.24881   0.89520   0.03810   0.00000  Uiso   1.00
N137   N     0.36778   0.17665   0.49107   0.00000  Uiso   1.00
N138   N     0.67855   0.77085   0.33463   0.00000  Uiso   1.00
C139   C     0.78942   0.48795   0.96031   0.00000  Uiso   1.00
C140   C     0.83611   0.55844   0.99861   0.00000  Uiso   1.00
C141   C     0.91557   0.57722   0.98304   0.00000  Uiso   1.00
C142   C     0.94733   0.64417   0.02422   0.00000  Uiso   1.00
C143   C     0.02682   0.74660   0.07532   0.00000  Uiso   1.00
C144   C     0.71608   0.52522   0.91854   0.00000  Uiso   1.00
C145   C     0.69461   0.51606   0.83564   0.00000  Uiso   1.00
C146   C     0.62532   0.55504   0.80943   0.00000  Uiso   1.00
C147   C     0.51843   0.60583   0.73623   0.00000  Uiso   1.00
C148   C     0.75790   0.43877   0.03289   0.00000  Uiso   1.00
C149   C     0.77159   0.35691   0.04613   0.00000  Uiso   1.00
C150   C     0.73750   0.32310   0.11618   0.00000  Uiso   1.00
C151   C     0.69556   0.23968   0.22053   0.00000  Uiso   1.00
C152   C     0.70453   0.57345   0.06115   0.00000  Uiso   1.00
C153   C     0.79000   0.60489   0.05338   0.00000  Uiso   1.00
C154   C     0.82165   0.67183   0.09460   0.00000  Uiso   1.00
C155   C     0.90114   0.69070   0.07909   0.00000  Uiso   1.00
C156   C     0.66997   0.57167   0.97331   0.00000  Uiso   1.00
C157   C     0.60069   0.61066   0.94721   0.00000  Uiso   1.00
C158   C     0.57913   0.60156   0.86430   0.00000  Uiso   1.00
C159   C     0.71180   0.48522   0.08766   0.00000  Uiso   1.00
C160   C     0.67767   0.45152   0.15770   0.00000  Uiso   1.00
C161   C     0.69131   0.36963   0.17105   0.00000  Uiso   1.00
H162   H     0.82531   0.45179   0.91767   0.00000  Uiso   1.00
H163   H     0.95123   0.54127   0.94064   0.00000  Uiso   1.00
H164   H     0.73030   0.48011   0.79328   0.00000  Uiso   1.00
H165   H     0.80727   0.32099   0.00374   0.00000  Uiso   1.00
H166   H     0.07048   0.66098   0.99024   0.00000  Uiso   1.00
H167   H     0.60463   0.53199   0.67952   0.00000  Uiso   1.00
H168   H     0.76694   0.19646   0.12331   0.00000  Uiso   1.00
H169   H     0.66863   0.60961   0.10379   0.00000  Uiso   1.00
H170   H     0.78595   0.70776   0.13698   0.00000  Uiso   1.00
H171   H     0.56502   0.64659   0.98961   0.00000  Uiso   1.00
H172   H     0.64200   0.48748   0.20007   0.00000  Uiso   1.00
H173   H     0.93634   0.79611   0.14959   0.00000  Uiso   1.00
H174   H     0.47048   0.66711   0.83887   0.00000  Uiso   1.00
H175   H     0.63280   0.33159   0.28267   0.00000  Uiso   1.00
O176   O     0.08340   0.79027   0.08837   0.00000  Uiso   1.00
O177   O     0.47222   0.62103   0.68072   0.00000  Uiso   1.00
O178   O     0.68517   0.18083   0.26297   0.00000  Uiso   1.00
N179   N     0.02281   0.67930   0.02320   0.00000  Uiso   1.00
N180   N     0.58728   0.55871   0.73269   0.00000  Uiso   1.00
N181   N     0.73901   0.24502   0.14759   0.00000  Uiso   1.00
N182   N     0.95063   0.75201   0.10895   0.00000  Uiso   1.00
N183   N     0.51509   0.63143   0.81844   0.00000  Uiso   1.00
N184   N     0.66683   0.31773   0.23334   0.00000  Uiso   1.00
C185   C     0.96128   0.79054   0.48376   0.00000  Uiso   1.00
C186   C     0.99773   0.83791   0.55630   0.00000  Uiso   1.00
C187   C     0.98214   0.91838   0.57579   0.00000  Uiso   1.00
C188   C     0.02149   0.95064   0.64465   0.00000  Uiso   1.00
C189   C     0.07000   0.03127   0.75007   0.00000  Uiso   1.00
C190   C     0.92132   0.71645   0.52147   0.00000  Uiso   1.00
C191   C     0.84148   0.69479   0.51166   0.00000  Uiso   1.00
C192   C     0.81651   0.62479   0.55119   0.00000  Uiso   1.00
C193   C     0.74640   0.51682   0.60247   0.00000  Uiso   1.00
C194   C     0.03165   0.75846   0.43357   0.00000  Uiso   1.00
C195   C     0.04459   0.77210   0.34985   0.00000  Uiso   1.00
C196   C     0.11251   0.73746   0.31536   0.00000  Uiso   1.00
C197   C     0.21371   0.69472   0.23017   0.00000  Uiso   1.00
C198   C     0.05887   0.70474   0.57137   0.00000  Uiso   1.00
C199   C     0.05074   0.79130   0.60389   0.00000  Uiso   1.00
C200   C     0.09012   0.82345   0.67273   0.00000  Uiso   1.00
C201   C     0.07460   0.90395   0.69232   0.00000  Uiso   1.00
C202   C     0.97432   0.66984   0.56905   0.00000  Uiso   1.00
C203   C     0.94946   0.59986   0.60860   0.00000  Uiso   1.00
C204   C     0.86961   0.57810   0.59886   0.00000  Uiso   1.00
C205   C     0.08467   0.71186   0.48115   0.00000  Uiso   1.00
C206   C     0.15257   0.67718   0.44679   0.00000  Uiso   1.00
C207   C     0.16561   0.69077   0.36303   0.00000  Uiso   1.00
H208   H     0.92000   0.82682   0.44671   0.00000  Uiso   1.00
H209   H     0.94111   0.95442   0.53896   0.00000  Uiso   1.00
H210   H     0.80048   0.73086   0.47483   0.00000  Uiso   1.00
H211   H     0.00356   0.80817   0.31304   0.00000  Uiso   1.00
H212   H     0.98787   0.07533   0.66223   0.00000  Uiso   1.00
H213   H     0.69134   0.60393   0.52698   0.00000  Uiso   1.00
H214   H     0.11957   0.76695   0.18583   0.00000  Uiso   1.00
H215   H     0.10014   0.66845   0.60843   0.00000  Uiso   1.00
H216   H     0.13114   0.78737   0.70954   0.00000  Uiso   1.00
H217   H     0.99050   0.56381   0.64541   0.00000  Uiso   1.00
H218   H     0.19358   0.64112   0.48363   0.00000  Uiso   1.00
H219   H     0.14210   0.93974   0.80069   0.00000  Uiso   1.00
H220   H     0.84557   0.46834   0.66544   0.00000  Uiso   1.00
H221   H     0.27380   0.63136   0.32428   0.00000  Uiso   1.00
O222   O     0.08210   0.08861   0.79507   0.00000  Uiso   1.00
O223   O     0.69308   0.47014   0.61763   0.00000  Uiso   1.00
O224   O     0.25490   0.68403   0.17004   0.00000  Uiso   1.00
N225   N     0.01992   0.02711   0.68093   0.00000  Uiso   1.00
N226   N     0.74269   0.58638   0.55449   0.00000  Uiso   1.00
N227   N     0.14303   0.73877   0.23553   0.00000  Uiso   1.00
N228   N     0.10291   0.95415   0.75543   0.00000  Uiso   1.00
N229   N     0.82568   0.51342   0.62900   0.00000  Uiso   1.00
N230   N     0.22602   0.66581   0.31004   0.00000  Uiso   1.00
C231   C     0.49040   0.96136   0.79269   0.00000  Uiso   1.00
C232   C     0.56003   0.99828   0.84164   0.00000  Uiso   1.00
C233   C     0.57870   0.98268   0.92406   0.00000  Uiso   1.00
C234   C     0.64481   0.02250   0.95752   0.00000  Uiso   1.00
C235   C     0.74599   0.07167   0.04071   0.00000  Uiso   1.00
C236   C     0.52725   0.92071   0.71681   0.00000  Uiso   1.00
C237   C     0.51836   0.83988   0.69426   0.00000  Uiso   1.00
C238   C     0.55687   0.81441   0.62263   0.00000  Uiso   1.00
C239   C     0.60712   0.74315   0.51198   0.00000  Uiso   1.00
C240   C     0.44161   0.03255   0.75993   0.00000  Uiso   1.00
C241   C     0.36070   0.04576   0.77362   0.00000  Uiso   1.00
C242   C     0.32709   0.11444   0.73829   0.00000  Uiso   1.00
C243   C     0.24437   0.21684   0.69460   0.00000  Uiso   1.00
C244   C     0.57458   0.05983   0.70558   0.00000  Uiso   1.00
C245   C     0.60575   0.05177   0.79432   0.00000  Uiso   1.00
C246   C     0.67184   0.09163   0.82768   0.00000  Uiso   1.00
C247   C     0.69061   0.07609   0.91013   0.00000  Uiso   1.00
C248   C     0.57298   0.97419   0.66949   0.00000  Uiso   1.00
C249   C     0.61150   0.94883   0.59788   0.00000  Uiso   1.00
C250   C     0.60268   0.86799   0.57523   0.00000  Uiso   1.00
C251   C     0.48733   0.08604   0.71262   0.00000  Uiso   1.00
C252   C     0.45384   0.15471   0.67725   0.00000  Uiso   1.00
C253   C     0.37290   0.16802   0.69089   0.00000  Uiso   1.00
H254   H     0.45480   0.91971   0.82953   0.00000  Uiso   1.00
H255   H     0.54330   0.94128   0.96065   0.00000  Uiso   1.00
H256   H     0.48297   0.79851   0.73088   0.00000  Uiso   1.00
H257   H     0.32533   0.00436   0.81024   0.00000  Uiso   1.00
H258   H     0.66161   0.98875   0.08515   0.00000  Uiso   1.00
H259   H     0.53436   0.68772   0.60066   0.00000  Uiso   1.00
H260   H     0.20196   0.12178   0.76800   0.00000  Uiso   1.00
H261   H     0.61018   0.10147   0.66874   0.00000  Uiso   1.00
H262   H     0.70722   0.13301   0.79104   0.00000  Uiso   1.00
H263   H     0.64688   0.99024   0.56127   0.00000  Uiso   1.00
H264   H     0.48924   0.19608   0.64063   0.00000  Uiso   1.00
H265   H     0.79465   0.14437   0.94749   0.00000  Uiso   1.00
H266   H     0.66740   0.84333   0.46299   0.00000  Uiso   1.00
H267   H     0.33500   0.27740   0.63034   0.00000  Uiso   1.00
O268   O     0.78918   0.08401   0.09967   0.00000  Uiso   1.00
O269   O     0.62221   0.68907   0.46402   0.00000  Uiso   1.00
O270   O     0.18611   0.25855   0.68358   0.00000  Uiso   1.00
N271   N     0.67960   0.02106   0.03597   0.00000  Uiso   1.00
N272   N     0.56064   0.73961   0.58300   0.00000  Uiso   1.00
N273   N     0.24986   0.14541   0.73944   0.00000  Uiso   1.00
N274   N     0.75119   0.10480   0.96190   0.00000  Uiso   1.00
N275   N     0.63222   0.82335   0.50893   0.00000  Uiso   1.00
N276   N     0.32145   0.22915   0.66537   0.00000  Uiso   1.00
