data_job_06831
_audit_creation_date              2018-12-19
_audit_creation_method            'Materials Studio'
_symmetry_space_group_name_H-M    'P1'
_symmetry_Int_Tables_number       1
_symmetry_cell_setting            triclinic
loop_
_symmetry_equiv_pos_as_xyz
  x,y,z
_cell_length_a                    23.0140
_cell_length_b                    21.3467
_cell_length_c                    23.8145
_cell_angle_alpha                 65.5661
_cell_angle_beta                  70.7501
_cell_angle_gamma                 63.2120
loop_
_atom_site_label
_atom_site_type_symbol
_atom_site_fract_x
_atom_site_fract_y
_atom_site_fract_z
_atom_site_U_iso_or_equiv
_atom_site_adp_type
_atom_site_occupancy
C1     C     0.22415   0.18887   0.88017   0.00000  Uiso   1.00
C2     C     0.28022   0.21380   0.83551   0.00000  Uiso   1.00
C3     C     0.34703   0.17556   0.83829   0.00000  Uiso   1.00
C4     C     0.39055   0.20765   0.79314   0.00000  Uiso   1.00
C5     C     0.48104   0.23606   0.73085   0.00000  Uiso   1.00
C6     C     0.17734   0.25144   0.90744   0.00000  Uiso   1.00
C7     C     0.15763   0.24482   0.97069   0.00000  Uiso   1.00
C8     C     0.11453   0.30860   0.98609   0.00000  Uiso   1.00
C9     C     0.04526   0.39542   0.03547   0.00000  Uiso   1.00
C10    C     0.18644   0.18705   0.83922   0.00000  Uiso   1.00
C11    C     0.17437   0.12630   0.84513   0.00000  Uiso   1.00
C12    C     0.13892   0.13588   0.80311   0.00000  Uiso   1.00
C13    C     0.08378   0.12272   0.74658   0.00000  Uiso   1.00
C14    C     0.18263   0.31389   0.79504   0.00000  Uiso   1.00
C15    C     0.25767   0.28171   0.78928   0.00000  Uiso   1.00
C16    C     0.30110   0.31387   0.74411   0.00000  Uiso   1.00
C17    C     0.36796   0.27568   0.74682   0.00000  Uiso   1.00
C18    C     0.15478   0.31934   0.86120   0.00000  Uiso   1.00
C19    C     0.11170   0.38314   0.87651   0.00000  Uiso   1.00
C20    C     0.09194   0.37663   0.93977   0.00000  Uiso   1.00
C21    C     0.16389   0.25495   0.79299   0.00000  Uiso   1.00
C22    C     0.12844   0.26462   0.75095   0.00000  Uiso   1.00
C23    C     0.11633   0.20390   0.75679   0.00000  Uiso   1.00
H24    H     0.24170   0.13601   0.91617   0.00000  Uiso   1.00
H25    H     0.36446   0.12301   0.87408   0.00000  Uiso   1.00
H26    H     0.17509   0.19227   0.00646   0.00000  Uiso   1.00
H27    H     0.19183   0.07377   0.88092   0.00000  Uiso   1.00
H28    H     0.49062   0.13856   0.80705   0.00000  Uiso   1.00
H29    H     0.09130   0.28458   0.08618   0.00000  Uiso   1.00
H30    H     0.12660   0.03470   0.82145   0.00000  Uiso   1.00
H31    H     0.16507   0.36676   0.75905   0.00000  Uiso   1.00
H32    H     0.28363   0.36642   0.70833   0.00000  Uiso   1.00
H33    H     0.09426   0.43568   0.84072   0.00000  Uiso   1.00
H34    H     0.11100   0.31718   0.71517   0.00000  Uiso   1.00
H35    H     0.42501   0.33612   0.67252   0.00000  Uiso   1.00
H36    H     0.02569   0.48215   0.95166   0.00000  Uiso   1.00
H37    H     0.06099   0.23227   0.68692   0.00000  Uiso   1.00
O38    O     0.53719   0.23297   0.70927   0.00000  Uiso   1.00
O39    O     0.01328   0.42454   0.07549   0.00000  Uiso   1.00
O40    O     0.05960   0.09671   0.72816   0.00000  Uiso   1.00
N41    N     0.45891   0.18510   0.78234   0.00000  Uiso   1.00
N42    N     0.08557   0.32162   0.04331   0.00000  Uiso   1.00
N43    N     0.11856   0.08801   0.79582   0.00000  Uiso   1.00
N44    N     0.42361   0.29140   0.70995   0.00000  Uiso   1.00
N45    N     0.05027   0.42793   0.97092   0.00000  Uiso   1.00
N46    N     0.08326   0.19432   0.72343   0.00000  Uiso   1.00
C47    C     0.06144   0.19414   0.24056   0.00000  Uiso   1.00
C48    C     0.01514   0.25325   0.27186   0.00000  Uiso   1.00
C49    C     0.00767   0.32728   0.24758   0.00000  Uiso   1.00
C50    C     0.96281   0.37248   0.28342   0.00000  Uiso   1.00
C51    C     0.89643   0.46850   0.32320   0.00000  Uiso   1.00
C52    C     0.10563   0.13350   0.28751   0.00000  Uiso   1.00
C53    C     0.17424   0.10683   0.27638   0.00000  Uiso   1.00
C54    C     0.20554   0.05122   0.32539   0.00000  Uiso   1.00
C55    C     0.27964   0.96128   0.38945   0.00000  Uiso   1.00
C56    C     0.01805   0.16046   0.23553   0.00000  Uiso   1.00
C57    C     0.01304   0.15646   0.18070   0.00000  Uiso   1.00
C58    C     0.97063   0.12353   0.18595   0.00000  Uiso   1.00
C59    C     0.90876   0.07547   0.16930   0.00000  Uiso   1.00
C60    C     0.99504   0.14277   0.34738   0.00000  Uiso   1.00
C61    C     0.97908   0.22535   0.32988   0.00000  Uiso   1.00
C62    C     0.93421   0.27045   0.36576   0.00000  Uiso   1.00
C63    C     0.92667   0.34453   0.34154   0.00000  Uiso   1.00
C64    C     0.06956   0.10560   0.34552   0.00000  Uiso   1.00
C65    C     0.10077   0.05000   0.39456   0.00000  Uiso   1.00
C66    C     0.16941   0.02327   0.38351   0.00000  Uiso   1.00
C67    C     0.98199   0.13256   0.29355   0.00000  Uiso   1.00
C68    C     0.93958   0.09963   0.29888   0.00000  Uiso   1.00
C69    C     0.93450   0.09558   0.24407   0.00000  Uiso   1.00
H70    H     0.08952   0.21586   0.19540   0.00000  Uiso   1.00
H71    H     0.03559   0.34885   0.20268   0.00000  Uiso   1.00
H72    H     0.20213   0.12843   0.23148   0.00000  Uiso   1.00
H73    H     0.04096   0.17805   0.13581   0.00000  Uiso   1.00
H74    H     0.95992   0.48398   0.23636   0.00000  Uiso   1.00
H75    H     0.31107   0.01921   0.29706   0.00000  Uiso   1.00
H76    H     0.97121   0.12384   0.09534   0.00000  Uiso   1.00
H77    H     0.96696   0.12105   0.39255   0.00000  Uiso   1.00
H78    H     0.90631   0.24884   0.41065   0.00000  Uiso   1.00
H79    H     0.07285   0.02842   0.43945   0.00000  Uiso   1.00
H80    H     0.91168   0.07804   0.34378   0.00000  Uiso   1.00
H81    H     0.85499   0.40281   0.40516   0.00000  Uiso   1.00
H82    H     0.20615   0.93803   0.46586   0.00000  Uiso   1.00
H83    H     0.86628   0.04267   0.26413   0.00000  Uiso   1.00
O84    O     0.86978   0.52917   0.32912   0.00000  Uiso   1.00
O85    O     0.33048   0.91939   0.40876   0.00000  Uiso   1.00
O86    O     0.88459   0.05667   0.14409   0.00000  Uiso   1.00
N87    N     0.94354   0.44735   0.27359   0.00000  Uiso   1.00
N88    N     0.27185   0.01282   0.33035   0.00000  Uiso   1.00
N89    N     0.95412   0.11062   0.14176   0.00000  Uiso   1.00
N90    N     0.88708   0.40367   0.36442   0.00000  Uiso   1.00
N91    N     0.21538   0.96914   0.42118   0.00000  Uiso   1.00
N92    N     0.89766   0.06694   0.23258   0.00000  Uiso   1.00
C93    C     0.16994   0.97227   0.14761   0.00000  Uiso   1.00
C94    C     0.17578   0.92440   0.21544   0.00000  Uiso   1.00
C95    C     0.13507   0.94380   0.26808   0.00000  Uiso   1.00
C96    C     0.14854   0.89233   0.32601   0.00000  Uiso   1.00
C97    C     0.14966   0.82843   0.43057   0.00000  Uiso   1.00
C98    C     0.23693   0.97993   0.11663   0.00000  Uiso   1.00
C99    C     0.24764   0.04602   0.08619   0.00000  Uiso   1.00
C100   C     0.31260   0.04129   0.06094   0.00000  Uiso   1.00
C101   C     0.40866   0.06359   0.01205   0.00000  Uiso   1.00
C102   C     0.16312   0.92618   0.11711   0.00000  Uiso   1.00
C103   C     0.11178   0.94709   0.08705   0.00000  Uiso   1.00
C104   C     0.11460   0.89711   0.06218   0.00000  Uiso   1.00
C105   C     0.09606   0.83597   0.01405   0.00000  Uiso   1.00
C106   C     0.26625   0.84635   0.15689   0.00000  Uiso   1.00
C107   C     0.22809   0.85601   0.22048   0.00000  Uiso   1.00
C108   C     0.24162   0.80449   0.27835   0.00000  Uiso   1.00
C109   C     0.20094   0.82382   0.33106   0.00000  Uiso   1.00
C110   C     0.28925   0.91154   0.12168   0.00000  Uiso   1.00
C111   C     0.35420   0.90671   0.09646   0.00000  Uiso   1.00
C112   C     0.36500   0.97277   0.06599   0.00000  Uiso   1.00
C113   C     0.21543   0.85779   0.12215   0.00000  Uiso   1.00
C114   C     0.21834   0.80777   0.09733   0.00000  Uiso   1.00
C115   C     0.16701   0.82860   0.06724   0.00000  Uiso   1.00
H116   H     0.12922   0.02551   0.14368   0.00000  Uiso   1.00
H117   H     0.09459   0.99674   0.26416   0.00000  Uiso   1.00
H118   H     0.20715   0.09893   0.08229   0.00000  Uiso   1.00
H119   H     0.07131   0.00002   0.08316   0.00000  Uiso   1.00
H120   H     0.07929   0.93469   0.39995   0.00000  Uiso   1.00
H121   H     0.31662   0.15018   0.01645   0.00000  Uiso   1.00
H122   H     0.03017   0.94159   0.01828   0.00000  Uiso   1.00
H123   H     0.30698   0.79310   0.16082   0.00000  Uiso   1.00
H124   H     0.28211   0.75157   0.28224   0.00000  Uiso   1.00
H125   H     0.39467   0.85377   0.10037   0.00000  Uiso   1.00
H126   H     0.25882   0.75485   0.10124   0.00000  Uiso   1.00
H127   H     0.23149   0.73571   0.41463   0.00000  Uiso   1.00
H128   H     0.46881   0.95119   0.03112   0.00000  Uiso   1.00
H129   H     0.18237   0.74260   0.03295   0.00000  Uiso   1.00
O130   O     0.13583   0.81208   0.48685   0.00000  Uiso   1.00
O131   O     0.44719   0.09479   0.98371   0.00000  Uiso   1.00
O132   O     0.07138   0.82113   0.98611   0.00000  Uiso   1.00
N133   N     0.11851   0.89355   0.38674   0.00000  Uiso   1.00
N134   N     0.34040   0.09502   0.02820   0.00000  Uiso   1.00
N135   N     0.07261   0.90001   0.02989   0.00000  Uiso   1.00
N136   N     0.20041   0.78648   0.39464   0.00000  Uiso   1.00
N137   N     0.42230   0.98795   0.03610   0.00000  Uiso   1.00
N138   N     0.15450   0.79294   0.03779   0.00000  Uiso   1.00
C139   C     0.66068   0.50771   0.67846   0.00000  Uiso   1.00
C140   C     0.73195   0.45431   0.68235   0.00000  Uiso   1.00
C141   C     0.78803   0.47082   0.64877   0.00000  Uiso   1.00
C142   C     0.84874   0.41436   0.65896   0.00000  Uiso   1.00
C143   C     0.95873   0.34216   0.65859   0.00000  Uiso   1.00
C144   C     0.62726   0.50892   0.74516   0.00000  Uiso   1.00
C145   C     0.59531   0.57135   0.76438   0.00000  Uiso   1.00
C146   C     0.56789   0.56086   0.82744   0.00000  Uiso   1.00
C147   C     0.51531   0.57345   0.92457   0.00000  Uiso   1.00
C148   C     0.62839   0.47105   0.66120   0.00000  Uiso   1.00
C149   C     0.59738   0.50165   0.60985   0.00000  Uiso   1.00
C150   C     0.57090   0.45928   0.60223   0.00000  Uiso   1.00
C151   C     0.52007   0.41309   0.56901   0.00000  Uiso   1.00
C152   C     0.66878   0.37806   0.75626   0.00000  Uiso   1.00
C153   C     0.73634   0.38389   0.72461   0.00000  Uiso   1.00
C154   C     0.79699   0.32738   0.73485   0.00000  Uiso   1.00
C155   C     0.85315   0.34381   0.70129   0.00000  Uiso   1.00
C156   C     0.63166   0.43850   0.78741   0.00000  Uiso   1.00
C157   C     0.60427   0.42791   0.85046   0.00000  Uiso   1.00
C158   C     0.57230   0.49031   0.86978   0.00000  Uiso   1.00
C159   C     0.63279   0.40063   0.70346   0.00000  Uiso   1.00
C160   C     0.60634   0.35821   0.69592   0.00000  Uiso   1.00
C161   C     0.57530   0.38874   0.64456   0.00000  Uiso   1.00
H162   H     0.65725   0.56253   0.64557   0.00000  Uiso   1.00
H163   H     0.78460   0.52533   0.61608   0.00000  Uiso   1.00
H164   H     0.59191   0.62584   0.73167   0.00000  Uiso   1.00
H165   H     0.59398   0.55615   0.57716   0.00000  Uiso   1.00
H166   H     0.92773   0.45303   0.60204   0.00000  Uiso   1.00
H167   H     0.52141   0.66497   0.84577   0.00000  Uiso   1.00
H168   H     0.52578   0.51802   0.51994   0.00000  Uiso   1.00
H169   H     0.67220   0.32323   0.78916   0.00000  Uiso   1.00
H170   H     0.80038   0.27289   0.76755   0.00000  Uiso   1.00
H171   H     0.60768   0.37341   0.88314   0.00000  Uiso   1.00
H172   H     0.60976   0.30371   0.72863   0.00000  Uiso   1.00
H173   H     0.94053   0.24815   0.72498   0.00000  Uiso   1.00
H174   H     0.53421   0.46009   0.96871   0.00000  Uiso   1.00
H175   H     0.53858   0.31313   0.64288   0.00000  Uiso   1.00
O176   O     0.01818   0.32180   0.64672   0.00000  Uiso   1.00
O177   O     0.48509   0.59986   0.96647   0.00000  Uiso   1.00
O178   O     0.49083   0.40706   0.53900   0.00000  Uiso   1.00
N179   N     0.91315   0.41172   0.63393   0.00000  Uiso   1.00
N180   N     0.53328   0.60987   0.86180   0.00000  Uiso   1.00
N181   N     0.53735   0.47248   0.55719   0.00000  Uiso   1.00
N182   N     0.92004   0.30147   0.70008   0.00000  Uiso   1.00
N183   N     0.54017   0.49962   0.92795   0.00000  Uiso   1.00
N184   N     0.54424   0.36224   0.62335   0.00000  Uiso   1.00
C185   C     0.40689   0.67360   0.68563   0.00000  Uiso   1.00
C186   C     0.36312   0.68939   0.74583   0.00000  Uiso   1.00
C187   C     0.37314   0.64401   0.80624   0.00000  Uiso   1.00
C188   C     0.32752   0.66831   0.85509   0.00000  Uiso   1.00
C189   C     0.26773   0.68262   0.95028   0.00000  Uiso   1.00
C190   C     0.42824   0.73966   0.64754   0.00000  Uiso   1.00
C191   C     0.49302   0.73654   0.62530   0.00000  Uiso   1.00
C192   C     0.50221   0.80316   0.59140   0.00000  Uiso   1.00
C193   C     0.54353   0.89551   0.53394   0.00000  Uiso   1.00
C194   C     0.36159   0.67662   0.64934   0.00000  Uiso   1.00
C195   C     0.37033   0.62051   0.62861   0.00000  Uiso   1.00
C196   C     0.32341   0.63406   0.59621   0.00000  Uiso   1.00
C197   C     0.26124   0.62852   0.54156   0.00000  Uiso   1.00
C198   C     0.30805   0.79745   0.66495   0.00000  Uiso   1.00
C199   C     0.30944   0.75667   0.73460   0.00000  Uiso   1.00
C200   C     0.26378   0.78104   0.78336   0.00000  Uiso   1.00
C201   C     0.27373   0.73570   0.84384   0.00000  Uiso   1.00
C202   C     0.37456   0.80694   0.63630   0.00000  Uiso   1.00
C203   C     0.38366   0.87358   0.60242   0.00000  Uiso   1.00
C204   C     0.44843   0.87056   0.58014   0.00000  Uiso   1.00
C205   C     0.30790   0.74390   0.63811   0.00000  Uiso   1.00
C206   C     0.26097   0.75754   0.60573   0.00000  Uiso   1.00
C207   C     0.26963   0.70145   0.58495   0.00000  Uiso   1.00
H208   H     0.44869   0.62123   0.69437   0.00000  Uiso   1.00
H209   H     0.41470   0.59195   0.81492   0.00000  Uiso   1.00
H210   H     0.53455   0.68447   0.63400   0.00000  Uiso   1.00
H211   H     0.41188   0.56845   0.63731   0.00000  Uiso   1.00
H212   H     0.35334   0.58918   0.94361   0.00000  Uiso   1.00
H213   H     0.60606   0.78426   0.56211   0.00000  Uiso   1.00
H214   H     0.34739   0.53961   0.56909   0.00000  Uiso   1.00
H215   H     0.26626   0.84983   0.65620   0.00000  Uiso   1.00
H216   H     0.22224   0.83310   0.77466   0.00000  Uiso   1.00
H217   H     0.34210   0.92562   0.59374   0.00000  Uiso   1.00
H218   H     0.21943   0.80960   0.59705   0.00000  Uiso   1.00
H219   H     0.19714   0.78491   0.91094   0.00000  Uiso   1.00
H220   H     0.44986   0.97999   0.52943   0.00000  Uiso   1.00
H221   H     0.19119   0.73534   0.53641   0.00000  Uiso   1.00
O222   O     0.24959   0.67193   0.00589   0.00000  Uiso   1.00
O223   O     0.58115   0.92786   0.50536   0.00000  Uiso   1.00
O224   O     0.24178   0.60689   0.51452   0.00000  Uiso   1.00
N225   N     0.32261   0.63753   0.91967   0.00000  Uiso   1.00
N226   N     0.55889   0.81992   0.56299   0.00000  Uiso   1.00
N227   N     0.31706   0.59120   0.56950   0.00000  Uiso   1.00
N228   N     0.23856   0.74285   0.90208   0.00000  Uiso   1.00
N229   N     0.47484   0.92524   0.54541   0.00000  Uiso   1.00
N230   N     0.23301   0.69652   0.55192   0.00000  Uiso   1.00
C231   C     0.76735   0.70078   0.57437   0.00000  Uiso   1.00
C232   C     0.79091   0.76453   0.53257   0.00000  Uiso   1.00
C233   C     0.75876   0.83717   0.53300   0.00000  Uiso   1.00
C234   C     0.78834   0.88727   0.49115   0.00000  Uiso   1.00
C235   C     0.81587   0.98958   0.43246   0.00000  Uiso   1.00
C236   C     0.82383   0.64153   0.60883   0.00000  Uiso   1.00
C237   C     0.81937   0.61075   0.67337   0.00000  Uiso   1.00
C238   C     0.87666   0.55730   0.69571   0.00000  Uiso   1.00
C239   C     0.95530   0.46860   0.75541   0.00000  Uiso   1.00
C240   C     0.76248   0.66873   0.53027   0.00000  Uiso   1.00
C241   C     0.70644   0.66079   0.52877   0.00000  Uiso   1.00
C242   C     0.71209   0.63022   0.48497   0.00000  Uiso   1.00
C243   C     0.69547   0.58375   0.42270   0.00000  Uiso   1.00
C244   C     0.87704   0.66058   0.49928   0.00000  Uiso   1.00
C245   C     0.85049   0.74270   0.49178   0.00000  Uiso   1.00
C246   C     0.88012   0.79270   0.44991   0.00000  Uiso   1.00
C247   C     0.84802   0.86540   0.45028   0.00000  Uiso   1.00
C248   C     0.88341   0.61970   0.56804   0.00000  Uiso   1.00
C249   C     0.94073   0.56628   0.59028   0.00000  Uiso   1.00
C250   C     0.93635   0.53543   0.65484   0.00000  Uiso   1.00
C251   C     0.82206   0.64689   0.48947   0.00000  Uiso   1.00
C252   C     0.82780   0.61632   0.44568   0.00000  Uiso   1.00
C253   C     0.77178   0.60834   0.44411   0.00000  Uiso   1.00
H254   H     0.72097   0.71777   0.60613   0.00000  Uiso   1.00
H255   H     0.71265   0.85404   0.56458   0.00000  Uiso   1.00
H256   H     0.77325   0.62765   0.70493   0.00000  Uiso   1.00
H257   H     0.66034   0.67769   0.56034   0.00000  Uiso   1.00
H258   H     0.72973   0.99549   0.50054   0.00000  Uiso   1.00
H259   H     0.85750   0.51811   0.79646   0.00000  Uiso   1.00
H260   H     0.61940   0.62362   0.49158   0.00000  Uiso   1.00
H261   H     0.92343   0.64359   0.46752   0.00000  Uiso   1.00
H262   H     0.92623   0.77579   0.41835   0.00000  Uiso   1.00
H263   H     0.98683   0.54940   0.55870   0.00000  Uiso   1.00
H264   H     0.87392   0.59944   0.41412   0.00000  Uiso   1.00
H265   H     0.90307   0.93198   0.38186   0.00000  Uiso   1.00
H266   H     0.03084   0.45459   0.67779   0.00000  Uiso   1.00
H267   H     0.79275   0.56011   0.37290   0.00000  Uiso   1.00
O268   O     0.81460   0.05204   0.41137   0.00000  Uiso   1.00
O269   O     0.98222   0.42572   0.79961   0.00000  Uiso   1.00
O270   O     0.66985   0.56416   0.39961   0.00000  Uiso   1.00
N271   N     0.77013   0.96240   0.47934   0.00000  Uiso   1.00
N272   N     0.88959   0.51609   0.75602   0.00000  Uiso   1.00
N273   N     0.66700   0.61472   0.47099   0.00000  Uiso   1.00
N274   N     0.86341   0.92823   0.41548   0.00000  Uiso   1.00
N275   N     0.98287   0.48191   0.69216   0.00000  Uiso   1.00
N276   N     0.76027   0.58054   0.40712   0.00000  Uiso   1.00
C277   C     0.77585   0.81113   0.11983   0.00000  Uiso   1.00
C278   C     0.71978   0.78620   0.16449   0.00000  Uiso   1.00
C279   C     0.65297   0.82444   0.16171   0.00000  Uiso   1.00
C280   C     0.60945   0.79235   0.20686   0.00000  Uiso   1.00
C281   C     0.51896   0.76394   0.26915   0.00000  Uiso   1.00
C282   C     0.82266   0.74856   0.09256   0.00000  Uiso   1.00
C283   C     0.84237   0.75518   0.02931   0.00000  Uiso   1.00
C284   C     0.88547   0.69140   0.01391   0.00000  Uiso   1.00
C285   C     0.95474   0.60458   0.96453   0.00000  Uiso   1.00
C286   C     0.81356   0.81295   0.16078   0.00000  Uiso   1.00
C287   C     0.82563   0.87370   0.15487   0.00000  Uiso   1.00
C288   C     0.86108   0.86412   0.19689   0.00000  Uiso   1.00
C289   C     0.91622   0.87728   0.25342   0.00000  Uiso   1.00
C290   C     0.81737   0.68611   0.20496   0.00000  Uiso   1.00
C291   C     0.74233   0.71829   0.21072   0.00000  Uiso   1.00
C292   C     0.69890   0.68613   0.25589   0.00000  Uiso   1.00
C293   C     0.63204   0.72432   0.25318   0.00000  Uiso   1.00
C294   C     0.84522   0.68066   0.13880   0.00000  Uiso   1.00
C295   C     0.88830   0.61686   0.12349   0.00000  Uiso   1.00
C296   C     0.90806   0.62337   0.06023   0.00000  Uiso   1.00
C297   C     0.83611   0.74505   0.20701   0.00000  Uiso   1.00
C298   C     0.87156   0.73538   0.24905   0.00000  Uiso   1.00
C299   C     0.88367   0.79610   0.24321   0.00000  Uiso   1.00
H300   H     0.75830   0.86399   0.08383   0.00000  Uiso   1.00
H301   H     0.63554   0.87699   0.12592   0.00000  Uiso   1.00
H302   H     0.82491   0.80773   0.99354   0.00000  Uiso   1.00
H303   H     0.80817   0.92623   0.11908   0.00000  Uiso   1.00
H304   H     0.50938   0.86144   0.19295   0.00000  Uiso   1.00
H305   H     0.90870   0.71542   0.91382   0.00000  Uiso   1.00
H306   H     0.87340   0.96530   0.17855   0.00000  Uiso   1.00
H307   H     0.83493   0.63324   0.24095   0.00000  Uiso   1.00
H308   H     0.71637   0.63358   0.29167   0.00000  Uiso   1.00
H309   H     0.90574   0.56432   0.15928   0.00000  Uiso   1.00
H310   H     0.88900   0.68282   0.28483   0.00000  Uiso   1.00
H311   H     0.57499   0.66388   0.32748   0.00000  Uiso   1.00
H312   H     0.97431   0.51785   0.04834   0.00000  Uiso   1.00
H313   H     0.93901   0.76773   0.31308   0.00000  Uiso   1.00
O314   O     0.46281   0.76703   0.29073   0.00000  Uiso   1.00
O315   O     0.98672   0.57546   0.92451   0.00000  Uiso   1.00
O316   O     0.94040   0.90329   0.27184   0.00000  Uiso   1.00
N317   N     0.54109   0.81490   0.21766   0.00000  Uiso   1.00
N318   N     0.91443   0.67838   0.95669   0.00000  Uiso   1.00
N319   N     0.88144   0.91199   0.20418   0.00000  Uiso   1.00
N320   N     0.57639   0.70860   0.29005   0.00000  Uiso   1.00
N321   N     0.94973   0.57207   0.02908   0.00000  Uiso   1.00
N322   N     0.91674   0.80568   0.27657   0.00000  Uiso   1.00
C323   C     0.93856   0.80586   0.75944   0.00000  Uiso   1.00
C324   C     0.98486   0.74675   0.72814   0.00000  Uiso   1.00
C325   C     0.99233   0.67272   0.75242   0.00000  Uiso   1.00
C326   C     0.03719   0.62752   0.71658   0.00000  Uiso   1.00
C327   C     0.10357   0.53150   0.67680   0.00000  Uiso   1.00
C328   C     0.89437   0.86650   0.71249   0.00000  Uiso   1.00
C329   C     0.82576   0.89317   0.72362   0.00000  Uiso   1.00
C330   C     0.79446   0.94878   0.67461   0.00000  Uiso   1.00
C331   C     0.72036   0.03872   0.61055   0.00000  Uiso   1.00
C332   C     0.98195   0.83954   0.76447   0.00000  Uiso   1.00
C333   C     0.98696   0.84354   0.81930   0.00000  Uiso   1.00
C334   C     0.02937   0.87647   0.81405   0.00000  Uiso   1.00
C335   C     0.09124   0.92453   0.83070   0.00000  Uiso   1.00
C336   C     0.00496   0.85723   0.65262   0.00000  Uiso   1.00
C337   C     0.02092   0.77465   0.67012   0.00000  Uiso   1.00
C338   C     0.06579   0.72955   0.63424   0.00000  Uiso   1.00
C339   C     0.07333   0.65547   0.65846   0.00000  Uiso   1.00
C340   C     0.93044   0.89440   0.65448   0.00000  Uiso   1.00
C341   C     0.89923   0.95000   0.60544   0.00000  Uiso   1.00
C342   C     0.83059   0.97673   0.61649   0.00000  Uiso   1.00
C343   C     0.01801   0.86744   0.70645   0.00000  Uiso   1.00
C344   C     0.06042   0.90037   0.70112   0.00000  Uiso   1.00
C345   C     0.06550   0.90442   0.75593   0.00000  Uiso   1.00
H346   H     0.91048   0.78414   0.80460   0.00000  Uiso   1.00
H347   H     0.96441   0.65115   0.79732   0.00000  Uiso   1.00
H348   H     0.79787   0.87157   0.76852   0.00000  Uiso   1.00
H349   H     0.95904   0.82195   0.86419   0.00000  Uiso   1.00
H350   H     0.04008   0.51602   0.76364   0.00000  Uiso   1.00
H351   H     0.68893   0.98079   0.70294   0.00000  Uiso   1.00
H352   H     0.02879   0.87616   0.90466   0.00000  Uiso   1.00
H353   H     0.03304   0.87895   0.60745   0.00000  Uiso   1.00
H354   H     0.09369   0.75116   0.58935   0.00000  Uiso   1.00
H355   H     0.92715   0.97158   0.56055   0.00000  Uiso   1.00
H356   H     0.08832   0.92196   0.65622   0.00000  Uiso   1.00
H357   H     0.14501   0.59719   0.59484   0.00000  Uiso   1.00
H358   H     0.79385   0.06197   0.53414   0.00000  Uiso   1.00
H359   H     0.13372   0.95733   0.73587   0.00000  Uiso   1.00
O360   O     0.13022   0.47083   0.67088   0.00000  Uiso   1.00
O361   O     0.66952   0.08061   0.59124   0.00000  Uiso   1.00
O362   O     0.11541   0.94333   0.85591   0.00000  Uiso   1.00
N363   N     0.05646   0.55265   0.72641   0.00000  Uiso   1.00
N364   N     0.72815   0.98718   0.66965   0.00000  Uiso   1.00
N365   N     0.04588   0.88938   0.85824   0.00000  Uiso   1.00
N366   N     0.11292   0.59633   0.63558   0.00000  Uiso   1.00
N367   N     0.78462   0.03086   0.57882   0.00000  Uiso   1.00
N368   N     0.10234   0.93306   0.76742   0.00000  Uiso   1.00
C369   C     0.83006   0.02773   0.85239   0.00000  Uiso   1.00
C370   C     0.82422   0.07560   0.78456   0.00000  Uiso   1.00
C371   C     0.86493   0.05620   0.73192   0.00000  Uiso   1.00
C372   C     0.85146   0.10767   0.67399   0.00000  Uiso   1.00
C373   C     0.85034   0.17157   0.56943   0.00000  Uiso   1.00
C374   C     0.76307   0.02007   0.88337   0.00000  Uiso   1.00
C375   C     0.75236   0.95398   0.91381   0.00000  Uiso   1.00
C376   C     0.68740   0.95871   0.93906   0.00000  Uiso   1.00
C377   C     0.59134   0.93641   0.98795   0.00000  Uiso   1.00
C378   C     0.83688   0.07382   0.88289   0.00000  Uiso   1.00
C379   C     0.88822   0.05291   0.91295   0.00000  Uiso   1.00
C380   C     0.88540   0.10289   0.93782   0.00000  Uiso   1.00
C381   C     0.90394   0.16403   0.98595   0.00000  Uiso   1.00
C382   C     0.73375   0.15365   0.84311   0.00000  Uiso   1.00
C383   C     0.77191   0.14399   0.77952   0.00000  Uiso   1.00
C384   C     0.75838   0.19551   0.72165   0.00000  Uiso   1.00
C385   C     0.79906   0.17618   0.66894   0.00000  Uiso   1.00
C386   C     0.71075   0.08846   0.87832   0.00000  Uiso   1.00
C387   C     0.64580   0.09329   0.90354   0.00000  Uiso   1.00
C388   C     0.63500   0.02723   0.93401   0.00000  Uiso   1.00
C389   C     0.78457   0.14221   0.87785   0.00000  Uiso   1.00
C390   C     0.78166   0.19223   0.90267   0.00000  Uiso   1.00
C391   C     0.83299   0.17140   0.93276   0.00000  Uiso   1.00
H392   H     0.87078   0.97449   0.85632   0.00000  Uiso   1.00
H393   H     0.90541   0.00326   0.73584   0.00000  Uiso   1.00
H394   H     0.79285   0.90107   0.91771   0.00000  Uiso   1.00
H395   H     0.92869   0.99998   0.91684   0.00000  Uiso   1.00
H396   H     0.92071   0.06531   0.60005   0.00000  Uiso   1.00
H397   H     0.68338   0.84982   0.98355   0.00000  Uiso   1.00
H398   H     0.96983   0.05841   0.98172   0.00000  Uiso   1.00
H399   H     0.69302   0.20690   0.83918   0.00000  Uiso   1.00
H400   H     0.71789   0.24843   0.71776   0.00000  Uiso   1.00
H401   H     0.60533   0.14623   0.89963   0.00000  Uiso   1.00
H402   H     0.74118   0.24515   0.89876   0.00000  Uiso   1.00
H403   H     0.76851   0.26429   0.58537   0.00000  Uiso   1.00
H404   H     0.53119   0.04881   0.96888   0.00000  Uiso   1.00
H405   H     0.81763   0.25740   0.96705   0.00000  Uiso   1.00
O406   O     0.86417   0.18792   0.51315   0.00000  Uiso   1.00
O407   O     0.55281   0.90521   0.01629   0.00000  Uiso   1.00
O408   O     0.92862   0.17887   0.01389   0.00000  Uiso   1.00
N409   N     0.88149   0.10645   0.61326   0.00000  Uiso   1.00
N410   N     0.65960   0.90498   0.97180   0.00000  Uiso   1.00
N411   N     0.92739   0.09999   0.97011   0.00000  Uiso   1.00
N412   N     0.79959   0.21352   0.60536   0.00000  Uiso   1.00
N413   N     0.57770   0.01205   0.96390   0.00000  Uiso   1.00
N414   N     0.84550   0.20706   0.96221   0.00000  Uiso   1.00
C415   C     0.33932   0.49229   0.32154   0.00000  Uiso   1.00
C416   C     0.26805   0.54569   0.31765   0.00000  Uiso   1.00
C417   C     0.21197   0.52918   0.35123   0.00000  Uiso   1.00
C418   C     0.15126   0.58564   0.34104   0.00000  Uiso   1.00
C419   C     0.04127   0.65784   0.34141   0.00000  Uiso   1.00
C420   C     0.37274   0.49108   0.25484   0.00000  Uiso   1.00
C421   C     0.40469   0.42865   0.23562   0.00000  Uiso   1.00
C422   C     0.43211   0.43914   0.17256   0.00000  Uiso   1.00
C423   C     0.48469   0.42655   0.07543   0.00000  Uiso   1.00
C424   C     0.37161   0.52895   0.33880   0.00000  Uiso   1.00
C425   C     0.40262   0.49835   0.39015   0.00000  Uiso   1.00
C426   C     0.42910   0.54072   0.39777   0.00000  Uiso   1.00
C427   C     0.47993   0.58691   0.43099   0.00000  Uiso   1.00
C428   C     0.33122   0.62194   0.24374   0.00000  Uiso   1.00
C429   C     0.26366   0.61611   0.27539   0.00000  Uiso   1.00
C430   C     0.20301   0.67262   0.26515   0.00000  Uiso   1.00
C431   C     0.14685   0.65619   0.29871   0.00000  Uiso   1.00
C432   C     0.36834   0.56150   0.21259   0.00000  Uiso   1.00
C433   C     0.39573   0.57209   0.14954   0.00000  Uiso   1.00
C434   C     0.42770   0.50969   0.13022   0.00000  Uiso   1.00
C435   C     0.36721   0.59937   0.29654   0.00000  Uiso   1.00
C436   C     0.39366   0.64179   0.30408   0.00000  Uiso   1.00
C437   C     0.42470   0.61126   0.35544   0.00000  Uiso   1.00
H438   H     0.34275   0.43747   0.35443   0.00000  Uiso   1.00
H439   H     0.21540   0.47467   0.38392   0.00000  Uiso   1.00
H440   H     0.40809   0.37416   0.26833   0.00000  Uiso   1.00
H441   H     0.40602   0.44385   0.42284   0.00000  Uiso   1.00
H442   H     0.07227   0.54697   0.39796   0.00000  Uiso   1.00
H443   H     0.47859   0.33503   0.15423   0.00000  Uiso   1.00
H444   H     0.47422   0.48198   0.48006   0.00000  Uiso   1.00
H445   H     0.32780   0.67677   0.21084   0.00000  Uiso   1.00
H446   H     0.19962   0.72711   0.23245   0.00000  Uiso   1.00
H447   H     0.39232   0.62659   0.11686   0.00000  Uiso   1.00
H448   H     0.39024   0.69629   0.27137   0.00000  Uiso   1.00
H449   H     0.05947   0.75185   0.27502   0.00000  Uiso   1.00
H450   H     0.46579   0.53991   0.03129   0.00000  Uiso   1.00
H451   H     0.46142   0.68687   0.35712   0.00000  Uiso   1.00
O452   O     0.98182   0.67820   0.35328   0.00000  Uiso   1.00
O453   O     0.51491   0.40014   0.03353   0.00000  Uiso   1.00
O454   O     0.50917   0.59294   0.46100   0.00000  Uiso   1.00
N455   N     0.08685   0.58828   0.36607   0.00000  Uiso   1.00
N456   N     0.46672   0.39013   0.13820   0.00000  Uiso   1.00
N457   N     0.46265   0.52752   0.44281   0.00000  Uiso   1.00
N458   N     0.07996   0.69853   0.29992   0.00000  Uiso   1.00
N459   N     0.45983   0.50038   0.07205   0.00000  Uiso   1.00
N460   N     0.45576   0.63776   0.37665   0.00000  Uiso   1.00
C461   C     0.59311   0.32640   0.31437   0.00000  Uiso   1.00
C462   C     0.63688   0.31061   0.25417   0.00000  Uiso   1.00
C463   C     0.62686   0.35599   0.19376   0.00000  Uiso   1.00
C464   C     0.67248   0.33169   0.14491   0.00000  Uiso   1.00
C465   C     0.73227   0.31738   0.04972   0.00000  Uiso   1.00
C466   C     0.57176   0.26034   0.35246   0.00000  Uiso   1.00
C467   C     0.50698   0.26346   0.37470   0.00000  Uiso   1.00
C468   C     0.49779   0.19684   0.40860   0.00000  Uiso   1.00
C469   C     0.45647   0.10449   0.46606   0.00000  Uiso   1.00
C470   C     0.63841   0.32338   0.35066   0.00000  Uiso   1.00
C471   C     0.62967   0.37949   0.37139   0.00000  Uiso   1.00
C472   C     0.67659   0.36594   0.40379   0.00000  Uiso   1.00
C473   C     0.73876   0.37148   0.45844   0.00000  Uiso   1.00
C474   C     0.69195   0.20255   0.33505   0.00000  Uiso   1.00
C475   C     0.69056   0.24333   0.26540   0.00000  Uiso   1.00
C476   C     0.73622   0.21896   0.21664   0.00000  Uiso   1.00
C477   C     0.72627   0.26430   0.15616   0.00000  Uiso   1.00
C478   C     0.62544   0.19306   0.36370   0.00000  Uiso   1.00
C479   C     0.61634   0.12642   0.39758   0.00000  Uiso   1.00
C480   C     0.55157   0.12944   0.41986   0.00000  Uiso   1.00
C481   C     0.69210   0.25610   0.36189   0.00000  Uiso   1.00
C482   C     0.73903   0.24246   0.39427   0.00000  Uiso   1.00
C483   C     0.73037   0.29855   0.41505   0.00000  Uiso   1.00
H484   H     0.55131   0.37877   0.30563   0.00000  Uiso   1.00
H485   H     0.58530   0.40805   0.18508   0.00000  Uiso   1.00
H486   H     0.46545   0.31553   0.36600   0.00000  Uiso   1.00
H487   H     0.58812   0.43155   0.36269   0.00000  Uiso   1.00
H488   H     0.64666   0.41082   0.05639   0.00000  Uiso   1.00
H489   H     0.39394   0.21574   0.43789   0.00000  Uiso   1.00
H490   H     0.65261   0.46039   0.43091   0.00000  Uiso   1.00
H491   H     0.73374   0.15017   0.34380   0.00000  Uiso   1.00
H492   H     0.77776   0.16690   0.22534   0.00000  Uiso   1.00
H493   H     0.65790   0.07438   0.40626   0.00000  Uiso   1.00
H494   H     0.78057   0.19040   0.40295   0.00000  Uiso   1.00
H495   H     0.80286   0.21509   0.08906   0.00000  Uiso   1.00
H496   H     0.55014   0.02001   0.47057   0.00000  Uiso   1.00
H497   H     0.80881   0.26466   0.46359   0.00000  Uiso   1.00
O498   O     0.75041   0.32807   0.99411   0.00000  Uiso   1.00
O499   O     0.41885   0.07214   0.49464   0.00000  Uiso   1.00
O500   O     0.75822   0.39311   0.48548   0.00000  Uiso   1.00
N501   N     0.67739   0.36247   0.08033   0.00000  Uiso   1.00
N502   N     0.44111   0.18008   0.43701   0.00000  Uiso   1.00
N503   N     0.68294   0.40880   0.43050   0.00000  Uiso   1.00
N504   N     0.76144   0.25715   0.09792   0.00000  Uiso   1.00
N505   N     0.52516   0.07476   0.45459   0.00000  Uiso   1.00
N506   N     0.76699   0.30348   0.44808   0.00000  Uiso   1.00
C507   C     0.23265   0.29922   0.42563   0.00000  Uiso   1.00
C508   C     0.20909   0.23547   0.46743   0.00000  Uiso   1.00
C509   C     0.24124   0.16283   0.46700   0.00000  Uiso   1.00
C510   C     0.21166   0.11273   0.50885   0.00000  Uiso   1.00
C511   C     0.18413   0.01042   0.56754   0.00000  Uiso   1.00
C512   C     0.17617   0.35847   0.39117   0.00000  Uiso   1.00
C513   C     0.18063   0.38925   0.32663   0.00000  Uiso   1.00
C514   C     0.12334   0.44270   0.30429   0.00000  Uiso   1.00
C515   C     0.04470   0.53140   0.24459   0.00000  Uiso   1.00
C516   C     0.23752   0.33127   0.46973   0.00000  Uiso   1.00
C517   C     0.29356   0.33921   0.47123   0.00000  Uiso   1.00
C518   C     0.28791   0.36978   0.51503   0.00000  Uiso   1.00
C519   C     0.30453   0.41625   0.57730   0.00000  Uiso   1.00
C520   C     0.12296   0.33942   0.50072   0.00000  Uiso   1.00
C521   C     0.14951   0.25730   0.50822   0.00000  Uiso   1.00
C522   C     0.11988   0.20730   0.55009   0.00000  Uiso   1.00
C523   C     0.15198   0.13460   0.54972   0.00000  Uiso   1.00
C524   C     0.11659   0.38030   0.43196   0.00000  Uiso   1.00
C525   C     0.05927   0.43372   0.40972   0.00000  Uiso   1.00
C526   C     0.06365   0.46457   0.34516   0.00000  Uiso   1.00
C527   C     0.17794   0.35311   0.51053   0.00000  Uiso   1.00
C528   C     0.17220   0.38368   0.55432   0.00000  Uiso   1.00
C529   C     0.22822   0.39166   0.55589   0.00000  Uiso   1.00
H530   H     0.27903   0.28223   0.39387   0.00000  Uiso   1.00
H531   H     0.28735   0.14596   0.43542   0.00000  Uiso   1.00
H532   H     0.22675   0.37235   0.29507   0.00000  Uiso   1.00
H533   H     0.33966   0.32231   0.43966   0.00000  Uiso   1.00
H534   H     0.27027   0.00451   0.49946   0.00000  Uiso   1.00
H535   H     0.14250   0.48189   0.20354   0.00000  Uiso   1.00
H536   H     0.38060   0.37638   0.50842   0.00000  Uiso   1.00
H537   H     0.07657   0.35641   0.53248   0.00000  Uiso   1.00
H538   H     0.07377   0.22421   0.58165   0.00000  Uiso   1.00
H539   H     0.01317   0.45060   0.44130   0.00000  Uiso   1.00
H540   H     0.12608   0.40056   0.58588   0.00000  Uiso   1.00
H541   H     0.09693   0.06802   0.61814   0.00000  Uiso   1.00
H542   H     0.96916   0.54541   0.32221   0.00000  Uiso   1.00
H543   H     0.20725   0.43989   0.62710   0.00000  Uiso   1.00
O544   O     0.18540   0.94796   0.58863   0.00000  Uiso   1.00
O545   O     0.01778   0.57428   0.20039   0.00000  Uiso   1.00
O546   O     0.33015   0.43584   0.60039   0.00000  Uiso   1.00
N547   N     0.22987   0.03760   0.52066   0.00000  Uiso   1.00
N548   N     0.11041   0.48391   0.24398   0.00000  Uiso   1.00
N549   N     0.33300   0.38528   0.52901   0.00000  Uiso   1.00
N550   N     0.13659   0.07177   0.58452   0.00000  Uiso   1.00
N551   N     0.01713   0.51809   0.30784   0.00000  Uiso   1.00
N552   N     0.23973   0.41946   0.59288   0.00000  Uiso   1.00
