data_job_01559
_audit_creation_date              2018-12-19
_audit_creation_method            'Materials Studio'
_symmetry_space_group_name_H-M    'P1'
_symmetry_Int_Tables_number       1
_symmetry_cell_setting            triclinic
loop_
_symmetry_equiv_pos_as_xyz
  x,y,z
_cell_length_a                    20.4612
_cell_length_b                    10.1397
_cell_length_c                    24.6489
_cell_angle_alpha                 90.0000
_cell_angle_beta                  90.0000
_cell_angle_gamma                 90.0000
loop_
_atom_site_label
_atom_site_type_symbol
_atom_site_fract_x
_atom_site_fract_y
_atom_site_fract_z
_atom_site_U_iso_or_equiv
_atom_site_adp_type
_atom_site_occupancy
C1     C     0.61986   0.21688   0.62528   0.00000  Uiso   1.00
C2     C     0.64650   0.25304   0.56945   0.00000  Uiso   1.00
C3     C     0.62343   0.35372   0.53647   0.00000  Uiso   1.00
C4     C     0.65437   0.37097   0.48684   0.00000  Uiso   1.00
C5     C     0.68779   0.43933   0.40257   0.00000  Uiso   1.00
C6     C     0.60105   0.07156   0.62211   0.00000  Uiso   1.00
C7     C     0.53978   0.01966   0.63341   0.00000  Uiso   1.00
C8     C     0.53247   0.88413   0.62812   0.00000  Uiso   1.00
C9     C     0.49534   0.67074   0.62564   0.00000  Uiso   1.00
C10    C     0.67778   0.22433   0.66409   0.00000  Uiso   1.00
C11    C     0.68102   0.30085   0.71069   0.00000  Uiso   1.00
C12    C     0.73831   0.29392   0.74075   0.00000  Uiso   1.00
C13    C     0.82032   0.31773   0.80345   0.00000  Uiso   1.00
C14    C     0.71582   0.06847   0.59581   0.00000  Uiso   1.00
C15    C     0.69862   0.17242   0.55344   0.00000  Uiso   1.00
C16    C     0.72960   0.18952   0.50385   0.00000  Uiso   1.00
C17    C     0.70659   0.29022   0.47080   0.00000  Uiso   1.00
C18    C     0.65317   0.99095   0.60610   0.00000  Uiso   1.00
C19    C     0.64595   0.85546   0.60079   0.00000  Uiso   1.00
C20    C     0.58468   0.80338   0.61208   0.00000  Uiso   1.00
C21    C     0.72991   0.14372   0.64808   0.00000  Uiso   1.00
C22    C     0.78720   0.13666   0.67807   0.00000  Uiso   1.00
C23    C     0.79053   0.21317   0.72471   0.00000  Uiso   1.00
H24    H     0.57928   0.27963   0.63775   0.00000  Uiso   1.00
H25    H     0.58309   0.41608   0.54887   0.00000  Uiso   1.00
H26    H     0.49945   0.08206   0.64580   0.00000  Uiso   1.00
H27    H     0.64068   0.36322   0.72307   0.00000  Uiso   1.00
H28    H     0.61029   0.53177   0.44326   0.00000  Uiso   1.00
H29    H     0.43394   0.82749   0.64766   0.00000  Uiso   1.00
H30    H     0.73174   0.42036   0.81060   0.00000  Uiso   1.00
H31    H     0.75640   0.00570   0.58334   0.00000  Uiso   1.00
H32    H     0.76994   0.12713   0.49147   0.00000  Uiso   1.00
H33    H     0.68630   0.79311   0.58840   0.00000  Uiso   1.00
H34    H     0.82752   0.07427   0.66567   0.00000  Uiso   1.00
H35    H     0.76194   0.29725   0.39668   0.00000  Uiso   1.00
H36    H     0.58559   0.59296   0.60108   0.00000  Uiso   1.00
H37    H     0.88339   0.18583   0.76401   0.00000  Uiso   1.00
O38    O     0.69181   0.49930   0.36051   0.00000  Uiso   1.00
O39    O     0.46045   0.57531   0.62869   0.00000  Uiso   1.00
O40    O     0.85116   0.35314   0.84245   0.00000  Uiso   1.00
N41    N     0.64414   0.45993   0.44491   0.00000  Uiso   1.00
N42    N     0.47925   0.80147   0.63600   0.00000  Uiso   1.00
N43    N     0.75767   0.35572   0.78834   0.00000  Uiso   1.00
N44    N     0.72574   0.33373   0.41984   0.00000  Uiso   1.00
N45    N     0.56086   0.67527   0.61094   0.00000  Uiso   1.00
N46    N     0.83927   0.22953   0.76328   0.00000  Uiso   1.00
C47    C     0.88014   0.28312   0.12528   0.00000  Uiso   1.00
C48    C     0.85350   0.24696   0.06945   0.00000  Uiso   1.00
C49    C     0.87657   0.14628   0.03647   0.00000  Uiso   1.00
C50    C     0.84563   0.12903   0.98684   0.00000  Uiso   1.00
C51    C     0.81221   0.06067   0.90257   0.00000  Uiso   1.00
C52    C     0.89895   0.42844   0.12211   0.00000  Uiso   1.00
C53    C     0.96022   0.48034   0.13341   0.00000  Uiso   1.00
C54    C     0.96753   0.61587   0.12812   0.00000  Uiso   1.00
C55    C     0.00466   0.82926   0.12564   0.00000  Uiso   1.00
C56    C     0.82222   0.27567   0.16409   0.00000  Uiso   1.00
C57    C     0.81898   0.19915   0.21069   0.00000  Uiso   1.00
C58    C     0.76169   0.20608   0.24075   0.00000  Uiso   1.00
C59    C     0.67968   0.18227   0.30345   0.00000  Uiso   1.00
C60    C     0.78418   0.43153   0.09581   0.00000  Uiso   1.00
C61    C     0.80138   0.32758   0.05344   0.00000  Uiso   1.00
C62    C     0.77040   0.31048   0.00385   0.00000  Uiso   1.00
C63    C     0.79341   0.20978   0.97080   0.00000  Uiso   1.00
C64    C     0.84683   0.50905   0.10610   0.00000  Uiso   1.00
C65    C     0.85405   0.64454   0.10079   0.00000  Uiso   1.00
C66    C     0.91532   0.69662   0.11208   0.00000  Uiso   1.00
C67    C     0.77009   0.35628   0.14808   0.00000  Uiso   1.00
C68    C     0.71280   0.36334   0.17807   0.00000  Uiso   1.00
C69    C     0.70947   0.28683   0.22471   0.00000  Uiso   1.00
H70    H     0.92072   0.22037   0.13775   0.00000  Uiso   1.00
H71    H     0.91691   0.08392   0.04887   0.00000  Uiso   1.00
H72    H     0.00055   0.41794   0.14580   0.00000  Uiso   1.00
H73    H     0.85932   0.13678   0.22307   0.00000  Uiso   1.00
H74    H     0.88971   0.96823   0.94326   0.00000  Uiso   1.00
H75    H     0.06606   0.67251   0.14766   0.00000  Uiso   1.00
H76    H     0.76826   0.07964   0.31060   0.00000  Uiso   1.00
H77    H     0.74360   0.49430   0.08334   0.00000  Uiso   1.00
H78    H     0.73006   0.37287   0.99147   0.00000  Uiso   1.00
H79    H     0.81370   0.70689   0.08840   0.00000  Uiso   1.00
H80    H     0.67248   0.42573   0.16567   0.00000  Uiso   1.00
H81    H     0.73806   0.20275   0.89668   0.00000  Uiso   1.00
H82    H     0.91441   0.90704   0.10108   0.00000  Uiso   1.00
H83    H     0.61661   0.31417   0.26401   0.00000  Uiso   1.00
O84    O     0.80819   0.00070   0.86051   0.00000  Uiso   1.00
O85    O     0.03955   0.92469   0.12869   0.00000  Uiso   1.00
O86    O     0.64884   0.14686   0.34245   0.00000  Uiso   1.00
N87    N     0.85586   0.04007   0.94491   0.00000  Uiso   1.00
N88    N     0.02075   0.69853   0.13600   0.00000  Uiso   1.00
N89    N     0.74233   0.14428   0.28834   0.00000  Uiso   1.00
N90    N     0.77426   0.16627   0.91984   0.00000  Uiso   1.00
N91    N     0.93914   0.82473   0.11094   0.00000  Uiso   1.00
N92    N     0.66073   0.27047   0.26328   0.00000  Uiso   1.00
C93    C     0.38014   0.21688   0.87472   0.00000  Uiso   1.00
C94    C     0.35350   0.25304   0.93055   0.00000  Uiso   1.00
C95    C     0.37657   0.35372   0.96353   0.00000  Uiso   1.00
C96    C     0.34563   0.37097   0.01316   0.00000  Uiso   1.00
C97    C     0.31221   0.43933   0.09743   0.00000  Uiso   1.00
C98    C     0.39895   0.07156   0.87789   0.00000  Uiso   1.00
C99    C     0.46022   0.01966   0.86659   0.00000  Uiso   1.00
C100   C     0.46753   0.88413   0.87188   0.00000  Uiso   1.00
C101   C     0.50466   0.67074   0.87436   0.00000  Uiso   1.00
C102   C     0.32222   0.22433   0.83591   0.00000  Uiso   1.00
C103   C     0.31898   0.30085   0.78931   0.00000  Uiso   1.00
C104   C     0.26169   0.29392   0.75925   0.00000  Uiso   1.00
C105   C     0.17968   0.31773   0.69655   0.00000  Uiso   1.00
C106   C     0.28418   0.06847   0.90419   0.00000  Uiso   1.00
C107   C     0.30138   0.17242   0.94656   0.00000  Uiso   1.00
C108   C     0.27040   0.18952   0.99615   0.00000  Uiso   1.00
C109   C     0.29341   0.29022   0.02920   0.00000  Uiso   1.00
C110   C     0.34683   0.99095   0.89390   0.00000  Uiso   1.00
C111   C     0.35405   0.85546   0.89921   0.00000  Uiso   1.00
C112   C     0.41532   0.80338   0.88792   0.00000  Uiso   1.00
C113   C     0.27009   0.14372   0.85192   0.00000  Uiso   1.00
C114   C     0.21280   0.13666   0.82193   0.00000  Uiso   1.00
C115   C     0.20947   0.21317   0.77529   0.00000  Uiso   1.00
H116   H     0.42072   0.27963   0.86225   0.00000  Uiso   1.00
H117   H     0.41691   0.41608   0.95113   0.00000  Uiso   1.00
H118   H     0.50055   0.08206   0.85420   0.00000  Uiso   1.00
H119   H     0.35932   0.36322   0.77693   0.00000  Uiso   1.00
H120   H     0.38971   0.53177   0.05674   0.00000  Uiso   1.00
H121   H     0.56606   0.82749   0.85234   0.00000  Uiso   1.00
H122   H     0.26826   0.42036   0.68940   0.00000  Uiso   1.00
H123   H     0.24360   0.00570   0.91666   0.00000  Uiso   1.00
H124   H     0.23006   0.12713   0.00853   0.00000  Uiso   1.00
H125   H     0.31370   0.79311   0.91160   0.00000  Uiso   1.00
H126   H     0.17248   0.07427   0.83433   0.00000  Uiso   1.00
H127   H     0.23806   0.29725   0.10332   0.00000  Uiso   1.00
H128   H     0.41441   0.59296   0.89892   0.00000  Uiso   1.00
H129   H     0.11661   0.18583   0.73599   0.00000  Uiso   1.00
O130   O     0.30819   0.49930   0.13949   0.00000  Uiso   1.00
O131   O     0.53955   0.57531   0.87131   0.00000  Uiso   1.00
O132   O     0.14884   0.35314   0.65755   0.00000  Uiso   1.00
N133   N     0.35586   0.45993   0.05509   0.00000  Uiso   1.00
N134   N     0.52075   0.80147   0.86400   0.00000  Uiso   1.00
N135   N     0.24233   0.35572   0.71166   0.00000  Uiso   1.00
N136   N     0.27426   0.33373   0.08016   0.00000  Uiso   1.00
N137   N     0.43914   0.67527   0.88906   0.00000  Uiso   1.00
N138   N     0.16073   0.22953   0.73672   0.00000  Uiso   1.00
C139   C     0.11986   0.28312   0.37472   0.00000  Uiso   1.00
C140   C     0.14650   0.24696   0.43055   0.00000  Uiso   1.00
C141   C     0.12343   0.14628   0.46353   0.00000  Uiso   1.00
C142   C     0.15437   0.12903   0.51316   0.00000  Uiso   1.00
C143   C     0.18779   0.06067   0.59743   0.00000  Uiso   1.00
C144   C     0.10105   0.42844   0.37789   0.00000  Uiso   1.00
C145   C     0.03978   0.48034   0.36659   0.00000  Uiso   1.00
C146   C     0.03247   0.61587   0.37188   0.00000  Uiso   1.00
C147   C     0.99534   0.82926   0.37436   0.00000  Uiso   1.00
C148   C     0.17778   0.27567   0.33591   0.00000  Uiso   1.00
C149   C     0.18102   0.19915   0.28931   0.00000  Uiso   1.00
C150   C     0.23831   0.20608   0.25925   0.00000  Uiso   1.00
C151   C     0.32032   0.18227   0.19655   0.00000  Uiso   1.00
C152   C     0.21582   0.43153   0.40419   0.00000  Uiso   1.00
C153   C     0.19862   0.32758   0.44656   0.00000  Uiso   1.00
C154   C     0.22960   0.31048   0.49615   0.00000  Uiso   1.00
C155   C     0.20659   0.20978   0.52920   0.00000  Uiso   1.00
C156   C     0.15317   0.50905   0.39390   0.00000  Uiso   1.00
C157   C     0.14595   0.64454   0.39921   0.00000  Uiso   1.00
C158   C     0.08468   0.69662   0.38792   0.00000  Uiso   1.00
C159   C     0.22991   0.35628   0.35192   0.00000  Uiso   1.00
C160   C     0.28720   0.36334   0.32193   0.00000  Uiso   1.00
C161   C     0.29053   0.28683   0.27529   0.00000  Uiso   1.00
H162   H     0.07928   0.22037   0.36225   0.00000  Uiso   1.00
H163   H     0.08309   0.08392   0.45113   0.00000  Uiso   1.00
H164   H     0.99945   0.41794   0.35420   0.00000  Uiso   1.00
H165   H     0.14068   0.13678   0.27693   0.00000  Uiso   1.00
H166   H     0.11029   0.96823   0.55674   0.00000  Uiso   1.00
H167   H     0.93394   0.67251   0.35234   0.00000  Uiso   1.00
H168   H     0.23174   0.07964   0.18940   0.00000  Uiso   1.00
H169   H     0.25640   0.49430   0.41666   0.00000  Uiso   1.00
H170   H     0.26994   0.37287   0.50853   0.00000  Uiso   1.00
H171   H     0.18630   0.70689   0.41160   0.00000  Uiso   1.00
H172   H     0.32752   0.42573   0.33433   0.00000  Uiso   1.00
H173   H     0.26194   0.20275   0.60332   0.00000  Uiso   1.00
H174   H     0.08559   0.90704   0.39892   0.00000  Uiso   1.00
H175   H     0.38339   0.31417   0.23599   0.00000  Uiso   1.00
O176   O     0.19181   0.00070   0.63949   0.00000  Uiso   1.00
O177   O     0.96045   0.92469   0.37131   0.00000  Uiso   1.00
O178   O     0.35116   0.14686   0.15755   0.00000  Uiso   1.00
N179   N     0.14414   0.04007   0.55509   0.00000  Uiso   1.00
N180   N     0.97925   0.69853   0.36400   0.00000  Uiso   1.00
N181   N     0.25767   0.14428   0.21166   0.00000  Uiso   1.00
N182   N     0.22574   0.16627   0.58016   0.00000  Uiso   1.00
N183   N     0.06086   0.82473   0.38906   0.00000  Uiso   1.00
N184   N     0.33927   0.27047   0.23672   0.00000  Uiso   1.00
C185   C     0.38014   0.78312   0.37472   0.00000  Uiso   1.00
C186   C     0.35350   0.74696   0.43055   0.00000  Uiso   1.00
C187   C     0.37657   0.64628   0.46353   0.00000  Uiso   1.00
C188   C     0.34563   0.62903   0.51316   0.00000  Uiso   1.00
C189   C     0.31221   0.56067   0.59743   0.00000  Uiso   1.00
C190   C     0.39895   0.92844   0.37789   0.00000  Uiso   1.00
C191   C     0.46022   0.98034   0.36659   0.00000  Uiso   1.00
C192   C     0.46753   0.11587   0.37188   0.00000  Uiso   1.00
C193   C     0.50466   0.32926   0.37436   0.00000  Uiso   1.00
C194   C     0.32222   0.77567   0.33591   0.00000  Uiso   1.00
C195   C     0.31898   0.69915   0.28931   0.00000  Uiso   1.00
C196   C     0.26169   0.70608   0.25925   0.00000  Uiso   1.00
C197   C     0.17968   0.68227   0.19655   0.00000  Uiso   1.00
C198   C     0.28418   0.93153   0.40419   0.00000  Uiso   1.00
C199   C     0.30138   0.82758   0.44656   0.00000  Uiso   1.00
C200   C     0.27040   0.81048   0.49615   0.00000  Uiso   1.00
C201   C     0.29341   0.70978   0.52920   0.00000  Uiso   1.00
C202   C     0.34683   0.00905   0.39390   0.00000  Uiso   1.00
C203   C     0.35405   0.14454   0.39921   0.00000  Uiso   1.00
C204   C     0.41532   0.19662   0.38792   0.00000  Uiso   1.00
C205   C     0.27009   0.85628   0.35192   0.00000  Uiso   1.00
C206   C     0.21280   0.86334   0.32193   0.00000  Uiso   1.00
C207   C     0.20947   0.78683   0.27529   0.00000  Uiso   1.00
H208   H     0.42072   0.72037   0.36225   0.00000  Uiso   1.00
H209   H     0.41691   0.58392   0.45113   0.00000  Uiso   1.00
H210   H     0.50055   0.91794   0.35420   0.00000  Uiso   1.00
H211   H     0.35932   0.63678   0.27693   0.00000  Uiso   1.00
H212   H     0.38971   0.46823   0.55674   0.00000  Uiso   1.00
H213   H     0.56606   0.17251   0.35234   0.00000  Uiso   1.00
H214   H     0.26826   0.57964   0.18940   0.00000  Uiso   1.00
H215   H     0.24360   0.99430   0.41666   0.00000  Uiso   1.00
H216   H     0.23006   0.87287   0.50853   0.00000  Uiso   1.00
H217   H     0.31370   0.20689   0.41160   0.00000  Uiso   1.00
H218   H     0.17248   0.92573   0.33433   0.00000  Uiso   1.00
H219   H     0.23806   0.70275   0.60332   0.00000  Uiso   1.00
H220   H     0.41441   0.40704   0.39892   0.00000  Uiso   1.00
H221   H     0.11661   0.81417   0.23599   0.00000  Uiso   1.00
O222   O     0.30819   0.50070   0.63949   0.00000  Uiso   1.00
O223   O     0.53955   0.42469   0.37131   0.00000  Uiso   1.00
O224   O     0.14884   0.64686   0.15755   0.00000  Uiso   1.00
N225   N     0.35586   0.54007   0.55509   0.00000  Uiso   1.00
N226   N     0.52075   0.19853   0.36400   0.00000  Uiso   1.00
N227   N     0.24233   0.64428   0.21166   0.00000  Uiso   1.00
N228   N     0.27426   0.66627   0.58016   0.00000  Uiso   1.00
N229   N     0.43914   0.32473   0.38906   0.00000  Uiso   1.00
N230   N     0.16073   0.77047   0.23672   0.00000  Uiso   1.00
C231   C     0.11986   0.71688   0.87472   0.00000  Uiso   1.00
C232   C     0.14650   0.75304   0.93055   0.00000  Uiso   1.00
C233   C     0.12343   0.85372   0.96353   0.00000  Uiso   1.00
C234   C     0.15437   0.87097   0.01316   0.00000  Uiso   1.00
C235   C     0.18779   0.93933   0.09743   0.00000  Uiso   1.00
C236   C     0.10105   0.57156   0.87789   0.00000  Uiso   1.00
C237   C     0.03978   0.51966   0.86659   0.00000  Uiso   1.00
C238   C     0.03247   0.38413   0.87188   0.00000  Uiso   1.00
C239   C     0.99534   0.17074   0.87436   0.00000  Uiso   1.00
C240   C     0.17778   0.72433   0.83591   0.00000  Uiso   1.00
C241   C     0.18102   0.80085   0.78931   0.00000  Uiso   1.00
C242   C     0.23831   0.79392   0.75925   0.00000  Uiso   1.00
C243   C     0.32032   0.81773   0.69655   0.00000  Uiso   1.00
C244   C     0.21582   0.56847   0.90419   0.00000  Uiso   1.00
C245   C     0.19862   0.67242   0.94656   0.00000  Uiso   1.00
C246   C     0.22960   0.68952   0.99615   0.00000  Uiso   1.00
C247   C     0.20659   0.79022   0.02920   0.00000  Uiso   1.00
C248   C     0.15317   0.49095   0.89390   0.00000  Uiso   1.00
C249   C     0.14595   0.35546   0.89921   0.00000  Uiso   1.00
C250   C     0.08468   0.30338   0.88792   0.00000  Uiso   1.00
C251   C     0.22991   0.64372   0.85192   0.00000  Uiso   1.00
C252   C     0.28720   0.63666   0.82193   0.00000  Uiso   1.00
C253   C     0.29053   0.71317   0.77529   0.00000  Uiso   1.00
H254   H     0.07928   0.77963   0.86225   0.00000  Uiso   1.00
H255   H     0.08309   0.91608   0.95113   0.00000  Uiso   1.00
H256   H     0.99945   0.58206   0.85420   0.00000  Uiso   1.00
H257   H     0.14068   0.86322   0.77693   0.00000  Uiso   1.00
H258   H     0.11029   0.03177   0.05674   0.00000  Uiso   1.00
H259   H     0.93394   0.32749   0.85234   0.00000  Uiso   1.00
H260   H     0.23174   0.92036   0.68940   0.00000  Uiso   1.00
H261   H     0.25640   0.50570   0.91666   0.00000  Uiso   1.00
H262   H     0.26994   0.62713   0.00853   0.00000  Uiso   1.00
H263   H     0.18630   0.29311   0.91160   0.00000  Uiso   1.00
H264   H     0.32752   0.57427   0.83433   0.00000  Uiso   1.00
H265   H     0.26194   0.79725   0.10332   0.00000  Uiso   1.00
H266   H     0.08559   0.09296   0.89892   0.00000  Uiso   1.00
H267   H     0.38339   0.68583   0.73599   0.00000  Uiso   1.00
O268   O     0.19181   0.99930   0.13949   0.00000  Uiso   1.00
O269   O     0.96045   0.07531   0.87131   0.00000  Uiso   1.00
O270   O     0.35116   0.85314   0.65755   0.00000  Uiso   1.00
N271   N     0.14414   0.95993   0.05509   0.00000  Uiso   1.00
N272   N     0.97925   0.30147   0.86400   0.00000  Uiso   1.00
N273   N     0.25767   0.85572   0.71166   0.00000  Uiso   1.00
N274   N     0.22574   0.83373   0.08016   0.00000  Uiso   1.00
N275   N     0.06086   0.17527   0.88906   0.00000  Uiso   1.00
N276   N     0.33927   0.72953   0.73672   0.00000  Uiso   1.00
C277   C     0.61986   0.78312   0.12528   0.00000  Uiso   1.00
C278   C     0.64650   0.74696   0.06945   0.00000  Uiso   1.00
C279   C     0.62343   0.64628   0.03647   0.00000  Uiso   1.00
C280   C     0.65437   0.62903   0.98684   0.00000  Uiso   1.00
C281   C     0.68779   0.56067   0.90257   0.00000  Uiso   1.00
C282   C     0.60105   0.92844   0.12211   0.00000  Uiso   1.00
C283   C     0.53978   0.98034   0.13341   0.00000  Uiso   1.00
C284   C     0.53247   0.11587   0.12812   0.00000  Uiso   1.00
C285   C     0.49534   0.32926   0.12564   0.00000  Uiso   1.00
C286   C     0.67778   0.77567   0.16409   0.00000  Uiso   1.00
C287   C     0.68102   0.69915   0.21069   0.00000  Uiso   1.00
C288   C     0.73831   0.70608   0.24075   0.00000  Uiso   1.00
C289   C     0.82032   0.68227   0.30345   0.00000  Uiso   1.00
C290   C     0.71582   0.93153   0.09581   0.00000  Uiso   1.00
C291   C     0.69862   0.82758   0.05344   0.00000  Uiso   1.00
C292   C     0.72960   0.81048   0.00385   0.00000  Uiso   1.00
C293   C     0.70659   0.70978   0.97080   0.00000  Uiso   1.00
C294   C     0.65317   0.00905   0.10610   0.00000  Uiso   1.00
C295   C     0.64595   0.14454   0.10079   0.00000  Uiso   1.00
C296   C     0.58468   0.19662   0.11208   0.00000  Uiso   1.00
C297   C     0.72991   0.85628   0.14808   0.00000  Uiso   1.00
C298   C     0.78720   0.86334   0.17807   0.00000  Uiso   1.00
C299   C     0.79053   0.78683   0.22471   0.00000  Uiso   1.00
H300   H     0.57928   0.72037   0.13775   0.00000  Uiso   1.00
H301   H     0.58309   0.58392   0.04887   0.00000  Uiso   1.00
H302   H     0.49945   0.91794   0.14580   0.00000  Uiso   1.00
H303   H     0.64068   0.63678   0.22307   0.00000  Uiso   1.00
H304   H     0.61029   0.46823   0.94326   0.00000  Uiso   1.00
H305   H     0.43394   0.17251   0.14766   0.00000  Uiso   1.00
H306   H     0.73174   0.57964   0.31060   0.00000  Uiso   1.00
H307   H     0.75640   0.99430   0.08334   0.00000  Uiso   1.00
H308   H     0.76994   0.87287   0.99147   0.00000  Uiso   1.00
H309   H     0.68630   0.20689   0.08840   0.00000  Uiso   1.00
H310   H     0.82752   0.92573   0.16567   0.00000  Uiso   1.00
H311   H     0.76194   0.70275   0.89668   0.00000  Uiso   1.00
H312   H     0.58559   0.40704   0.10108   0.00000  Uiso   1.00
H313   H     0.88339   0.81417   0.26401   0.00000  Uiso   1.00
O314   O     0.69181   0.50070   0.86051   0.00000  Uiso   1.00
O315   O     0.46045   0.42469   0.12869   0.00000  Uiso   1.00
O316   O     0.85116   0.64686   0.34245   0.00000  Uiso   1.00
N317   N     0.64414   0.54007   0.94491   0.00000  Uiso   1.00
N318   N     0.47925   0.19853   0.13600   0.00000  Uiso   1.00
N319   N     0.75767   0.64428   0.28834   0.00000  Uiso   1.00
N320   N     0.72574   0.66627   0.91984   0.00000  Uiso   1.00
N321   N     0.56086   0.32473   0.11094   0.00000  Uiso   1.00
N322   N     0.83927   0.77047   0.26328   0.00000  Uiso   1.00
C323   C     0.88014   0.71688   0.62528   0.00000  Uiso   1.00
C324   C     0.85350   0.75304   0.56945   0.00000  Uiso   1.00
C325   C     0.87657   0.85372   0.53647   0.00000  Uiso   1.00
C326   C     0.84563   0.87097   0.48684   0.00000  Uiso   1.00
C327   C     0.81221   0.93933   0.40257   0.00000  Uiso   1.00
C328   C     0.89895   0.57156   0.62211   0.00000  Uiso   1.00
C329   C     0.96022   0.51966   0.63341   0.00000  Uiso   1.00
C330   C     0.96753   0.38413   0.62812   0.00000  Uiso   1.00
C331   C     0.00466   0.17074   0.62564   0.00000  Uiso   1.00
C332   C     0.82222   0.72433   0.66409   0.00000  Uiso   1.00
C333   C     0.81898   0.80085   0.71069   0.00000  Uiso   1.00
C334   C     0.76169   0.79392   0.74075   0.00000  Uiso   1.00
C335   C     0.67968   0.81773   0.80345   0.00000  Uiso   1.00
C336   C     0.78418   0.56847   0.59581   0.00000  Uiso   1.00
C337   C     0.80138   0.67242   0.55344   0.00000  Uiso   1.00
C338   C     0.77040   0.68952   0.50385   0.00000  Uiso   1.00
C339   C     0.79341   0.79022   0.47080   0.00000  Uiso   1.00
C340   C     0.84683   0.49095   0.60610   0.00000  Uiso   1.00
C341   C     0.85405   0.35546   0.60079   0.00000  Uiso   1.00
C342   C     0.91532   0.30338   0.61208   0.00000  Uiso   1.00
C343   C     0.77009   0.64372   0.64808   0.00000  Uiso   1.00
C344   C     0.71280   0.63666   0.67807   0.00000  Uiso   1.00
C345   C     0.70947   0.71317   0.72471   0.00000  Uiso   1.00
H346   H     0.92072   0.77963   0.63775   0.00000  Uiso   1.00
H347   H     0.91691   0.91608   0.54887   0.00000  Uiso   1.00
H348   H     0.00055   0.58206   0.64580   0.00000  Uiso   1.00
H349   H     0.85932   0.86322   0.72307   0.00000  Uiso   1.00
H350   H     0.88971   0.03177   0.44326   0.00000  Uiso   1.00
H351   H     0.06606   0.32749   0.64766   0.00000  Uiso   1.00
H352   H     0.76826   0.92036   0.81060   0.00000  Uiso   1.00
H353   H     0.74360   0.50570   0.58334   0.00000  Uiso   1.00
H354   H     0.73006   0.62713   0.49147   0.00000  Uiso   1.00
H355   H     0.81370   0.29311   0.58840   0.00000  Uiso   1.00
H356   H     0.67248   0.57427   0.66567   0.00000  Uiso   1.00
H357   H     0.73806   0.79725   0.39668   0.00000  Uiso   1.00
H358   H     0.91441   0.09296   0.60108   0.00000  Uiso   1.00
H359   H     0.61661   0.68583   0.76401   0.00000  Uiso   1.00
O360   O     0.80819   0.99930   0.36051   0.00000  Uiso   1.00
O361   O     0.03955   0.07531   0.62869   0.00000  Uiso   1.00
O362   O     0.64884   0.85314   0.84245   0.00000  Uiso   1.00
N363   N     0.85586   0.95993   0.44491   0.00000  Uiso   1.00
N364   N     0.02075   0.30147   0.63600   0.00000  Uiso   1.00
N365   N     0.74233   0.85572   0.78834   0.00000  Uiso   1.00
N366   N     0.77426   0.83373   0.41984   0.00000  Uiso   1.00
N367   N     0.93914   0.17527   0.61094   0.00000  Uiso   1.00
N368   N     0.66073   0.72953   0.76328   0.00000  Uiso   1.00
