data_job_02212
_audit_creation_date              2018-12-19
_audit_creation_method            'Materials Studio'
_symmetry_space_group_name_H-M    'P1'
_symmetry_Int_Tables_number       1
_symmetry_cell_setting            triclinic
loop_
_symmetry_equiv_pos_as_xyz
  x,y,z
_cell_length_a                    30.3860
_cell_length_b                    7.2618
_cell_length_c                    12.6626
_cell_angle_alpha                 90.0000
_cell_angle_beta                  82.8146
_cell_angle_gamma                 90.0000
loop_
_atom_site_label
_atom_site_type_symbol
_atom_site_fract_x
_atom_site_fract_y
_atom_site_fract_z
_atom_site_U_iso_or_equiv
_atom_site_adp_type
_atom_site_occupancy
C1     C     0.61497   0.54318   0.12377   0.00000  Uiso   1.00
C2     C     0.56516   0.52610   0.15736   0.00000  Uiso   1.00
C3     C     0.53447   0.66774   0.15799   0.00000  Uiso   1.00
C4     C     0.49045   0.62413   0.19147   0.00000  Uiso   1.00
C5     C     0.41507   0.62483   0.23886   0.00000  Uiso   1.00
C6     C     0.63717   0.47617   0.21825   0.00000  Uiso   1.00
C7     C     0.66703   0.57583   0.27007   0.00000  Uiso   1.00
C8     C     0.68362   0.49017   0.35480   0.00000  Uiso   1.00
C9     C     0.72006   0.41331   0.49668   0.00000  Uiso   1.00
C10    C     0.62639   0.40159   0.03567   0.00000  Uiso   1.00
C11    C     0.64719   0.43851   0.93398   0.00000  Uiso   1.00
C12    C     0.65472   0.29004   0.86500   0.00000  Uiso   1.00
C13    C     0.67442   0.09738   0.72339   0.00000  Uiso   1.00
C14    C     0.59136   0.21384   0.18210   0.00000  Uiso   1.00
C15    C     0.55234   0.34721   0.18905   0.00000  Uiso   1.00
C16    C     0.50835   0.30336   0.22253   0.00000  Uiso   1.00
C17    C     0.47760   0.44492   0.22320   0.00000  Uiso   1.00
C18    C     0.62435   0.29729   0.24994   0.00000  Uiso   1.00
C19    C     0.64091   0.21145   0.33461   0.00000  Uiso   1.00
C20    C     0.67078   0.31096   0.38654   0.00000  Uiso   1.00
C21    C     0.61357   0.22270   0.06736   0.00000  Uiso   1.00
C22    C     0.62107   0.07413   0.99852   0.00000  Uiso   1.00
C23    C     0.64188   0.11083   0.89674   0.00000  Uiso   1.00
H24    H     0.62495   0.68245   0.09910   0.00000  Uiso   1.00
H25    H     0.54441   0.80617   0.13347   0.00000  Uiso   1.00
H26    H     0.67695   0.71425   0.24552   0.00000  Uiso   1.00
H27    H     0.65711   0.57696   0.90949   0.00000  Uiso   1.00
H28    H     0.44946   0.86445   0.18558   0.00000  Uiso   1.00
H29    H     0.72894   0.67063   0.42183   0.00000  Uiso   1.00
H30    H     0.68711   0.38112   0.71323   0.00000  Uiso   1.00
H31    H     0.58138   0.07456   0.20677   0.00000  Uiso   1.00
H32    H     0.49844   0.16492   0.24704   0.00000  Uiso   1.00
H33    H     0.63098   0.07301   0.35910   0.00000  Uiso   1.00
H34    H     0.61114   0.93572   0.02307   0.00000  Uiso   1.00
H35    H     0.41215   0.34400   0.27777   0.00000  Uiso   1.00
H36    H     0.69163   0.15017   0.51401   0.00000  Uiso   1.00
H37    H     0.64980   0.86066   0.80542   0.00000  Uiso   1.00
O38    O     0.37704   0.67465   0.25626   0.00000  Uiso   1.00
O39    O     0.74370   0.42035   0.56619   0.00000  Uiso   1.00
O40    O     0.68882   0.04053   0.63653   0.00000  Uiso   1.00
N41    N     0.45206   0.72955   0.20173   0.00000  Uiso   1.00
N42    N     0.71335   0.54836   0.42262   0.00000  Uiso   1.00
N43    N     0.67425   0.27768   0.76015   0.00000  Uiso   1.00
N44    N     0.43199   0.44950   0.25133   0.00000  Uiso   1.00
N45    N     0.69327   0.26830   0.47222   0.00000  Uiso   1.00
N46    N     0.65418   0.99763   0.80975   0.00000  Uiso   1.00
C47    C     0.11497   0.04318   0.12377   0.00000  Uiso   1.00
C48    C     0.06516   0.02610   0.15736   0.00000  Uiso   1.00
C49    C     0.03447   0.16774   0.15799   0.00000  Uiso   1.00
C50    C     0.99045   0.12413   0.19147   0.00000  Uiso   1.00
C51    C     0.91507   0.12483   0.23886   0.00000  Uiso   1.00
C52    C     0.13717   0.97617   0.21825   0.00000  Uiso   1.00
C53    C     0.16703   0.07583   0.27007   0.00000  Uiso   1.00
C54    C     0.18362   0.99017   0.35480   0.00000  Uiso   1.00
C55    C     0.22006   0.91331   0.49668   0.00000  Uiso   1.00
C56    C     0.12639   0.90159   0.03567   0.00000  Uiso   1.00
C57    C     0.14719   0.93851   0.93398   0.00000  Uiso   1.00
C58    C     0.15472   0.79004   0.86500   0.00000  Uiso   1.00
C59    C     0.17442   0.59738   0.72339   0.00000  Uiso   1.00
C60    C     0.09136   0.71384   0.18210   0.00000  Uiso   1.00
C61    C     0.05234   0.84721   0.18905   0.00000  Uiso   1.00
C62    C     0.00835   0.80336   0.22253   0.00000  Uiso   1.00
C63    C     0.97760   0.94492   0.22320   0.00000  Uiso   1.00
C64    C     0.12435   0.79729   0.24994   0.00000  Uiso   1.00
C65    C     0.14091   0.71145   0.33461   0.00000  Uiso   1.00
C66    C     0.17078   0.81096   0.38654   0.00000  Uiso   1.00
C67    C     0.11357   0.72270   0.06736   0.00000  Uiso   1.00
C68    C     0.12107   0.57413   0.99852   0.00000  Uiso   1.00
C69    C     0.14188   0.61083   0.89674   0.00000  Uiso   1.00
H70    H     0.12495   0.18245   0.09910   0.00000  Uiso   1.00
H71    H     0.04441   0.30617   0.13347   0.00000  Uiso   1.00
H72    H     0.17695   0.21425   0.24552   0.00000  Uiso   1.00
H73    H     0.15711   0.07696   0.90949   0.00000  Uiso   1.00
H74    H     0.94946   0.36445   0.18558   0.00000  Uiso   1.00
H75    H     0.22894   0.17063   0.42183   0.00000  Uiso   1.00
H76    H     0.18711   0.88112   0.71323   0.00000  Uiso   1.00
H77    H     0.08138   0.57456   0.20677   0.00000  Uiso   1.00
H78    H     0.99844   0.66492   0.24704   0.00000  Uiso   1.00
H79    H     0.13098   0.57301   0.35910   0.00000  Uiso   1.00
H80    H     0.11114   0.43572   0.02307   0.00000  Uiso   1.00
H81    H     0.91215   0.84400   0.27777   0.00000  Uiso   1.00
H82    H     0.19163   0.65017   0.51401   0.00000  Uiso   1.00
H83    H     0.14980   0.36066   0.80542   0.00000  Uiso   1.00
O84    O     0.87704   0.17465   0.25626   0.00000  Uiso   1.00
O85    O     0.24370   0.92035   0.56619   0.00000  Uiso   1.00
O86    O     0.18882   0.54053   0.63653   0.00000  Uiso   1.00
N87    N     0.95206   0.22955   0.20173   0.00000  Uiso   1.00
N88    N     0.21335   0.04836   0.42262   0.00000  Uiso   1.00
N89    N     0.17425   0.77768   0.76015   0.00000  Uiso   1.00
N90    N     0.93199   0.94950   0.25133   0.00000  Uiso   1.00
N91    N     0.19327   0.76830   0.47222   0.00000  Uiso   1.00
N92    N     0.15418   0.49763   0.80975   0.00000  Uiso   1.00
C93    C     0.38503   0.54318   0.87623   0.00000  Uiso   1.00
C94    C     0.43484   0.52610   0.84264   0.00000  Uiso   1.00
C95    C     0.46553   0.66774   0.84201   0.00000  Uiso   1.00
C96    C     0.50955   0.62413   0.80853   0.00000  Uiso   1.00
C97    C     0.58493   0.62483   0.76114   0.00000  Uiso   1.00
C98    C     0.36283   0.47617   0.78175   0.00000  Uiso   1.00
C99    C     0.33297   0.57583   0.72993   0.00000  Uiso   1.00
C100   C     0.31638   0.49017   0.64520   0.00000  Uiso   1.00
C101   C     0.27994   0.41331   0.50332   0.00000  Uiso   1.00
C102   C     0.37361   0.40159   0.96433   0.00000  Uiso   1.00
C103   C     0.35281   0.43851   0.06602   0.00000  Uiso   1.00
C104   C     0.34528   0.29004   0.13500   0.00000  Uiso   1.00
C105   C     0.32558   0.09738   0.27661   0.00000  Uiso   1.00
C106   C     0.40864   0.21384   0.81790   0.00000  Uiso   1.00
C107   C     0.44766   0.34721   0.81095   0.00000  Uiso   1.00
C108   C     0.49165   0.30336   0.77747   0.00000  Uiso   1.00
C109   C     0.52240   0.44492   0.77680   0.00000  Uiso   1.00
C110   C     0.37565   0.29729   0.75006   0.00000  Uiso   1.00
C111   C     0.35909   0.21145   0.66539   0.00000  Uiso   1.00
C112   C     0.32922   0.31096   0.61346   0.00000  Uiso   1.00
C113   C     0.38643   0.22270   0.93264   0.00000  Uiso   1.00
C114   C     0.37893   0.07413   0.00148   0.00000  Uiso   1.00
C115   C     0.35812   0.11083   0.10326   0.00000  Uiso   1.00
H116   H     0.37505   0.68245   0.90090   0.00000  Uiso   1.00
H117   H     0.45559   0.80617   0.86653   0.00000  Uiso   1.00
H118   H     0.32305   0.71425   0.75448   0.00000  Uiso   1.00
H119   H     0.34289   0.57696   0.09051   0.00000  Uiso   1.00
H120   H     0.55054   0.86445   0.81442   0.00000  Uiso   1.00
H121   H     0.27106   0.67063   0.57817   0.00000  Uiso   1.00
H122   H     0.31289   0.38112   0.28677   0.00000  Uiso   1.00
H123   H     0.41862   0.07456   0.79323   0.00000  Uiso   1.00
H124   H     0.50156   0.16492   0.75296   0.00000  Uiso   1.00
H125   H     0.36902   0.07301   0.64090   0.00000  Uiso   1.00
H126   H     0.38886   0.93572   0.97693   0.00000  Uiso   1.00
H127   H     0.58785   0.34400   0.72223   0.00000  Uiso   1.00
H128   H     0.30837   0.15017   0.48599   0.00000  Uiso   1.00
H129   H     0.35020   0.86066   0.19458   0.00000  Uiso   1.00
O130   O     0.62296   0.67465   0.74374   0.00000  Uiso   1.00
O131   O     0.25630   0.42035   0.43381   0.00000  Uiso   1.00
O132   O     0.31118   0.04053   0.36347   0.00000  Uiso   1.00
N133   N     0.54794   0.72955   0.79827   0.00000  Uiso   1.00
N134   N     0.28665   0.54836   0.57738   0.00000  Uiso   1.00
N135   N     0.32575   0.27768   0.23985   0.00000  Uiso   1.00
N136   N     0.56801   0.44950   0.74867   0.00000  Uiso   1.00
N137   N     0.30673   0.26830   0.52778   0.00000  Uiso   1.00
N138   N     0.34582   0.99763   0.19025   0.00000  Uiso   1.00
C139   C     0.88503   0.04318   0.87623   0.00000  Uiso   1.00
C140   C     0.93484   0.02610   0.84264   0.00000  Uiso   1.00
C141   C     0.96553   0.16774   0.84201   0.00000  Uiso   1.00
C142   C     0.00955   0.12413   0.80853   0.00000  Uiso   1.00
C143   C     0.08493   0.12483   0.76114   0.00000  Uiso   1.00
C144   C     0.86283   0.97617   0.78175   0.00000  Uiso   1.00
C145   C     0.83297   0.07583   0.72993   0.00000  Uiso   1.00
C146   C     0.81638   0.99017   0.64520   0.00000  Uiso   1.00
C147   C     0.77994   0.91331   0.50332   0.00000  Uiso   1.00
C148   C     0.87361   0.90159   0.96433   0.00000  Uiso   1.00
C149   C     0.85281   0.93851   0.06602   0.00000  Uiso   1.00
C150   C     0.84528   0.79004   0.13500   0.00000  Uiso   1.00
C151   C     0.82558   0.59738   0.27661   0.00000  Uiso   1.00
C152   C     0.90864   0.71384   0.81790   0.00000  Uiso   1.00
C153   C     0.94766   0.84721   0.81095   0.00000  Uiso   1.00
C154   C     0.99165   0.80336   0.77747   0.00000  Uiso   1.00
C155   C     0.02240   0.94492   0.77680   0.00000  Uiso   1.00
C156   C     0.87565   0.79729   0.75006   0.00000  Uiso   1.00
C157   C     0.85909   0.71145   0.66539   0.00000  Uiso   1.00
C158   C     0.82922   0.81096   0.61346   0.00000  Uiso   1.00
C159   C     0.88643   0.72270   0.93264   0.00000  Uiso   1.00
C160   C     0.87893   0.57413   0.00148   0.00000  Uiso   1.00
C161   C     0.85812   0.61083   0.10326   0.00000  Uiso   1.00
H162   H     0.87505   0.18245   0.90090   0.00000  Uiso   1.00
H163   H     0.95559   0.30617   0.86653   0.00000  Uiso   1.00
H164   H     0.82305   0.21425   0.75448   0.00000  Uiso   1.00
H165   H     0.84289   0.07696   0.09051   0.00000  Uiso   1.00
H166   H     0.05054   0.36445   0.81442   0.00000  Uiso   1.00
H167   H     0.77106   0.17063   0.57817   0.00000  Uiso   1.00
H168   H     0.81289   0.88112   0.28677   0.00000  Uiso   1.00
H169   H     0.91862   0.57456   0.79323   0.00000  Uiso   1.00
H170   H     0.00156   0.66492   0.75296   0.00000  Uiso   1.00
H171   H     0.86902   0.57301   0.64090   0.00000  Uiso   1.00
H172   H     0.88886   0.43572   0.97693   0.00000  Uiso   1.00
H173   H     0.08785   0.84400   0.72223   0.00000  Uiso   1.00
H174   H     0.80837   0.65017   0.48599   0.00000  Uiso   1.00
H175   H     0.85020   0.36066   0.19458   0.00000  Uiso   1.00
O176   O     0.12296   0.17465   0.74374   0.00000  Uiso   1.00
O177   O     0.75630   0.92035   0.43381   0.00000  Uiso   1.00
O178   O     0.81118   0.54053   0.36347   0.00000  Uiso   1.00
N179   N     0.04794   0.22955   0.79827   0.00000  Uiso   1.00
N180   N     0.78665   0.04836   0.57738   0.00000  Uiso   1.00
N181   N     0.82575   0.77768   0.23985   0.00000  Uiso   1.00
N182   N     0.06801   0.94950   0.74867   0.00000  Uiso   1.00
N183   N     0.80673   0.76830   0.52778   0.00000  Uiso   1.00
N184   N     0.84582   0.49763   0.19025   0.00000  Uiso   1.00
