data_job_05277
_audit_creation_date              2018-12-19
_audit_creation_method            'Materials Studio'
_symmetry_space_group_name_H-M    'P1'
_symmetry_Int_Tables_number       1
_symmetry_cell_setting            triclinic
loop_
_symmetry_equiv_pos_as_xyz
  x,y,z
_cell_length_a                    12.3756
_cell_length_b                    18.7573
_cell_length_c                    14.3987
_cell_angle_alpha                 90.0000
_cell_angle_beta                  81.1151
_cell_angle_gamma                 90.0000
loop_
_atom_site_label
_atom_site_type_symbol
_atom_site_fract_x
_atom_site_fract_y
_atom_site_fract_z
_atom_site_U_iso_or_equiv
_atom_site_adp_type
_atom_site_occupancy
C1     C     0.35052   0.48462   0.92144   0.00000  Uiso   1.00
C2     C     0.25358   0.50942   0.99258   0.00000  Uiso   1.00
C3     C     0.15221   0.47634   0.01063   0.00000  Uiso   1.00
C4     C     0.07431   0.50733   0.07835   0.00000  Uiso   1.00
C5     C     0.92031   0.53646   0.18150   0.00000  Uiso   1.00
C6     C     0.38135   0.54759   0.85569   0.00000  Uiso   1.00
C7     C     0.38742   0.54659   0.75864   0.00000  Uiso   1.00
C8     C     0.41711   0.60973   0.71112   0.00000  Uiso   1.00
C9     C     0.46155   0.69809   0.60174   0.00000  Uiso   1.00
C10    C     0.44535   0.47490   0.97644   0.00000  Uiso   1.00
C11    C     0.50526   0.41278   0.98090   0.00000  Uiso   1.00
C12    C     0.58885   0.41471   0.03503   0.00000  Uiso   1.00
C13    C     0.73267   0.39020   0.11314   0.00000  Uiso   1.00
C14    C     0.39246   0.59851   0.00960   0.00000  Uiso   1.00
C15    C     0.27636   0.57128   0.04046   0.00000  Uiso   1.00
C16    C     0.19860   0.60234   0.10817   0.00000  Uiso   1.00
C17    C     0.09713   0.56930   0.12632   0.00000  Uiso   1.00
C18    C     0.40413   0.60945   0.90357   0.00000  Uiso   1.00
C19    C     0.43382   0.67260   0.85618   0.00000  Uiso   1.00
C20    C     0.43993   0.67170   0.75909   0.00000  Uiso   1.00
C21    C     0.46813   0.53675   0.02433   0.00000  Uiso   1.00
C22    C     0.55165   0.53878   0.07845   0.00000  Uiso   1.00
C23    C     0.61167   0.47668   0.08300   0.00000  Uiso   1.00
H24    H     0.33278   0.43646   0.88415   0.00000  Uiso   1.00
H25    H     0.13461   0.42847   0.97355   0.00000  Uiso   1.00
H26    H     0.36980   0.49872   0.72161   0.00000  Uiso   1.00
H27    H     0.48761   0.36492   0.94384   0.00000  Uiso   1.00
H28    H     0.92492   0.44690   0.09377   0.00000  Uiso   1.00
H29    H     0.42087   0.59501   0.56252   0.00000  Uiso   1.00
H30    H     0.66931   0.31288   0.03114   0.00000  Uiso   1.00
H31    H     0.41019   0.64667   0.04688   0.00000  Uiso   1.00
H32    H     0.21626   0.65021   0.14522   0.00000  Uiso   1.00
H33    H     0.45145   0.72045   0.89326   0.00000  Uiso   1.00
H34    H     0.56926   0.58666   0.11550   0.00000  Uiso   1.00
H35    H     0.99119   0.62687   0.23309   0.00000  Uiso   1.00
H36    H     0.48715   0.77498   0.70184   0.00000  Uiso   1.00
H37    H     0.73558   0.49285   0.17046   0.00000  Uiso   1.00
O38    O     0.82907   0.53543   0.22516   0.00000  Uiso   1.00
O39    O     0.47976   0.72975   0.52818   0.00000  Uiso   1.00
O40    O     0.80569   0.35960   0.14300   0.00000  Uiso   1.00
N41    N     0.96714   0.48876   0.11308   0.00000  Uiso   1.00
N42    N     0.43081   0.62724   0.61639   0.00000  Uiso   1.00
N43    N     0.66309   0.36348   0.05449   0.00000  Uiso   1.00
N44    N     0.00280   0.58560   0.18805   0.00000  Uiso   1.00
N45    N     0.46647   0.72408   0.69136   0.00000  Uiso   1.00
N46    N     0.69875   0.46032   0.12946   0.00000  Uiso   1.00
C47    C     0.81090   0.50599   0.51678   0.00000  Uiso   1.00
C48    C     0.90779   0.48001   0.44646   0.00000  Uiso   1.00
C49    C     0.00987   0.51218   0.42861   0.00000  Uiso   1.00
C50    C     0.08759   0.48018   0.36169   0.00000  Uiso   1.00
C51    C     0.24165   0.44924   0.25973   0.00000  Uiso   1.00
C52    C     0.77827   0.44365   0.58318   0.00000  Uiso   1.00
C53    C     0.77142   0.44525   0.68028   0.00000  Uiso   1.00
C54    C     0.74009   0.38264   0.72845   0.00000  Uiso   1.00
C55    C     0.69298   0.29527   0.83877   0.00000  Uiso   1.00
C56    C     0.71683   0.51615   0.46101   0.00000  Uiso   1.00
C57    C     0.65830   0.57870   0.45540   0.00000  Uiso   1.00
C58    C     0.57522   0.57712   0.40073   0.00000  Uiso   1.00
C59    C     0.43272   0.60232   0.32135   0.00000  Uiso   1.00
C60    C     0.76739   0.39194   0.42968   0.00000  Uiso   1.00
C61    C     0.88416   0.41806   0.39916   0.00000  Uiso   1.00
C62    C     0.96174   0.38600   0.33224   0.00000  Uiso   1.00
C63    C     0.06392   0.41812   0.31429   0.00000  Uiso   1.00
C64    C     0.75464   0.38170   0.53588   0.00000  Uiso   1.00
C65    C     0.72329   0.31907   0.58392   0.00000  Uiso   1.00
C66    C     0.71642   0.32058   0.68106   0.00000  Uiso   1.00
C67    C     0.69320   0.45420   0.41370   0.00000  Uiso   1.00
C68    C     0.61018   0.45252   0.35903   0.00000  Uiso   1.00
C69    C     0.55155   0.51507   0.35334   0.00000  Uiso   1.00
H70    H     0.82929   0.55421   0.55362   0.00000  Uiso   1.00
H71    H     0.02813   0.56012   0.46524   0.00000  Uiso   1.00
H72    H     0.78971   0.49320   0.71687   0.00000  Uiso   1.00
H73    H     0.67661   0.62663   0.49202   0.00000  Uiso   1.00
H74    H     0.23817   0.53933   0.34642   0.00000  Uiso   1.00
H75    H     0.73541   0.39824   0.87700   0.00000  Uiso   1.00
H76    H     0.49692   0.67960   0.40287   0.00000  Uiso   1.00
H77    H     0.74899   0.34371   0.39285   0.00000  Uiso   1.00
H78    H     0.94343   0.33806   0.29565   0.00000  Uiso   1.00
H79    H     0.70501   0.27115   0.54728   0.00000  Uiso   1.00
H80    H     0.59191   0.40457   0.32243   0.00000  Uiso   1.00
H81    H     0.16943   0.35910   0.20878   0.00000  Uiso   1.00
H82    H     0.66666   0.21801   0.73937   0.00000  Uiso   1.00
H83    H     0.42818   0.49937   0.26522   0.00000  Uiso   1.00
O84    O     0.33317   0.44929   0.21658   0.00000  Uiso   1.00
O85    O     0.67354   0.26419   0.91269   0.00000  Uiso   1.00
O86    O     0.36066   0.63333   0.29063   0.00000  Uiso   1.00
N87    N     0.19530   0.49770   0.32735   0.00000  Uiso   1.00
N88    N     0.72526   0.36578   0.82342   0.00000  Uiso   1.00
N89    N     0.50228   0.62883   0.38016   0.00000  Uiso   1.00
N90    N     0.15831   0.40072   0.25328   0.00000  Uiso   1.00
N91    N     0.68827   0.26880   0.74935   0.00000  Uiso   1.00
N92    N     0.46529   0.53185   0.30609   0.00000  Uiso   1.00
C93    C     0.64948   0.98462   0.07856   0.00000  Uiso   1.00
C94    C     0.74642   0.00942   0.00742   0.00000  Uiso   1.00
C95    C     0.84779   0.97634   0.98937   0.00000  Uiso   1.00
C96    C     0.92569   0.00733   0.92165   0.00000  Uiso   1.00
C97    C     0.07969   0.03646   0.81850   0.00000  Uiso   1.00
C98    C     0.61865   0.04759   0.14431   0.00000  Uiso   1.00
C99    C     0.61258   0.04659   0.24136   0.00000  Uiso   1.00
C100   C     0.58289   0.10973   0.28888   0.00000  Uiso   1.00
C101   C     0.53845   0.19809   0.39826   0.00000  Uiso   1.00
C102   C     0.55465   0.97490   0.02356   0.00000  Uiso   1.00
C103   C     0.49474   0.91278   0.01910   0.00000  Uiso   1.00
C104   C     0.41115   0.91471   0.96497   0.00000  Uiso   1.00
C105   C     0.26733   0.89020   0.88686   0.00000  Uiso   1.00
C106   C     0.60754   0.09851   0.99040   0.00000  Uiso   1.00
C107   C     0.72364   0.07128   0.95954   0.00000  Uiso   1.00
C108   C     0.80140   0.10234   0.89183   0.00000  Uiso   1.00
C109   C     0.90287   0.06930   0.87368   0.00000  Uiso   1.00
C110   C     0.59587   0.10945   0.09643   0.00000  Uiso   1.00
C111   C     0.56618   0.17260   0.14382   0.00000  Uiso   1.00
C112   C     0.56007   0.17170   0.24091   0.00000  Uiso   1.00
C113   C     0.53187   0.03675   0.97567   0.00000  Uiso   1.00
C114   C     0.44835   0.03878   0.92155   0.00000  Uiso   1.00
C115   C     0.38833   0.97668   0.91700   0.00000  Uiso   1.00
H116   H     0.66722   0.93646   0.11585   0.00000  Uiso   1.00
H117   H     0.86539   0.92847   0.02645   0.00000  Uiso   1.00
H118   H     0.63020   0.99872   0.27839   0.00000  Uiso   1.00
H119   H     0.51239   0.86492   0.05616   0.00000  Uiso   1.00
H120   H     0.07508   0.94690   0.90623   0.00000  Uiso   1.00
H121   H     0.57913   0.09501   0.43748   0.00000  Uiso   1.00
H122   H     0.33069   0.81288   0.96886   0.00000  Uiso   1.00
H123   H     0.58981   0.14667   0.95312   0.00000  Uiso   1.00
H124   H     0.78374   0.15021   0.85478   0.00000  Uiso   1.00
H125   H     0.54855   0.22045   0.10674   0.00000  Uiso   1.00
H126   H     0.43074   0.08666   0.88450   0.00000  Uiso   1.00
H127   H     0.00881   0.12687   0.76691   0.00000  Uiso   1.00
H128   H     0.51285   0.27498   0.29816   0.00000  Uiso   1.00
H129   H     0.26442   0.99285   0.82954   0.00000  Uiso   1.00
O130   O     0.17093   0.03543   0.77484   0.00000  Uiso   1.00
O131   O     0.52024   0.22975   0.47182   0.00000  Uiso   1.00
O132   O     0.19431   0.85960   0.85700   0.00000  Uiso   1.00
N133   N     0.03286   0.98876   0.88692   0.00000  Uiso   1.00
N134   N     0.56919   0.12724   0.38361   0.00000  Uiso   1.00
N135   N     0.33691   0.86348   0.94551   0.00000  Uiso   1.00
N136   N     0.99720   0.08560   0.81195   0.00000  Uiso   1.00
N137   N     0.53353   0.22408   0.30864   0.00000  Uiso   1.00
N138   N     0.30125   0.96032   0.87054   0.00000  Uiso   1.00
C139   C     0.18910   0.00599   0.48322   0.00000  Uiso   1.00
C140   C     0.09221   0.98001   0.55354   0.00000  Uiso   1.00
C141   C     0.99013   0.01218   0.57139   0.00000  Uiso   1.00
C142   C     0.91241   0.98018   0.63831   0.00000  Uiso   1.00
C143   C     0.75835   0.94924   0.74027   0.00000  Uiso   1.00
C144   C     0.22173   0.94365   0.41682   0.00000  Uiso   1.00
C145   C     0.22858   0.94525   0.31972   0.00000  Uiso   1.00
C146   C     0.25991   0.88264   0.27155   0.00000  Uiso   1.00
C147   C     0.30702   0.79527   0.16123   0.00000  Uiso   1.00
C148   C     0.28317   0.01615   0.53899   0.00000  Uiso   1.00
C149   C     0.34170   0.07870   0.54460   0.00000  Uiso   1.00
C150   C     0.42478   0.07712   0.59927   0.00000  Uiso   1.00
C151   C     0.56728   0.10232   0.67865   0.00000  Uiso   1.00
C152   C     0.23261   0.89194   0.57032   0.00000  Uiso   1.00
C153   C     0.11584   0.91806   0.60084   0.00000  Uiso   1.00
C154   C     0.03826   0.88600   0.66776   0.00000  Uiso   1.00
C155   C     0.93608   0.91812   0.68571   0.00000  Uiso   1.00
C156   C     0.24536   0.88170   0.46412   0.00000  Uiso   1.00
C157   C     0.27671   0.81907   0.41608   0.00000  Uiso   1.00
C158   C     0.28358   0.82058   0.31894   0.00000  Uiso   1.00
C159   C     0.30680   0.95420   0.58630   0.00000  Uiso   1.00
C160   C     0.38982   0.95252   0.64097   0.00000  Uiso   1.00
C161   C     0.44845   0.01507   0.64666   0.00000  Uiso   1.00
H162   H     0.17071   0.05421   0.44638   0.00000  Uiso   1.00
H163   H     0.97187   0.06012   0.53476   0.00000  Uiso   1.00
H164   H     0.21029   0.99320   0.28313   0.00000  Uiso   1.00
H165   H     0.32339   0.12663   0.50798   0.00000  Uiso   1.00
H166   H     0.76183   0.03933   0.65358   0.00000  Uiso   1.00
H167   H     0.26459   0.89824   0.12300   0.00000  Uiso   1.00
H168   H     0.50308   0.17960   0.59713   0.00000  Uiso   1.00
H169   H     0.25101   0.84371   0.60715   0.00000  Uiso   1.00
H170   H     0.05657   0.83806   0.70435   0.00000  Uiso   1.00
H171   H     0.29499   0.77115   0.45272   0.00000  Uiso   1.00
H172   H     0.40809   0.90457   0.67757   0.00000  Uiso   1.00
H173   H     0.83057   0.85910   0.79122   0.00000  Uiso   1.00
H174   H     0.33334   0.71801   0.26063   0.00000  Uiso   1.00
H175   H     0.57182   0.99937   0.73478   0.00000  Uiso   1.00
O176   O     0.66683   0.94929   0.78342   0.00000  Uiso   1.00
O177   O     0.32646   0.76419   0.08731   0.00000  Uiso   1.00
O178   O     0.63934   0.13333   0.70937   0.00000  Uiso   1.00
N179   N     0.80470   0.99770   0.67265   0.00000  Uiso   1.00
N180   N     0.27474   0.86578   0.17658   0.00000  Uiso   1.00
N181   N     0.49772   0.12883   0.61984   0.00000  Uiso   1.00
N182   N     0.84169   0.90072   0.74672   0.00000  Uiso   1.00
N183   N     0.31173   0.76880   0.25065   0.00000  Uiso   1.00
N184   N     0.53471   0.03185   0.69391   0.00000  Uiso   1.00
