data_job_06296
_audit_creation_date              2018-12-19
_audit_creation_method            'Materials Studio'
_symmetry_space_group_name_H-M    'P1'
_symmetry_Int_Tables_number       1
_symmetry_cell_setting            triclinic
loop_
_symmetry_equiv_pos_as_xyz
  x,y,z
_cell_length_a                    17.9273
_cell_length_b                    18.6536
_cell_length_c                    18.8500
_cell_angle_alpha                 69.7480
_cell_angle_beta                  73.2358
_cell_angle_gamma                 109.1480
loop_
_atom_site_label
_atom_site_type_symbol
_atom_site_fract_x
_atom_site_fract_y
_atom_site_fract_z
_atom_site_U_iso_or_equiv
_atom_site_adp_type
_atom_site_occupancy
C1     C     0.45894   0.31211   0.49605   0.00000  Uiso   1.00
C2     C     0.55208   0.35989   0.42304   0.00000  Uiso   1.00
C3     C     0.62778   0.41774   0.41866   0.00000  Uiso   1.00
C4     C     0.70669   0.45467   0.34650   0.00000  Uiso   1.00
C5     C     0.85086   0.53198   0.24307   0.00000  Uiso   1.00
C6     C     0.40103   0.33526   0.45686   0.00000  Uiso   1.00
C7     C     0.34973   0.37239   0.48091   0.00000  Uiso   1.00
C8     C     0.30147   0.38858   0.43723   0.00000  Uiso   1.00
C9     C     0.21108   0.42759   0.38634   0.00000  Uiso   1.00
C10    C     0.42747   0.21561   0.52578   0.00000  Uiso   1.00
C11    C     0.39837   0.15214   0.60778   0.00000  Uiso   1.00
C12    C     0.37234   0.06758   0.62213   0.00000  Uiso   1.00
C13    C     0.32300   0.92083   0.67824   0.00000  Uiso   1.00
C14    C     0.46445   0.27481   0.37572   0.00000  Uiso   1.00
C15    C     0.55507   0.33963   0.35768   0.00000  Uiso   1.00
C16    C     0.63388   0.37647   0.28552   0.00000  Uiso   1.00
C17    C     0.70969   0.43437   0.28103   0.00000  Uiso   1.00
C18    C     0.40403   0.31500   0.39150   0.00000  Uiso   1.00
C19    C     0.35583   0.33113   0.34778   0.00000  Uiso   1.00
C20    C     0.30447   0.36828   0.37175   0.00000  Uiso   1.00
C21    C     0.43046   0.19535   0.46042   0.00000  Uiso   1.00
C22    C     0.40447   0.11088   0.47464   0.00000  Uiso   1.00
C23    C     0.37534   0.04729   0.55665   0.00000  Uiso   1.00
H24    H     0.45660   0.32788   0.54694   0.00000  Uiso   1.00
H25    H     0.62544   0.43341   0.46925   0.00000  Uiso   1.00
H26    H     0.34742   0.38806   0.53150   0.00000  Uiso   1.00
H27    H     0.39606   0.16784   0.65835   0.00000  Uiso   1.00
H28    H     0.81394   0.54150   0.35428   0.00000  Uiso   1.00
H29    H     0.22770   0.44585   0.48556   0.00000  Uiso   1.00
H30    H     0.33026   0.98148   0.75304   0.00000  Uiso   1.00
H31    H     0.46678   0.25903   0.32483   0.00000  Uiso   1.00
H32    H     0.63618   0.36078   0.23495   0.00000  Uiso   1.00
H33    H     0.35816   0.31543   0.29720   0.00000  Uiso   1.00
H34    H     0.40680   0.09522   0.42405   0.00000  Uiso   1.00
H35    H     0.82266   0.48256   0.16411   0.00000  Uiso   1.00
H36    H     0.23641   0.38690   0.29540   0.00000  Uiso   1.00
H37    H     0.33898   0.92253   0.56288   0.00000  Uiso   1.00
O38    O     0.92955   0.58023   0.20406   0.00000  Uiso   1.00
O39    O     0.16041   0.45472   0.37632   0.00000  Uiso   1.00
O40    O     0.29497   0.84548   0.72724   0.00000  Uiso   1.00
N41    N     0.79275   0.51365   0.32186   0.00000  Uiso   1.00
N42    N     0.24466   0.42423   0.44460   0.00000  Uiso   1.00
N43    N     0.34052   0.99008   0.69467   0.00000  Uiso   1.00
N44    N     0.79744   0.48193   0.21954   0.00000  Uiso   1.00
N45    N     0.24935   0.39252   0.34227   0.00000  Uiso   1.00
N46    N     0.34521   0.95836   0.59235   0.00000  Uiso   1.00
C47    C     0.84976   0.53648   0.96123   0.00000  Uiso   1.00
C48    C     0.80475   0.44273   0.97949   0.00000  Uiso   1.00
C49    C     0.79325   0.37085   0.04628   0.00000  Uiso   1.00
C50    C     0.75043   0.29062   0.05200   0.00000  Uiso   1.00
C51    C     0.68517   0.14626   0.08930   0.00000  Uiso   1.00
C52    C     0.92421   0.58777   0.87074   0.00000  Uiso   1.00
C53    C     0.01316   0.63785   0.84610   0.00000  Uiso   1.00
C54    C     0.07090   0.67972   0.76028   0.00000  Uiso   1.00
C55    C     0.19109   0.76059   0.62874   0.00000  Uiso   1.00
C56    C     0.78223   0.56890   0.95901   0.00000  Uiso   1.00
C57    C     0.75180   0.60314   0.00858   0.00000  Uiso   1.00
C58    C     0.69002   0.62915   0.99706   0.00000  Uiso   1.00
C59    C     0.58977   0.68072   0.00258   0.00000  Uiso   1.00
C60    C     0.79416   0.52182   0.85260   0.00000  Uiso   1.00
C61    C     0.77455   0.43477   0.92048   0.00000  Uiso   1.00
C62    C     0.73173   0.35462   0.92610   0.00000  Uiso   1.00
C63    C     0.72017   0.28263   0.99289   0.00000  Uiso   1.00
C64    C     0.89401   0.57981   0.81174   0.00000  Uiso   1.00
C65    C     0.95163   0.62162   0.72592   0.00000  Uiso   1.00
C66    C     0.04064   0.67174   0.70117   0.00000  Uiso   1.00
C67    C     0.75202   0.56093   0.90001   0.00000  Uiso   1.00
C68    C     0.69028   0.58691   0.88840   0.00000  Uiso   1.00
C69    C     0.65976   0.62117   0.93795   0.00000  Uiso   1.00
H70    H     0.87328   0.54269   0.00716   0.00000  Uiso   1.00
H71    H     0.81664   0.37704   0.09193   0.00000  Uiso   1.00
H72    H     0.03651   0.64401   0.89178   0.00000  Uiso   1.00
H73    H     0.77519   0.60929   0.05423   0.00000  Uiso   1.00
H74    H     0.74056   0.18988   0.15987   0.00000  Uiso   1.00
H75    H     0.20415   0.75281   0.73784   0.00000  Uiso   1.00
H76    H     0.65312   0.67962   0.08041   0.00000  Uiso   1.00
H77    H     0.77064   0.51562   0.80666   0.00000  Uiso   1.00
H78    H     0.70837   0.34848   0.88043   0.00000  Uiso   1.00
H79    H     0.92824   0.61545   0.68028   0.00000  Uiso   1.00
H80    H     0.66692   0.58073   0.84274   0.00000  Uiso   1.00
H81    H     0.65268   0.16670   0.98821   0.00000  Uiso   1.00
H82    H     0.11628   0.72964   0.56618   0.00000  Uiso   1.00
H83    H     0.56525   0.65644   0.90875   0.00000  Uiso   1.00
O84    O     0.65753   0.06883   0.12617   0.00000  Uiso   1.00
O85    O     0.26574   0.80739   0.57249   0.00000  Uiso   1.00
O86    O     0.54280   0.71136   0.02193   0.00000  Uiso   1.00
N87    N     0.72841   0.20736   0.10935   0.00000  Uiso   1.00
N88    N     0.16184   0.73366   0.71479   0.00000  Uiso   1.00
N89    N     0.64669   0.66525   0.03504   0.00000  Uiso   1.00
N90    N     0.68112   0.19489   0.01699   0.00000  Uiso   1.00
N91    N     0.11455   0.72119   0.62242   0.00000  Uiso   1.00
N92    N     0.59941   0.65278   0.94267   0.00000  Uiso   1.00
C93    C     0.69041   0.15110   0.80748   0.00000  Uiso   1.00
C94    C     0.63729   0.19534   0.78190   0.00000  Uiso   1.00
C95    C     0.58016   0.21182   0.83341   0.00000  Uiso   1.00
C96    C     0.53776   0.25293   0.79819   0.00000  Uiso   1.00
C97    C     0.45308   0.31798   0.77123   0.00000  Uiso   1.00
C98    C     0.66485   0.07353   0.79193   0.00000  Uiso   1.00
C99    C     0.63090   0.98760   0.85188   0.00000  Uiso   1.00
C100   C     0.61171   0.92618   0.82510   0.00000  Uiso   1.00
C101   C     0.56987   0.80212   0.81369   0.00000  Uiso   1.00
C102   C     0.78712   0.21437   0.74297   0.00000  Uiso   1.00
C103   C     0.85598   0.24684   0.76175   0.00000  Uiso   1.00
C104   C     0.93974   0.30399   0.69374   0.00000  Uiso   1.00
C105   C     0.08773   0.39861   0.60631   0.00000  Uiso   1.00
C106   C     0.71672   0.19482   0.65332   0.00000  Uiso   1.00
C107   C     0.65158   0.21909   0.69817   0.00000  Uiso   1.00
C108   C     0.60927   0.26019   0.66286   0.00000  Uiso   1.00
C109   C     0.55208   0.27673   0.71431   0.00000  Uiso   1.00
C110   C     0.67914   0.09728   0.70820   0.00000  Uiso   1.00
C111   C     0.66001   0.03597   0.68132   0.00000  Uiso   1.00
C112   C     0.62603   0.94997   0.74122   0.00000  Uiso   1.00
C113   C     0.80141   0.23812   0.65923   0.00000  Uiso   1.00
C114   C     0.88508   0.29522   0.59119   0.00000  Uiso   1.00
C115   C     0.95405   0.32778   0.60986   0.00000  Uiso   1.00
H116   H     0.67929   0.13260   0.87266   0.00000  Uiso   1.00
H117   H     0.56911   0.19342   0.89821   0.00000  Uiso   1.00
H118   H     0.61985   0.96924   0.91666   0.00000  Uiso   1.00
H119   H     0.84489   0.22845   0.82655   0.00000  Uiso   1.00
H120   H     0.45324   0.27130   0.88962   0.00000  Uiso   1.00
H121   H     0.56026   0.79860   0.92852   0.00000  Uiso   1.00
H122   H     0.03480   0.34519   0.73849   0.00000  Uiso   1.00
H123   H     0.72785   0.21331   0.58813   0.00000  Uiso   1.00
H124   H     0.62034   0.27857   0.59806   0.00000  Uiso   1.00
H125   H     0.67108   0.05438   0.61652   0.00000  Uiso   1.00
H126   H     0.89612   0.31359   0.52640   0.00000  Uiso   1.00
H127   H     0.49482   0.34040   0.64601   0.00000  Uiso   1.00
H128   H     0.60184   0.86770   0.68492   0.00000  Uiso   1.00
H129   H     0.07638   0.41429   0.49489   0.00000  Uiso   1.00
O130   O     0.40241   0.34729   0.77949   0.00000  Uiso   1.00
O131   O     0.54283   0.72713   0.83053   0.00000  Uiso   1.00
O132   O     0.16541   0.44425   0.58122   0.00000  Uiso   1.00
N133   N     0.47779   0.27862   0.83091   0.00000  Uiso   1.00
N134   N     0.57784   0.83667   0.86730   0.00000  Uiso   1.00
N135   N     0.02150   0.34768   0.68963   0.00000  Uiso   1.00
N136   N     0.50017   0.31580   0.69983   0.00000  Uiso   1.00
N137   N     0.60021   0.87386   0.73621   0.00000  Uiso   1.00
N138   N     0.04387   0.38486   0.55855   0.00000  Uiso   1.00
C139   C     0.54106   0.68789   0.50395   0.00000  Uiso   1.00
C140   C     0.44792   0.64011   0.57695   0.00000  Uiso   1.00
C141   C     0.37222   0.58226   0.58134   0.00000  Uiso   1.00
C142   C     0.29331   0.54533   0.65350   0.00000  Uiso   1.00
C143   C     0.14914   0.46802   0.75693   0.00000  Uiso   1.00
C144   C     0.59897   0.66474   0.54314   0.00000  Uiso   1.00
C145   C     0.65027   0.62761   0.51909   0.00000  Uiso   1.00
C146   C     0.69853   0.61142   0.56277   0.00000  Uiso   1.00
C147   C     0.78892   0.57241   0.61366   0.00000  Uiso   1.00
C148   C     0.57253   0.78439   0.47422   0.00000  Uiso   1.00
C149   C     0.60163   0.84786   0.39222   0.00000  Uiso   1.00
C150   C     0.62766   0.93242   0.37787   0.00000  Uiso   1.00
C151   C     0.67700   0.07917   0.32176   0.00000  Uiso   1.00
C152   C     0.53555   0.72519   0.62428   0.00000  Uiso   1.00
C153   C     0.44493   0.66037   0.64232   0.00000  Uiso   1.00
C154   C     0.36612   0.62353   0.71448   0.00000  Uiso   1.00
C155   C     0.29031   0.56563   0.71897   0.00000  Uiso   1.00
C156   C     0.59598   0.68500   0.60850   0.00000  Uiso   1.00
C157   C     0.64417   0.66887   0.65222   0.00000  Uiso   1.00
C158   C     0.69553   0.63172   0.62825   0.00000  Uiso   1.00
C159   C     0.56954   0.80465   0.53958   0.00000  Uiso   1.00
C160   C     0.59553   0.88912   0.52536   0.00000  Uiso   1.00
C161   C     0.62466   0.95271   0.44335   0.00000  Uiso   1.00
H162   H     0.54340   0.67212   0.45306   0.00000  Uiso   1.00
H163   H     0.37456   0.56659   0.53075   0.00000  Uiso   1.00
H164   H     0.65258   0.61194   0.46850   0.00000  Uiso   1.00
H165   H     0.60394   0.83216   0.34165   0.00000  Uiso   1.00
H166   H     0.18606   0.45850   0.64572   0.00000  Uiso   1.00
H167   H     0.77230   0.55415   0.51444   0.00000  Uiso   1.00
H168   H     0.66974   0.01852   0.24696   0.00000  Uiso   1.00
H169   H     0.53322   0.74097   0.67517   0.00000  Uiso   1.00
H170   H     0.36382   0.63922   0.76505   0.00000  Uiso   1.00
H171   H     0.64184   0.68457   0.70280   0.00000  Uiso   1.00
H172   H     0.59320   0.90478   0.57595   0.00000  Uiso   1.00
H173   H     0.17734   0.51744   0.83589   0.00000  Uiso   1.00
H174   H     0.76359   0.61310   0.70460   0.00000  Uiso   1.00
H175   H     0.66102   0.07747   0.43713   0.00000  Uiso   1.00
O176   O     0.07045   0.41977   0.79594   0.00000  Uiso   1.00
O177   O     0.83959   0.54528   0.62368   0.00000  Uiso   1.00
O178   O     0.70503   0.15452   0.27276   0.00000  Uiso   1.00
N179   N     0.20725   0.48635   0.67814   0.00000  Uiso   1.00
N180   N     0.75535   0.57577   0.55540   0.00000  Uiso   1.00
N181   N     0.65948   0.00992   0.30533   0.00000  Uiso   1.00
N182   N     0.20256   0.51807   0.78046   0.00000  Uiso   1.00
N183   N     0.75065   0.60748   0.65773   0.00000  Uiso   1.00
N184   N     0.65479   0.04164   0.40765   0.00000  Uiso   1.00
C185   C     0.15024   0.46352   0.03877   0.00000  Uiso   1.00
C186   C     0.19525   0.55727   0.02051   0.00000  Uiso   1.00
C187   C     0.20675   0.62915   0.95372   0.00000  Uiso   1.00
C188   C     0.24957   0.70938   0.94800   0.00000  Uiso   1.00
C189   C     0.31483   0.85374   0.91070   0.00000  Uiso   1.00
C190   C     0.07579   0.41223   0.12926   0.00000  Uiso   1.00
C191   C     0.98684   0.36215   0.15390   0.00000  Uiso   1.00
C192   C     0.92910   0.32028   0.23972   0.00000  Uiso   1.00
C193   C     0.80891   0.23941   0.37126   0.00000  Uiso   1.00
C194   C     0.21777   0.43110   0.04099   0.00000  Uiso   1.00
C195   C     0.24820   0.39686   0.99142   0.00000  Uiso   1.00
C196   C     0.30998   0.37085   0.00294   0.00000  Uiso   1.00
C197   C     0.41023   0.31928   0.99742   0.00000  Uiso   1.00
C198   C     0.20584   0.47818   0.14740   0.00000  Uiso   1.00
C199   C     0.22545   0.56523   0.07952   0.00000  Uiso   1.00
C200   C     0.26827   0.64538   0.07390   0.00000  Uiso   1.00
C201   C     0.27983   0.71737   0.00711   0.00000  Uiso   1.00
C202   C     0.10599   0.42020   0.18826   0.00000  Uiso   1.00
C203   C     0.04837   0.37838   0.27408   0.00000  Uiso   1.00
C204   C     0.95936   0.32826   0.29883   0.00000  Uiso   1.00
C205   C     0.24798   0.43907   0.09999   0.00000  Uiso   1.00
C206   C     0.30972   0.41309   0.11160   0.00000  Uiso   1.00
C207   C     0.34024   0.37883   0.06205   0.00000  Uiso   1.00
H208   H     0.12672   0.45731   0.99284   0.00000  Uiso   1.00
H209   H     0.18336   0.62296   0.90807   0.00000  Uiso   1.00
H210   H     0.96349   0.35599   0.10822   0.00000  Uiso   1.00
H211   H     0.22481   0.39071   0.94577   0.00000  Uiso   1.00
H212   H     0.25944   0.81012   0.84013   0.00000  Uiso   1.00
H213   H     0.79585   0.24719   0.26216   0.00000  Uiso   1.00
H214   H     0.34688   0.32038   0.91959   0.00000  Uiso   1.00
H215   H     0.22936   0.48438   0.19334   0.00000  Uiso   1.00
H216   H     0.29163   0.65152   0.11957   0.00000  Uiso   1.00
H217   H     0.07176   0.38455   0.31972   0.00000  Uiso   1.00
H218   H     0.33308   0.41927   0.15726   0.00000  Uiso   1.00
H219   H     0.34732   0.83330   0.01179   0.00000  Uiso   1.00
H220   H     0.88372   0.27036   0.43382   0.00000  Uiso   1.00
H221   H     0.43475   0.34356   0.09125   0.00000  Uiso   1.00
O222   O     0.34247   0.93117   0.87383   0.00000  Uiso   1.00
O223   O     0.73426   0.19261   0.42751   0.00000  Uiso   1.00
O224   O     0.45720   0.28864   0.97807   0.00000  Uiso   1.00
N225   N     0.27159   0.79264   0.89065   0.00000  Uiso   1.00
N226   N     0.83816   0.26634   0.28521   0.00000  Uiso   1.00
N227   N     0.35331   0.33475   0.96496   0.00000  Uiso   1.00
N228   N     0.31888   0.80511   0.98301   0.00000  Uiso   1.00
N229   N     0.88545   0.27882   0.37758   0.00000  Uiso   1.00
N230   N     0.40060   0.34722   0.05733   0.00000  Uiso   1.00
C231   C     0.30959   0.84890   0.19252   0.00000  Uiso   1.00
C232   C     0.36271   0.80466   0.21810   0.00000  Uiso   1.00
C233   C     0.41984   0.78818   0.16659   0.00000  Uiso   1.00
C234   C     0.46224   0.74707   0.20181   0.00000  Uiso   1.00
C235   C     0.54692   0.68202   0.22877   0.00000  Uiso   1.00
C236   C     0.33515   0.92647   0.20807   0.00000  Uiso   1.00
C237   C     0.36910   0.01240   0.14812   0.00000  Uiso   1.00
C238   C     0.38829   0.07382   0.17490   0.00000  Uiso   1.00
C239   C     0.43013   0.19788   0.18631   0.00000  Uiso   1.00
C240   C     0.21288   0.78563   0.25703   0.00000  Uiso   1.00
C241   C     0.14402   0.75316   0.23825   0.00000  Uiso   1.00
C242   C     0.06026   0.69601   0.30626   0.00000  Uiso   1.00
C243   C     0.91227   0.60139   0.39369   0.00000  Uiso   1.00
C244   C     0.28328   0.80518   0.34668   0.00000  Uiso   1.00
C245   C     0.34842   0.78091   0.30183   0.00000  Uiso   1.00
C246   C     0.39073   0.73981   0.33714   0.00000  Uiso   1.00
C247   C     0.44792   0.72327   0.28569   0.00000  Uiso   1.00
C248   C     0.32086   0.90272   0.29180   0.00000  Uiso   1.00
C249   C     0.33999   0.96403   0.31868   0.00000  Uiso   1.00
C250   C     0.37397   0.05003   0.25878   0.00000  Uiso   1.00
C251   C     0.19859   0.76188   0.34077   0.00000  Uiso   1.00
C252   C     0.11492   0.70478   0.40881   0.00000  Uiso   1.00
C253   C     0.04595   0.67222   0.39014   0.00000  Uiso   1.00
H254   H     0.32071   0.86740   0.12734   0.00000  Uiso   1.00
H255   H     0.43089   0.80658   0.10179   0.00000  Uiso   1.00
H256   H     0.38015   0.03076   0.08334   0.00000  Uiso   1.00
H257   H     0.15511   0.77155   0.17345   0.00000  Uiso   1.00
H258   H     0.54676   0.72870   0.11038   0.00000  Uiso   1.00
H259   H     0.43974   0.20140   0.07148   0.00000  Uiso   1.00
H260   H     0.96520   0.65481   0.26151   0.00000  Uiso   1.00
H261   H     0.27215   0.78669   0.41187   0.00000  Uiso   1.00
H262   H     0.37966   0.72144   0.40194   0.00000  Uiso   1.00
H263   H     0.32892   0.94562   0.38348   0.00000  Uiso   1.00
H264   H     0.10388   0.68641   0.47360   0.00000  Uiso   1.00
H265   H     0.50518   0.65960   0.35399   0.00000  Uiso   1.00
H266   H     0.39816   0.13230   0.31508   0.00000  Uiso   1.00
H267   H     0.92362   0.58571   0.50511   0.00000  Uiso   1.00
O268   O     0.59759   0.65271   0.22051   0.00000  Uiso   1.00
O269   O     0.45717   0.27287   0.16947   0.00000  Uiso   1.00
O270   O     0.83459   0.55575   0.41878   0.00000  Uiso   1.00
N271   N     0.52221   0.72138   0.16909   0.00000  Uiso   1.00
N272   N     0.42216   0.16333   0.13270   0.00000  Uiso   1.00
N273   N     0.97850   0.65232   0.31037   0.00000  Uiso   1.00
N274   N     0.49984   0.68420   0.30017   0.00000  Uiso   1.00
N275   N     0.39979   0.12614   0.26379   0.00000  Uiso   1.00
N276   N     0.95613   0.61514   0.44145   0.00000  Uiso   1.00
