data_job_05757
_audit_creation_date              2018-12-19
_audit_creation_method            'Materials Studio'
_symmetry_space_group_name_H-M    'P1'
_symmetry_Int_Tables_number       1
_symmetry_cell_setting            triclinic
loop_
_symmetry_equiv_pos_as_xyz
  x,y,z
_cell_length_a                    23.5736
_cell_length_b                    21.2108
_cell_length_c                    15.8113
_cell_angle_alpha                 90.0000
_cell_angle_beta                  50.3028
_cell_angle_gamma                 90.0000
loop_
_atom_site_label
_atom_site_type_symbol
_atom_site_fract_x
_atom_site_fract_y
_atom_site_fract_z
_atom_site_U_iso_or_equiv
_atom_site_adp_type
_atom_site_occupancy
C1     C     0.72978   0.93860   0.72823   0.00000  Uiso   1.00
C2     C     0.73345   0.00388   0.68455   0.00000  Uiso   1.00
C3     C     0.69412   0.05652   0.74813   0.00000  Uiso   1.00
C4     C     0.70515   0.11189   0.69255   0.00000  Uiso   1.00
C5     C     0.70342   0.21286   0.64222   0.00000  Uiso   1.00
C6     C     0.70853   0.89336   0.67760   0.00000  Uiso   1.00
C7     C     0.64824   0.85306   0.73533   0.00000  Uiso   1.00
C8     C     0.63830   0.81540   0.67390   0.00000  Uiso   1.00
C9     C     0.59790   0.74474   0.61277   0.00000  Uiso   1.00
C10    C     0.80872   0.92182   0.67743   0.00000  Uiso   1.00
C11    C     0.83268   0.90543   0.73502   0.00000  Uiso   1.00
C12    C     0.90709   0.89171   0.67344   0.00000  Uiso   1.00
C13    C     0.02226   0.86524   0.61206   0.00000  Uiso   1.00
C14    C     0.81931   0.94335   0.51648   0.00000  Uiso   1.00
C15    C     0.78208   0.00646   0.56953   0.00000  Uiso   1.00
C16    C     0.79317   0.06177   0.51384   0.00000  Uiso   1.00
C17    C     0.75387   0.11448   0.57733   0.00000  Uiso   1.00
C18    C     0.75715   0.89594   0.56259   0.00000  Uiso   1.00
C19    C     0.74730   0.85832   0.50105   0.00000  Uiso   1.00
C20    C     0.68702   0.81798   0.55867   0.00000  Uiso   1.00
C21    C     0.85735   0.92440   0.56241   0.00000  Uiso   1.00
C22    C     0.93174   0.91069   0.50074   0.00000  Uiso   1.00
C23    C     0.95581   0.89429   0.55822   0.00000  Uiso   1.00
H24    H     0.69192   0.93659   0.81778   0.00000  Uiso   1.00
H25    H     0.65649   0.05450   0.83714   0.00000  Uiso   1.00
H26    H     0.61063   0.85107   0.82434   0.00000  Uiso   1.00
H27    H     0.79504   0.90344   0.82403   0.00000  Uiso   1.00
H28    H     0.63862   0.18636   0.80788   0.00000  Uiso   1.00
H29    H     0.54194   0.75741   0.78089   0.00000  Uiso   1.00
H30    H     0.93080   0.86783   0.78024   0.00000  Uiso   1.00
H31    H     0.85717   0.94536   0.42692   0.00000  Uiso   1.00
H32    H     0.83081   0.06375   0.42483   0.00000  Uiso   1.00
H33    H     0.78494   0.86033   0.41204   0.00000  Uiso   1.00
H34    H     0.96935   0.91269   0.41173   0.00000  Uiso   1.00
H35    H     0.78011   0.19387   0.47324   0.00000  Uiso   1.00
H36    H     0.68342   0.76491   0.44626   0.00000  Uiso   1.00
H37    H     0.07228   0.87534   0.44560   0.00000  Uiso   1.00
O38    O     0.68902   0.26783   0.64623   0.00000  Uiso   1.00
O39    O     0.56218   0.70505   0.61084   0.00000  Uiso   1.00
O40    O     0.07236   0.84993   0.60998   0.00000  Uiso   1.00
N41    N     0.67555   0.17188   0.72941   0.00000  Uiso   1.00
N42    N     0.58515   0.77084   0.70418   0.00000  Uiso   1.00
N43    N     0.94870   0.87406   0.70357   0.00000  Uiso   1.00
N44    N     0.75168   0.17592   0.54934   0.00000  Uiso   1.00
N45    N     0.66128   0.77488   0.52411   0.00000  Uiso   1.00
N46    N     0.02483   0.87810   0.52350   0.00000  Uiso   1.00
C47    C     0.22978   0.43860   0.72823   0.00000  Uiso   1.00
C48    C     0.23345   0.50388   0.68455   0.00000  Uiso   1.00
C49    C     0.19412   0.55652   0.74813   0.00000  Uiso   1.00
C50    C     0.20515   0.61189   0.69255   0.00000  Uiso   1.00
C51    C     0.20342   0.71286   0.64222   0.00000  Uiso   1.00
C52    C     0.20853   0.39336   0.67760   0.00000  Uiso   1.00
C53    C     0.14824   0.35306   0.73533   0.00000  Uiso   1.00
C54    C     0.13830   0.31540   0.67390   0.00000  Uiso   1.00
C55    C     0.09790   0.24474   0.61277   0.00000  Uiso   1.00
C56    C     0.30872   0.42182   0.67743   0.00000  Uiso   1.00
C57    C     0.33268   0.40543   0.73502   0.00000  Uiso   1.00
C58    C     0.40709   0.39171   0.67344   0.00000  Uiso   1.00
C59    C     0.52226   0.36524   0.61206   0.00000  Uiso   1.00
C60    C     0.31931   0.44335   0.51648   0.00000  Uiso   1.00
C61    C     0.28208   0.50646   0.56953   0.00000  Uiso   1.00
C62    C     0.29317   0.56177   0.51384   0.00000  Uiso   1.00
C63    C     0.25387   0.61448   0.57733   0.00000  Uiso   1.00
C64    C     0.25715   0.39594   0.56259   0.00000  Uiso   1.00
C65    C     0.24730   0.35832   0.50105   0.00000  Uiso   1.00
C66    C     0.18702   0.31798   0.55867   0.00000  Uiso   1.00
C67    C     0.35735   0.42440   0.56241   0.00000  Uiso   1.00
C68    C     0.43174   0.41069   0.50074   0.00000  Uiso   1.00
C69    C     0.45581   0.39429   0.55822   0.00000  Uiso   1.00
H70    H     0.19192   0.43659   0.81778   0.00000  Uiso   1.00
H71    H     0.15649   0.55450   0.83714   0.00000  Uiso   1.00
H72    H     0.11063   0.35107   0.82434   0.00000  Uiso   1.00
H73    H     0.29504   0.40344   0.82403   0.00000  Uiso   1.00
H74    H     0.13862   0.68636   0.80788   0.00000  Uiso   1.00
H75    H     0.04194   0.25741   0.78089   0.00000  Uiso   1.00
H76    H     0.43080   0.36783   0.78024   0.00000  Uiso   1.00
H77    H     0.35717   0.44536   0.42692   0.00000  Uiso   1.00
H78    H     0.33081   0.56375   0.42483   0.00000  Uiso   1.00
H79    H     0.28494   0.36033   0.41204   0.00000  Uiso   1.00
H80    H     0.46935   0.41269   0.41173   0.00000  Uiso   1.00
H81    H     0.28011   0.69387   0.47324   0.00000  Uiso   1.00
H82    H     0.18342   0.26491   0.44626   0.00000  Uiso   1.00
H83    H     0.57228   0.37534   0.44560   0.00000  Uiso   1.00
O84    O     0.18902   0.76783   0.64623   0.00000  Uiso   1.00
O85    O     0.06218   0.20505   0.61084   0.00000  Uiso   1.00
O86    O     0.57236   0.34993   0.60998   0.00000  Uiso   1.00
N87    N     0.17555   0.67188   0.72941   0.00000  Uiso   1.00
N88    N     0.08515   0.27084   0.70418   0.00000  Uiso   1.00
N89    N     0.44870   0.37406   0.70357   0.00000  Uiso   1.00
N90    N     0.25168   0.67592   0.54934   0.00000  Uiso   1.00
N91    N     0.16128   0.27488   0.52411   0.00000  Uiso   1.00
N92    N     0.52483   0.37810   0.52350   0.00000  Uiso   1.00
C93    C     0.27022   0.93860   0.77177   0.00000  Uiso   1.00
C94    C     0.26655   0.00388   0.81545   0.00000  Uiso   1.00
C95    C     0.30588   0.05652   0.75187   0.00000  Uiso   1.00
C96    C     0.29485   0.11189   0.80745   0.00000  Uiso   1.00
C97    C     0.29658   0.21286   0.85778   0.00000  Uiso   1.00
C98    C     0.29147   0.89336   0.82240   0.00000  Uiso   1.00
C99    C     0.35176   0.85306   0.76467   0.00000  Uiso   1.00
C100   C     0.36170   0.81540   0.82610   0.00000  Uiso   1.00
C101   C     0.40210   0.74474   0.88723   0.00000  Uiso   1.00
C102   C     0.19128   0.92182   0.82257   0.00000  Uiso   1.00
C103   C     0.16732   0.90543   0.76498   0.00000  Uiso   1.00
C104   C     0.09291   0.89171   0.82656   0.00000  Uiso   1.00
C105   C     0.97774   0.86524   0.88794   0.00000  Uiso   1.00
C106   C     0.18069   0.94335   0.98352   0.00000  Uiso   1.00
C107   C     0.21792   0.00646   0.93047   0.00000  Uiso   1.00
C108   C     0.20683   0.06177   0.98616   0.00000  Uiso   1.00
C109   C     0.24613   0.11448   0.92267   0.00000  Uiso   1.00
C110   C     0.24285   0.89594   0.93741   0.00000  Uiso   1.00
C111   C     0.25270   0.85832   0.99895   0.00000  Uiso   1.00
C112   C     0.31298   0.81798   0.94133   0.00000  Uiso   1.00
C113   C     0.14265   0.92440   0.93759   0.00000  Uiso   1.00
C114   C     0.06826   0.91069   0.99926   0.00000  Uiso   1.00
C115   C     0.04419   0.89429   0.94178   0.00000  Uiso   1.00
H116   H     0.30808   0.93659   0.68222   0.00000  Uiso   1.00
H117   H     0.34351   0.05450   0.66286   0.00000  Uiso   1.00
H118   H     0.38937   0.85107   0.67566   0.00000  Uiso   1.00
H119   H     0.20496   0.90344   0.67597   0.00000  Uiso   1.00
H120   H     0.36138   0.18636   0.69212   0.00000  Uiso   1.00
H121   H     0.45806   0.75741   0.71911   0.00000  Uiso   1.00
H122   H     0.06920   0.86783   0.71976   0.00000  Uiso   1.00
H123   H     0.14283   0.94536   0.07308   0.00000  Uiso   1.00
H124   H     0.16919   0.06375   0.07517   0.00000  Uiso   1.00
H125   H     0.21506   0.86033   0.08796   0.00000  Uiso   1.00
H126   H     0.03065   0.91269   0.08827   0.00000  Uiso   1.00
H127   H     0.21989   0.19387   0.02676   0.00000  Uiso   1.00
H128   H     0.31658   0.76491   0.05374   0.00000  Uiso   1.00
H129   H     0.92772   0.87534   0.05440   0.00000  Uiso   1.00
O130   O     0.31098   0.26783   0.85377   0.00000  Uiso   1.00
O131   O     0.43782   0.70505   0.88916   0.00000  Uiso   1.00
O132   O     0.92764   0.84993   0.89002   0.00000  Uiso   1.00
N133   N     0.32445   0.17188   0.77059   0.00000  Uiso   1.00
N134   N     0.41485   0.77084   0.79582   0.00000  Uiso   1.00
N135   N     0.05130   0.87406   0.79643   0.00000  Uiso   1.00
N136   N     0.24832   0.17592   0.95066   0.00000  Uiso   1.00
N137   N     0.33872   0.77488   0.97589   0.00000  Uiso   1.00
N138   N     0.97517   0.87810   0.97650   0.00000  Uiso   1.00
C139   C     0.77022   0.43860   0.77177   0.00000  Uiso   1.00
C140   C     0.76655   0.50388   0.81545   0.00000  Uiso   1.00
C141   C     0.80588   0.55652   0.75187   0.00000  Uiso   1.00
C142   C     0.79485   0.61189   0.80745   0.00000  Uiso   1.00
C143   C     0.79658   0.71286   0.85778   0.00000  Uiso   1.00
C144   C     0.79147   0.39336   0.82240   0.00000  Uiso   1.00
C145   C     0.85176   0.35306   0.76467   0.00000  Uiso   1.00
C146   C     0.86170   0.31540   0.82610   0.00000  Uiso   1.00
C147   C     0.90210   0.24474   0.88723   0.00000  Uiso   1.00
C148   C     0.69128   0.42182   0.82257   0.00000  Uiso   1.00
C149   C     0.66732   0.40543   0.76498   0.00000  Uiso   1.00
C150   C     0.59291   0.39171   0.82656   0.00000  Uiso   1.00
C151   C     0.47774   0.36524   0.88794   0.00000  Uiso   1.00
C152   C     0.68069   0.44335   0.98352   0.00000  Uiso   1.00
C153   C     0.71792   0.50646   0.93047   0.00000  Uiso   1.00
C154   C     0.70683   0.56177   0.98616   0.00000  Uiso   1.00
C155   C     0.74613   0.61448   0.92267   0.00000  Uiso   1.00
C156   C     0.74285   0.39594   0.93741   0.00000  Uiso   1.00
C157   C     0.75270   0.35832   0.99895   0.00000  Uiso   1.00
C158   C     0.81298   0.31798   0.94133   0.00000  Uiso   1.00
C159   C     0.64265   0.42440   0.93759   0.00000  Uiso   1.00
C160   C     0.56826   0.41069   0.99926   0.00000  Uiso   1.00
C161   C     0.54419   0.39429   0.94178   0.00000  Uiso   1.00
H162   H     0.80808   0.43659   0.68222   0.00000  Uiso   1.00
H163   H     0.84351   0.55450   0.66286   0.00000  Uiso   1.00
H164   H     0.88937   0.35107   0.67566   0.00000  Uiso   1.00
H165   H     0.70496   0.40344   0.67597   0.00000  Uiso   1.00
H166   H     0.86138   0.68636   0.69212   0.00000  Uiso   1.00
H167   H     0.95806   0.25741   0.71911   0.00000  Uiso   1.00
H168   H     0.56920   0.36783   0.71976   0.00000  Uiso   1.00
H169   H     0.64283   0.44536   0.07308   0.00000  Uiso   1.00
H170   H     0.66919   0.56375   0.07517   0.00000  Uiso   1.00
H171   H     0.71506   0.36033   0.08796   0.00000  Uiso   1.00
H172   H     0.53065   0.41269   0.08827   0.00000  Uiso   1.00
H173   H     0.71989   0.69387   0.02676   0.00000  Uiso   1.00
H174   H     0.81658   0.26491   0.05374   0.00000  Uiso   1.00
H175   H     0.42772   0.37534   0.05440   0.00000  Uiso   1.00
O176   O     0.81098   0.76783   0.85377   0.00000  Uiso   1.00
O177   O     0.93782   0.20505   0.88916   0.00000  Uiso   1.00
O178   O     0.42764   0.34993   0.89002   0.00000  Uiso   1.00
N179   N     0.82445   0.67188   0.77059   0.00000  Uiso   1.00
N180   N     0.91485   0.27084   0.79582   0.00000  Uiso   1.00
N181   N     0.55130   0.37406   0.79643   0.00000  Uiso   1.00
N182   N     0.74832   0.67592   0.95066   0.00000  Uiso   1.00
N183   N     0.83872   0.27488   0.97589   0.00000  Uiso   1.00
N184   N     0.47517   0.37810   0.97650   0.00000  Uiso   1.00
C185   C     0.27022   0.06140   0.27177   0.00000  Uiso   1.00
C186   C     0.26655   0.99612   0.31545   0.00000  Uiso   1.00
C187   C     0.30588   0.94348   0.25187   0.00000  Uiso   1.00
C188   C     0.29485   0.88811   0.30745   0.00000  Uiso   1.00
C189   C     0.29658   0.78714   0.35778   0.00000  Uiso   1.00
C190   C     0.29147   0.10664   0.32240   0.00000  Uiso   1.00
C191   C     0.35176   0.14694   0.26467   0.00000  Uiso   1.00
C192   C     0.36170   0.18460   0.32610   0.00000  Uiso   1.00
C193   C     0.40210   0.25526   0.38723   0.00000  Uiso   1.00
C194   C     0.19128   0.07818   0.32257   0.00000  Uiso   1.00
C195   C     0.16732   0.09457   0.26498   0.00000  Uiso   1.00
C196   C     0.09291   0.10829   0.32656   0.00000  Uiso   1.00
C197   C     0.97774   0.13476   0.38794   0.00000  Uiso   1.00
C198   C     0.18069   0.05665   0.48352   0.00000  Uiso   1.00
C199   C     0.21792   0.99354   0.43047   0.00000  Uiso   1.00
C200   C     0.20683   0.93823   0.48616   0.00000  Uiso   1.00
C201   C     0.24613   0.88552   0.42267   0.00000  Uiso   1.00
C202   C     0.24285   0.10406   0.43741   0.00000  Uiso   1.00
C203   C     0.25270   0.14168   0.49895   0.00000  Uiso   1.00
C204   C     0.31298   0.18202   0.44133   0.00000  Uiso   1.00
C205   C     0.14265   0.07560   0.43759   0.00000  Uiso   1.00
C206   C     0.06826   0.08931   0.49926   0.00000  Uiso   1.00
C207   C     0.04419   0.10571   0.44178   0.00000  Uiso   1.00
H208   H     0.30808   0.06341   0.18222   0.00000  Uiso   1.00
H209   H     0.34351   0.94550   0.16286   0.00000  Uiso   1.00
H210   H     0.38937   0.14893   0.17566   0.00000  Uiso   1.00
H211   H     0.20496   0.09656   0.17597   0.00000  Uiso   1.00
H212   H     0.36138   0.81364   0.19212   0.00000  Uiso   1.00
H213   H     0.45806   0.24259   0.21911   0.00000  Uiso   1.00
H214   H     0.06920   0.13217   0.21976   0.00000  Uiso   1.00
H215   H     0.14283   0.05464   0.57308   0.00000  Uiso   1.00
H216   H     0.16919   0.93625   0.57517   0.00000  Uiso   1.00
H217   H     0.21506   0.13967   0.58796   0.00000  Uiso   1.00
H218   H     0.03065   0.08731   0.58827   0.00000  Uiso   1.00
H219   H     0.21989   0.80613   0.52676   0.00000  Uiso   1.00
H220   H     0.31658   0.23509   0.55374   0.00000  Uiso   1.00
H221   H     0.92772   0.12466   0.55440   0.00000  Uiso   1.00
O222   O     0.31098   0.73217   0.35377   0.00000  Uiso   1.00
O223   O     0.43782   0.29495   0.38916   0.00000  Uiso   1.00
O224   O     0.92764   0.15007   0.39002   0.00000  Uiso   1.00
N225   N     0.32445   0.82812   0.27059   0.00000  Uiso   1.00
N226   N     0.41485   0.22916   0.29582   0.00000  Uiso   1.00
N227   N     0.05130   0.12594   0.29643   0.00000  Uiso   1.00
N228   N     0.24832   0.82408   0.45066   0.00000  Uiso   1.00
N229   N     0.33872   0.22512   0.47589   0.00000  Uiso   1.00
N230   N     0.97517   0.12190   0.47650   0.00000  Uiso   1.00
C231   C     0.77022   0.56140   0.27177   0.00000  Uiso   1.00
C232   C     0.76655   0.49612   0.31545   0.00000  Uiso   1.00
C233   C     0.80588   0.44348   0.25187   0.00000  Uiso   1.00
C234   C     0.79485   0.38811   0.30745   0.00000  Uiso   1.00
C235   C     0.79658   0.28714   0.35778   0.00000  Uiso   1.00
C236   C     0.79147   0.60664   0.32240   0.00000  Uiso   1.00
C237   C     0.85176   0.64694   0.26467   0.00000  Uiso   1.00
C238   C     0.86170   0.68460   0.32610   0.00000  Uiso   1.00
C239   C     0.90210   0.75526   0.38723   0.00000  Uiso   1.00
C240   C     0.69128   0.57818   0.32257   0.00000  Uiso   1.00
C241   C     0.66732   0.59457   0.26498   0.00000  Uiso   1.00
C242   C     0.59291   0.60829   0.32656   0.00000  Uiso   1.00
C243   C     0.47774   0.63476   0.38794   0.00000  Uiso   1.00
C244   C     0.68069   0.55665   0.48352   0.00000  Uiso   1.00
C245   C     0.71792   0.49354   0.43047   0.00000  Uiso   1.00
C246   C     0.70683   0.43823   0.48616   0.00000  Uiso   1.00
C247   C     0.74613   0.38552   0.42267   0.00000  Uiso   1.00
C248   C     0.74285   0.60406   0.43741   0.00000  Uiso   1.00
C249   C     0.75270   0.64168   0.49895   0.00000  Uiso   1.00
C250   C     0.81298   0.68202   0.44133   0.00000  Uiso   1.00
C251   C     0.64265   0.57560   0.43759   0.00000  Uiso   1.00
C252   C     0.56826   0.58931   0.49926   0.00000  Uiso   1.00
C253   C     0.54419   0.60571   0.44178   0.00000  Uiso   1.00
H254   H     0.80808   0.56341   0.18222   0.00000  Uiso   1.00
H255   H     0.84351   0.44550   0.16286   0.00000  Uiso   1.00
H256   H     0.88937   0.64893   0.17566   0.00000  Uiso   1.00
H257   H     0.70496   0.59656   0.17597   0.00000  Uiso   1.00
H258   H     0.86138   0.31364   0.19212   0.00000  Uiso   1.00
H259   H     0.95806   0.74259   0.21911   0.00000  Uiso   1.00
H260   H     0.56920   0.63217   0.21976   0.00000  Uiso   1.00
H261   H     0.64283   0.55464   0.57308   0.00000  Uiso   1.00
H262   H     0.66919   0.43625   0.57517   0.00000  Uiso   1.00
H263   H     0.71506   0.63967   0.58796   0.00000  Uiso   1.00
H264   H     0.53065   0.58731   0.58827   0.00000  Uiso   1.00
H265   H     0.71989   0.30613   0.52676   0.00000  Uiso   1.00
H266   H     0.81658   0.73509   0.55374   0.00000  Uiso   1.00
H267   H     0.42772   0.62466   0.55440   0.00000  Uiso   1.00
O268   O     0.81098   0.23217   0.35377   0.00000  Uiso   1.00
O269   O     0.93782   0.79495   0.38916   0.00000  Uiso   1.00
O270   O     0.42764   0.65007   0.39002   0.00000  Uiso   1.00
N271   N     0.82445   0.32812   0.27059   0.00000  Uiso   1.00
N272   N     0.91485   0.72916   0.29582   0.00000  Uiso   1.00
N273   N     0.55130   0.62594   0.29643   0.00000  Uiso   1.00
N274   N     0.74832   0.32408   0.45066   0.00000  Uiso   1.00
N275   N     0.83872   0.72512   0.47589   0.00000  Uiso   1.00
N276   N     0.47517   0.62190   0.47650   0.00000  Uiso   1.00
C277   C     0.72978   0.06140   0.22823   0.00000  Uiso   1.00
C278   C     0.73345   0.99612   0.18455   0.00000  Uiso   1.00
C279   C     0.69412   0.94348   0.24813   0.00000  Uiso   1.00
C280   C     0.70515   0.88811   0.19255   0.00000  Uiso   1.00
C281   C     0.70342   0.78714   0.14222   0.00000  Uiso   1.00
C282   C     0.70853   0.10664   0.17760   0.00000  Uiso   1.00
C283   C     0.64824   0.14694   0.23533   0.00000  Uiso   1.00
C284   C     0.63830   0.18460   0.17390   0.00000  Uiso   1.00
C285   C     0.59790   0.25526   0.11277   0.00000  Uiso   1.00
C286   C     0.80872   0.07818   0.17743   0.00000  Uiso   1.00
C287   C     0.83268   0.09457   0.23502   0.00000  Uiso   1.00
C288   C     0.90709   0.10829   0.17344   0.00000  Uiso   1.00
C289   C     0.02226   0.13476   0.11206   0.00000  Uiso   1.00
C290   C     0.81931   0.05665   0.01648   0.00000  Uiso   1.00
C291   C     0.78208   0.99354   0.06953   0.00000  Uiso   1.00
C292   C     0.79317   0.93823   0.01384   0.00000  Uiso   1.00
C293   C     0.75387   0.88552   0.07733   0.00000  Uiso   1.00
C294   C     0.75715   0.10406   0.06259   0.00000  Uiso   1.00
C295   C     0.74730   0.14168   0.00105   0.00000  Uiso   1.00
C296   C     0.68702   0.18202   0.05867   0.00000  Uiso   1.00
C297   C     0.85735   0.07560   0.06241   0.00000  Uiso   1.00
C298   C     0.93174   0.08931   0.00074   0.00000  Uiso   1.00
C299   C     0.95581   0.10571   0.05822   0.00000  Uiso   1.00
H300   H     0.69192   0.06341   0.31778   0.00000  Uiso   1.00
H301   H     0.65649   0.94550   0.33714   0.00000  Uiso   1.00
H302   H     0.61063   0.14893   0.32434   0.00000  Uiso   1.00
H303   H     0.79504   0.09656   0.32403   0.00000  Uiso   1.00
H304   H     0.63862   0.81364   0.30788   0.00000  Uiso   1.00
H305   H     0.54194   0.24259   0.28089   0.00000  Uiso   1.00
H306   H     0.93080   0.13217   0.28024   0.00000  Uiso   1.00
H307   H     0.85717   0.05464   0.92692   0.00000  Uiso   1.00
H308   H     0.83081   0.93625   0.92483   0.00000  Uiso   1.00
H309   H     0.78494   0.13967   0.91204   0.00000  Uiso   1.00
H310   H     0.96935   0.08731   0.91173   0.00000  Uiso   1.00
H311   H     0.78011   0.80613   0.97324   0.00000  Uiso   1.00
H312   H     0.68342   0.23509   0.94626   0.00000  Uiso   1.00
H313   H     0.07228   0.12466   0.94560   0.00000  Uiso   1.00
O314   O     0.68902   0.73217   0.14623   0.00000  Uiso   1.00
O315   O     0.56218   0.29495   0.11084   0.00000  Uiso   1.00
O316   O     0.07236   0.15007   0.10998   0.00000  Uiso   1.00
N317   N     0.67555   0.82812   0.22941   0.00000  Uiso   1.00
N318   N     0.58515   0.22916   0.20418   0.00000  Uiso   1.00
N319   N     0.94870   0.12594   0.20357   0.00000  Uiso   1.00
N320   N     0.75168   0.82408   0.04934   0.00000  Uiso   1.00
N321   N     0.66128   0.22512   0.02411   0.00000  Uiso   1.00
N322   N     0.02483   0.12190   0.02350   0.00000  Uiso   1.00
C323   C     0.22978   0.56140   0.22823   0.00000  Uiso   1.00
C324   C     0.23345   0.49612   0.18455   0.00000  Uiso   1.00
C325   C     0.19412   0.44348   0.24813   0.00000  Uiso   1.00
C326   C     0.20515   0.38811   0.19255   0.00000  Uiso   1.00
C327   C     0.20342   0.28714   0.14222   0.00000  Uiso   1.00
C328   C     0.20853   0.60664   0.17760   0.00000  Uiso   1.00
C329   C     0.14824   0.64694   0.23533   0.00000  Uiso   1.00
C330   C     0.13830   0.68460   0.17390   0.00000  Uiso   1.00
C331   C     0.09790   0.75526   0.11277   0.00000  Uiso   1.00
C332   C     0.30872   0.57818   0.17743   0.00000  Uiso   1.00
C333   C     0.33268   0.59457   0.23502   0.00000  Uiso   1.00
C334   C     0.40709   0.60829   0.17344   0.00000  Uiso   1.00
C335   C     0.52226   0.63476   0.11206   0.00000  Uiso   1.00
C336   C     0.31931   0.55665   0.01648   0.00000  Uiso   1.00
C337   C     0.28208   0.49354   0.06953   0.00000  Uiso   1.00
C338   C     0.29317   0.43823   0.01384   0.00000  Uiso   1.00
C339   C     0.25387   0.38552   0.07733   0.00000  Uiso   1.00
C340   C     0.25715   0.60406   0.06259   0.00000  Uiso   1.00
C341   C     0.24730   0.64168   0.00105   0.00000  Uiso   1.00
C342   C     0.18702   0.68202   0.05867   0.00000  Uiso   1.00
C343   C     0.35735   0.57560   0.06241   0.00000  Uiso   1.00
C344   C     0.43174   0.58931   0.00074   0.00000  Uiso   1.00
C345   C     0.45581   0.60571   0.05822   0.00000  Uiso   1.00
H346   H     0.19192   0.56341   0.31778   0.00000  Uiso   1.00
H347   H     0.15649   0.44550   0.33714   0.00000  Uiso   1.00
H348   H     0.11063   0.64893   0.32434   0.00000  Uiso   1.00
H349   H     0.29504   0.59656   0.32403   0.00000  Uiso   1.00
H350   H     0.13862   0.31364   0.30788   0.00000  Uiso   1.00
H351   H     0.04194   0.74259   0.28089   0.00000  Uiso   1.00
H352   H     0.43080   0.63217   0.28024   0.00000  Uiso   1.00
H353   H     0.35717   0.55464   0.92692   0.00000  Uiso   1.00
H354   H     0.33081   0.43625   0.92483   0.00000  Uiso   1.00
H355   H     0.28494   0.63967   0.91204   0.00000  Uiso   1.00
H356   H     0.46935   0.58731   0.91173   0.00000  Uiso   1.00
H357   H     0.28011   0.30613   0.97324   0.00000  Uiso   1.00
H358   H     0.18342   0.73509   0.94626   0.00000  Uiso   1.00
H359   H     0.57228   0.62466   0.94560   0.00000  Uiso   1.00
O360   O     0.18902   0.23217   0.14623   0.00000  Uiso   1.00
O361   O     0.06218   0.79495   0.11084   0.00000  Uiso   1.00
O362   O     0.57236   0.65007   0.10998   0.00000  Uiso   1.00
N363   N     0.17555   0.32812   0.22941   0.00000  Uiso   1.00
N364   N     0.08515   0.72916   0.20418   0.00000  Uiso   1.00
N365   N     0.44870   0.62594   0.20357   0.00000  Uiso   1.00
N366   N     0.25168   0.32408   0.04934   0.00000  Uiso   1.00
N367   N     0.16128   0.72512   0.02411   0.00000  Uiso   1.00
N368   N     0.52483   0.62190   0.02350   0.00000  Uiso   1.00
