data_job_05627
_audit_creation_date              2018-12-19
_audit_creation_method            'Materials Studio'
_symmetry_space_group_name_H-M    'P1'
_symmetry_Int_Tables_number       1
_symmetry_cell_setting            triclinic
loop_
_symmetry_equiv_pos_as_xyz
  x,y,z
_cell_length_a                    20.2629
_cell_length_b                    6.9676
_cell_length_c                    27.2797
_cell_angle_alpha                 90.0000
_cell_angle_beta                  135.9585
_cell_angle_gamma                 90.0000
loop_
_atom_site_label
_atom_site_type_symbol
_atom_site_fract_x
_atom_site_fract_y
_atom_site_fract_z
_atom_site_U_iso_or_equiv
_atom_site_adp_type
_atom_site_occupancy
C1     C     0.60671   0.63298   0.68256   0.00000  Uiso   1.00
C2     C     0.52939   0.77336   0.62563   0.00000  Uiso   1.00
C3     C     0.43649   0.72553   0.56430   0.00000  Uiso   1.00
C4     C     0.37662   0.87480   0.51888   0.00000  Uiso   1.00
C5     C     0.25170   0.06384   0.42812   0.00000  Uiso   1.00
C6     C     0.68845   0.66137   0.69028   0.00000  Uiso   1.00
C7     C     0.72929   0.51936   0.68331   0.00000  Uiso   1.00
C8     C     0.80333   0.57436   0.69233   0.00000  Uiso   1.00
C9     C     0.92541   0.58949   0.70198   0.00000  Uiso   1.00
C10    C     0.64265   0.70417   0.75125   0.00000  Uiso   1.00
C11    C     0.64502   0.59814   0.79556   0.00000  Uiso   1.00
C12    C     0.68053   0.68917   0.85592   0.00000  Uiso   1.00
C13    C     0.73150   0.77075   0.96023   0.00000  Uiso   1.00
C14    C     0.66559   0.98315   0.71097   0.00000  Uiso   1.00
C15    C     0.56137   0.96356   0.64106   0.00000  Uiso   1.00
C16    C     0.50163   0.11295   0.59573   0.00000  Uiso   1.00
C17    C     0.40865   0.06535   0.53434   0.00000  Uiso   1.00
C18    C     0.72043   0.85156   0.70571   0.00000  Uiso   1.00
C19    C     0.79443   0.90678   0.71474   0.00000  Uiso   1.00
C20    C     0.83537   0.76490   0.70778   0.00000  Uiso   1.00
C21    C     0.67463   0.89437   0.76668   0.00000  Uiso   1.00
C22    C     0.71016   0.98557   0.82698   0.00000  Uiso   1.00
C23    C     0.71257   0.87971   0.87138   0.00000  Uiso   1.00
H24    H     0.58182   0.48490   0.67055   0.00000  Uiso   1.00
H25    H     0.41177   0.57832   0.55238   0.00000  Uiso   1.00
H26    H     0.70454   0.37218   0.67138   0.00000  Uiso   1.00
H27    H     0.62027   0.45096   0.78360   0.00000  Uiso   1.00
H28    H     0.23734   0.76575   0.42815   0.00000  Uiso   1.00
H29    H     0.85468   0.33110   0.67909   0.00000  Uiso   1.00
H30    H     0.67699   0.49720   0.91575   0.00000  Uiso   1.00
H31    H     0.69049   0.13123   0.72298   0.00000  Uiso   1.00
H32    H     0.52640   0.26012   0.60768   0.00000  Uiso   1.00
H33    H     0.81916   0.05398   0.72668   0.00000  Uiso   1.00
H34    H     0.73490   0.13276   0.83891   0.00000  Uiso   1.00
H35    H     0.33038   0.31913   0.47303   0.00000  Uiso   1.00
H36    H     0.94772   0.88447   0.72398   0.00000  Uiso   1.00
H37    H     0.77003   0.05058   0.96063   0.00000  Uiso   1.00
O38    O     0.17396   0.11556   0.37378   0.00000  Uiso   1.00
O39    O     0.98390   0.54529   0.70303   0.00000  Uiso   1.00
O40    O     0.75077   0.76323   0.01350   0.00000  Uiso   1.00
N41    N     0.28176   0.87831   0.45454   0.00000  Uiso   1.00
N42    N     0.85892   0.47193   0.68915   0.00000  Uiso   1.00
N43    N     0.69282   0.62721   0.91041   0.00000  Uiso   1.00
N44    N     0.33182   0.17608   0.47869   0.00000  Uiso   1.00
N45    N     0.90898   0.76970   0.71330   0.00000  Uiso   1.00
N46    N     0.74288   0.92498   0.93456   0.00000  Uiso   1.00
C47    C     0.10671   0.13298   0.68256   0.00000  Uiso   1.00
C48    C     0.02939   0.27336   0.62563   0.00000  Uiso   1.00
C49    C     0.93649   0.22553   0.56430   0.00000  Uiso   1.00
C50    C     0.87662   0.37480   0.51888   0.00000  Uiso   1.00
C51    C     0.75170   0.56384   0.42812   0.00000  Uiso   1.00
C52    C     0.18845   0.16137   0.69028   0.00000  Uiso   1.00
C53    C     0.22929   0.01936   0.68331   0.00000  Uiso   1.00
C54    C     0.30333   0.07436   0.69233   0.00000  Uiso   1.00
C55    C     0.42541   0.08949   0.70198   0.00000  Uiso   1.00
C56    C     0.14265   0.20417   0.75125   0.00000  Uiso   1.00
C57    C     0.14502   0.09814   0.79556   0.00000  Uiso   1.00
C58    C     0.18053   0.18917   0.85592   0.00000  Uiso   1.00
C59    C     0.23150   0.27075   0.96023   0.00000  Uiso   1.00
C60    C     0.16559   0.48315   0.71097   0.00000  Uiso   1.00
C61    C     0.06137   0.46356   0.64106   0.00000  Uiso   1.00
C62    C     0.00163   0.61295   0.59573   0.00000  Uiso   1.00
C63    C     0.90865   0.56535   0.53434   0.00000  Uiso   1.00
C64    C     0.22043   0.35156   0.70571   0.00000  Uiso   1.00
C65    C     0.29443   0.40678   0.71474   0.00000  Uiso   1.00
C66    C     0.33537   0.26490   0.70778   0.00000  Uiso   1.00
C67    C     0.17463   0.39437   0.76668   0.00000  Uiso   1.00
C68    C     0.21016   0.48557   0.82698   0.00000  Uiso   1.00
C69    C     0.21257   0.37971   0.87138   0.00000  Uiso   1.00
H70    H     0.08182   0.98490   0.67055   0.00000  Uiso   1.00
H71    H     0.91177   0.07832   0.55238   0.00000  Uiso   1.00
H72    H     0.20454   0.87218   0.67138   0.00000  Uiso   1.00
H73    H     0.12027   0.95096   0.78360   0.00000  Uiso   1.00
H74    H     0.73734   0.26575   0.42815   0.00000  Uiso   1.00
H75    H     0.35468   0.83110   0.67909   0.00000  Uiso   1.00
H76    H     0.17699   0.99720   0.91575   0.00000  Uiso   1.00
H77    H     0.19049   0.63123   0.72298   0.00000  Uiso   1.00
H78    H     0.02640   0.76012   0.60768   0.00000  Uiso   1.00
H79    H     0.31916   0.55398   0.72668   0.00000  Uiso   1.00
H80    H     0.23490   0.63276   0.83891   0.00000  Uiso   1.00
H81    H     0.83038   0.81913   0.47303   0.00000  Uiso   1.00
H82    H     0.44772   0.38447   0.72398   0.00000  Uiso   1.00
H83    H     0.27003   0.55058   0.96063   0.00000  Uiso   1.00
O84    O     0.67396   0.61556   0.37378   0.00000  Uiso   1.00
O85    O     0.48390   0.04529   0.70303   0.00000  Uiso   1.00
O86    O     0.25077   0.26323   0.01350   0.00000  Uiso   1.00
N87    N     0.78176   0.37831   0.45454   0.00000  Uiso   1.00
N88    N     0.35892   0.97193   0.68915   0.00000  Uiso   1.00
N89    N     0.19282   0.12721   0.91041   0.00000  Uiso   1.00
N90    N     0.83182   0.67608   0.47869   0.00000  Uiso   1.00
N91    N     0.40898   0.26970   0.71330   0.00000  Uiso   1.00
N92    N     0.24288   0.42498   0.93456   0.00000  Uiso   1.00
C93    C     0.39329   0.63298   0.31744   0.00000  Uiso   1.00
C94    C     0.47061   0.77336   0.37437   0.00000  Uiso   1.00
C95    C     0.56351   0.72553   0.43570   0.00000  Uiso   1.00
C96    C     0.62338   0.87480   0.48112   0.00000  Uiso   1.00
C97    C     0.74830   0.06384   0.57188   0.00000  Uiso   1.00
C98    C     0.31155   0.66137   0.30972   0.00000  Uiso   1.00
C99    C     0.27071   0.51936   0.31669   0.00000  Uiso   1.00
C100   C     0.19667   0.57436   0.30767   0.00000  Uiso   1.00
C101   C     0.07459   0.58949   0.29802   0.00000  Uiso   1.00
C102   C     0.35735   0.70417   0.24875   0.00000  Uiso   1.00
C103   C     0.35498   0.59814   0.20444   0.00000  Uiso   1.00
C104   C     0.31947   0.68917   0.14408   0.00000  Uiso   1.00
C105   C     0.26850   0.77075   0.03977   0.00000  Uiso   1.00
C106   C     0.33441   0.98315   0.28903   0.00000  Uiso   1.00
C107   C     0.43863   0.96356   0.35894   0.00000  Uiso   1.00
C108   C     0.49837   0.11295   0.40427   0.00000  Uiso   1.00
C109   C     0.59135   0.06535   0.46566   0.00000  Uiso   1.00
C110   C     0.27957   0.85156   0.29429   0.00000  Uiso   1.00
C111   C     0.20557   0.90678   0.28526   0.00000  Uiso   1.00
C112   C     0.16463   0.76490   0.29222   0.00000  Uiso   1.00
C113   C     0.32537   0.89437   0.23332   0.00000  Uiso   1.00
C114   C     0.28984   0.98557   0.17302   0.00000  Uiso   1.00
C115   C     0.28743   0.87971   0.12862   0.00000  Uiso   1.00
H116   H     0.41818   0.48490   0.32945   0.00000  Uiso   1.00
H117   H     0.58823   0.57832   0.44762   0.00000  Uiso   1.00
H118   H     0.29546   0.37218   0.32862   0.00000  Uiso   1.00
H119   H     0.37973   0.45096   0.21640   0.00000  Uiso   1.00
H120   H     0.76266   0.76575   0.57185   0.00000  Uiso   1.00
H121   H     0.14532   0.33110   0.32091   0.00000  Uiso   1.00
H122   H     0.32301   0.49720   0.08425   0.00000  Uiso   1.00
H123   H     0.30951   0.13123   0.27702   0.00000  Uiso   1.00
H124   H     0.47360   0.26012   0.39232   0.00000  Uiso   1.00
H125   H     0.18084   0.05398   0.27332   0.00000  Uiso   1.00
H126   H     0.26510   0.13276   0.16109   0.00000  Uiso   1.00
H127   H     0.66962   0.31913   0.52697   0.00000  Uiso   1.00
H128   H     0.05228   0.88447   0.27602   0.00000  Uiso   1.00
H129   H     0.22997   0.05058   0.03937   0.00000  Uiso   1.00
O130   O     0.82604   0.11556   0.62622   0.00000  Uiso   1.00
O131   O     0.01610   0.54529   0.29697   0.00000  Uiso   1.00
O132   O     0.24923   0.76323   0.98650   0.00000  Uiso   1.00
N133   N     0.71824   0.87831   0.54546   0.00000  Uiso   1.00
N134   N     0.14108   0.47193   0.31085   0.00000  Uiso   1.00
N135   N     0.30718   0.62721   0.08959   0.00000  Uiso   1.00
N136   N     0.66818   0.17608   0.52131   0.00000  Uiso   1.00
N137   N     0.09102   0.76970   0.28670   0.00000  Uiso   1.00
N138   N     0.25712   0.92498   0.06544   0.00000  Uiso   1.00
C139   C     0.89329   0.13298   0.31744   0.00000  Uiso   1.00
C140   C     0.97061   0.27336   0.37437   0.00000  Uiso   1.00
C141   C     0.06351   0.22553   0.43570   0.00000  Uiso   1.00
C142   C     0.12338   0.37480   0.48112   0.00000  Uiso   1.00
C143   C     0.24830   0.56384   0.57188   0.00000  Uiso   1.00
C144   C     0.81155   0.16137   0.30972   0.00000  Uiso   1.00
C145   C     0.77071   0.01936   0.31669   0.00000  Uiso   1.00
C146   C     0.69667   0.07436   0.30767   0.00000  Uiso   1.00
C147   C     0.57459   0.08949   0.29802   0.00000  Uiso   1.00
C148   C     0.85735   0.20417   0.24875   0.00000  Uiso   1.00
C149   C     0.85498   0.09814   0.20444   0.00000  Uiso   1.00
C150   C     0.81947   0.18917   0.14408   0.00000  Uiso   1.00
C151   C     0.76850   0.27075   0.03977   0.00000  Uiso   1.00
C152   C     0.83441   0.48315   0.28903   0.00000  Uiso   1.00
C153   C     0.93863   0.46356   0.35894   0.00000  Uiso   1.00
C154   C     0.99837   0.61295   0.40427   0.00000  Uiso   1.00
C155   C     0.09135   0.56535   0.46566   0.00000  Uiso   1.00
C156   C     0.77957   0.35156   0.29429   0.00000  Uiso   1.00
C157   C     0.70557   0.40678   0.28526   0.00000  Uiso   1.00
C158   C     0.66463   0.26490   0.29222   0.00000  Uiso   1.00
C159   C     0.82537   0.39437   0.23332   0.00000  Uiso   1.00
C160   C     0.78984   0.48557   0.17302   0.00000  Uiso   1.00
C161   C     0.78743   0.37971   0.12862   0.00000  Uiso   1.00
H162   H     0.91818   0.98490   0.32945   0.00000  Uiso   1.00
H163   H     0.08823   0.07832   0.44762   0.00000  Uiso   1.00
H164   H     0.79546   0.87218   0.32862   0.00000  Uiso   1.00
H165   H     0.87973   0.95096   0.21640   0.00000  Uiso   1.00
H166   H     0.26266   0.26575   0.57185   0.00000  Uiso   1.00
H167   H     0.64532   0.83110   0.32091   0.00000  Uiso   1.00
H168   H     0.82301   0.99720   0.08425   0.00000  Uiso   1.00
H169   H     0.80951   0.63123   0.27702   0.00000  Uiso   1.00
H170   H     0.97360   0.76012   0.39232   0.00000  Uiso   1.00
H171   H     0.68084   0.55398   0.27332   0.00000  Uiso   1.00
H172   H     0.76510   0.63276   0.16109   0.00000  Uiso   1.00
H173   H     0.16962   0.81913   0.52697   0.00000  Uiso   1.00
H174   H     0.55228   0.38447   0.27602   0.00000  Uiso   1.00
H175   H     0.72997   0.55058   0.03937   0.00000  Uiso   1.00
O176   O     0.32604   0.61556   0.62622   0.00000  Uiso   1.00
O177   O     0.51610   0.04529   0.29697   0.00000  Uiso   1.00
O178   O     0.74923   0.26323   0.98650   0.00000  Uiso   1.00
N179   N     0.21824   0.37831   0.54546   0.00000  Uiso   1.00
N180   N     0.64108   0.97193   0.31085   0.00000  Uiso   1.00
N181   N     0.80718   0.12721   0.08959   0.00000  Uiso   1.00
N182   N     0.16818   0.67608   0.52131   0.00000  Uiso   1.00
N183   N     0.59102   0.26970   0.28670   0.00000  Uiso   1.00
N184   N     0.75712   0.42498   0.06544   0.00000  Uiso   1.00
