data_job_06472
_audit_creation_date              2018-12-19
_audit_creation_method            'Materials Studio'
_symmetry_space_group_name_H-M    'P1'
_symmetry_Int_Tables_number       1
_symmetry_cell_setting            triclinic
loop_
_symmetry_equiv_pos_as_xyz
  x,y,z
_cell_length_a                    20.0016
_cell_length_b                    20.1232
_cell_length_c                    20.2396
_cell_angle_alpha                 87.1791
_cell_angle_beta                  65.1964
_cell_angle_gamma                 69.0074
loop_
_atom_site_label
_atom_site_type_symbol
_atom_site_fract_x
_atom_site_fract_y
_atom_site_fract_z
_atom_site_U_iso_or_equiv
_atom_site_adp_type
_atom_site_occupancy
C1     C     0.64954   0.51619   0.79623   0.00000  Uiso   1.00
C2     C     0.68888   0.56171   0.74306   0.00000  Uiso   1.00
C3     C     0.76765   0.55421   0.71746   0.00000  Uiso   1.00
C4     C     0.79221   0.60112   0.66913   0.00000  Uiso   1.00
C5     C     0.86126   0.66384   0.58993   0.00000  Uiso   1.00
C6     C     0.57883   0.56859   0.86044   0.00000  Uiso   1.00
C7     C     0.56506   0.56686   0.93355   0.00000  Uiso   1.00
C8     C     0.49697   0.61956   0.98403   0.00000  Uiso   1.00
C9     C     0.39513   0.69293   0.08708   0.00000  Uiso   1.00
C10    C     0.61479   0.48450   0.75755   0.00000  Uiso   1.00
C11    C     0.63125   0.41208   0.74416   0.00000  Uiso   1.00
C12    C     0.59342   0.39398   0.70803   0.00000  Uiso   1.00
C13    C     0.54742   0.33680   0.65132   0.00000  Uiso   1.00
C14    C     0.55308   0.61283   0.75590   0.00000  Uiso   1.00
C15    C     0.63649   0.61420   0.72115   0.00000  Uiso   1.00
C16    C     0.66093   0.66113   0.67284   0.00000  Uiso   1.00
C17    C     0.73972   0.65371   0.64718   0.00000  Uiso   1.00
C18    C     0.52644   0.62108   0.83854   0.00000  Uiso   1.00
C19    C     0.45834   0.67379   0.88892   0.00000  Uiso   1.00
C20    C     0.44448   0.67215   0.96208   0.00000  Uiso   1.00
C21    C     0.56240   0.53699   0.73564   0.00000  Uiso   1.00
C22    C     0.52453   0.51901   0.69953   0.00000  Uiso   1.00
C23    C     0.54093   0.44657   0.68608   0.00000  Uiso   1.00
H24    H     0.69032   0.47532   0.81329   0.00000  Uiso   1.00
H25    H     0.80818   0.51358   0.73443   0.00000  Uiso   1.00
H26    H     0.60562   0.52623   0.95048   0.00000  Uiso   1.00
H27    H     0.67179   0.37147   0.76112   0.00000  Uiso   1.00
H28    H     0.91573   0.57917   0.63737   0.00000  Uiso   1.00
H29    H     0.48860   0.60583   0.09292   0.00000  Uiso   1.00
H30    H     0.62815   0.27949   0.69362   0.00000  Uiso   1.00
H31    H     0.51228   0.65370   0.73884   0.00000  Uiso   1.00
H32    H     0.62037   0.70175   0.65590   0.00000  Uiso   1.00
H33    H     0.41781   0.71440   0.87195   0.00000  Uiso   1.00
H34    H     0.48399   0.55964   0.68259   0.00000  Uiso   1.00
H35    H     0.76329   0.73190   0.57363   0.00000  Uiso   1.00
H36    H     0.33617   0.75855   0.02919   0.00000  Uiso   1.00
H37    H     0.47572   0.43221   0.62988   0.00000  Uiso   1.00
O38    O     0.91382   0.68394   0.55230   0.00000  Uiso   1.00
O39    O     0.35344   0.71890   0.14997   0.00000  Uiso   1.00
O40    O     0.53653   0.29075   0.62609   0.00000  Uiso   1.00
N41    N     0.86502   0.60851   0.63374   0.00000  Uiso   1.00
N42    N     0.46569   0.63344   0.05965   0.00000  Uiso   1.00
N43    N     0.59614   0.32834   0.68636   0.00000  Uiso   1.00
N44    N     0.78300   0.69069   0.59944   0.00000  Uiso   1.00
N45    N     0.38367   0.71562   0.02536   0.00000  Uiso   1.00
N46    N     0.51412   0.41052   0.65206   0.00000  Uiso   1.00
C47    C     0.02819   0.56440   0.07992   0.00000  Uiso   1.00
C48    C     0.00278   0.57677   0.16206   0.00000  Uiso   1.00
C49    C     0.97030   0.53602   0.21408   0.00000  Uiso   1.00
C50    C     0.95098   0.55603   0.28643   0.00000  Uiso   1.00
C51    C     0.90956   0.56634   0.41101   0.00000  Uiso   1.00
C52    C     0.98264   0.63456   0.05969   0.00000  Uiso   1.00
C53    C     0.93324   0.64239   0.02562   0.00000  Uiso   1.00
C54    C     0.89697   0.71105   0.01178   0.00000  Uiso   1.00
C55    C     0.82433   0.81107   0.97737   0.00000  Uiso   1.00
C56    C     0.11520   0.55589   0.04267   0.00000  Uiso   1.00
C57    C     0.17726   0.49759   0.99429   0.00000  Uiso   1.00
C58    C     0.25261   0.50002   0.96611   0.00000  Uiso   1.00
C59    C     0.38579   0.47788   0.90528   0.00000  Uiso   1.00
C60    C     0.05165   0.67241   0.11590   0.00000  Uiso   1.00
C61    C     0.01553   0.63544   0.18160   0.00000  Uiso   1.00
C62    C     0.99626   0.65552   0.25389   0.00000  Uiso   1.00
C63    C     0.96375   0.61480   0.30601   0.00000  Uiso   1.00
C64    C     0.99538   0.69322   0.07923   0.00000  Uiso   1.00
C65    C     0.95919   0.76189   0.06543   0.00000  Uiso   1.00
C66    C     0.90974   0.76982   0.03136   0.00000  Uiso   1.00
C67    C     0.12795   0.61455   0.06222   0.00000  Uiso   1.00
C68    C     0.20321   0.61708   0.03410   0.00000  Uiso   1.00
C69    C     0.26537   0.55879   0.98569   0.00000  Uiso   1.00
H70    H     0.01826   0.51873   0.06470   0.00000  Uiso   1.00
H71    H     0.96044   0.49063   0.19893   0.00000  Uiso   1.00
H72    H     0.92339   0.59698   0.01050   0.00000  Uiso   1.00
H73    H     0.16737   0.45220   0.97917   0.00000  Uiso   1.00
H74    H     0.90193   0.48536   0.35638   0.00000  Uiso   1.00
H75    H     0.82383   0.70961   0.95903   0.00000  Uiso   1.00
H76    H     0.33831   0.40430   0.89297   0.00000  Uiso   1.00
H77    H     0.06157   0.71808   0.13112   0.00000  Uiso   1.00
H78    H     0.00613   0.70092   0.26900   0.00000  Uiso   1.00
H79    H     0.96907   0.80727   0.08056   0.00000  Uiso   1.00
H80    H     0.21306   0.66248   0.04924   0.00000  Uiso   1.00
H81    H     0.93900   0.65604   0.41325   0.00000  Uiso   1.00
H82    H     0.86090   0.88029   0.01589   0.00000  Uiso   1.00
H83    H     0.37539   0.57498   0.94984   0.00000  Uiso   1.00
O84    O     0.88319   0.55583   0.47432   0.00000  Uiso   1.00
O85    O     0.78073   0.85003   0.95300   0.00000  Uiso   1.00
O86    O     0.45573   0.44947   0.86634   0.00000  Uiso   1.00
N87    N     0.91828   0.52788   0.35084   0.00000  Uiso   1.00
N88    N     0.84525   0.73754   0.97935   0.00000  Uiso   1.00
N89    N     0.32625   0.45211   0.91758   0.00000  Uiso   1.00
N90    N     0.93823   0.61972   0.38144   0.00000  Uiso   1.00
N91    N     0.86520   0.82938   0.00995   0.00000  Uiso   1.00
N92    N     0.34620   0.54395   0.94818   0.00000  Uiso   1.00
C93    C     0.33664   0.51636   0.57840   0.00000  Uiso   1.00
C94    C     0.26804   0.54605   0.55669   0.00000  Uiso   1.00
C95    C     0.27298   0.53587   0.48723   0.00000  Uiso   1.00
C96    C     0.20349   0.56747   0.47854   0.00000  Uiso   1.00
C97    C     0.10790   0.60748   0.43589   0.00000  Uiso   1.00
C98    C     0.34045   0.58092   0.61097   0.00000  Uiso   1.00
C99    C     0.40627   0.60005   0.58714   0.00000  Uiso   1.00
C100   C     0.39774   0.66100   0.62416   0.00000  Uiso   1.00
C101   C     0.41458   0.75511   0.66580   0.00000  Uiso   1.00
C102   C     0.31085   0.47297   0.64164   0.00000  Uiso   1.00
C103   C     0.35180   0.40134   0.64361   0.00000  Uiso   1.00
C104   C     0.31835   0.37141   0.70646   0.00000  Uiso   1.00
C105   C     0.28924   0.29790   0.79572   0.00000  Uiso   1.00
C106   C     0.20446   0.59058   0.68652   0.00000  Uiso   1.00
C107   C     0.19624   0.58637   0.61542   0.00000  Uiso   1.00
C108   C     0.12673   0.61799   0.60684   0.00000  Uiso   1.00
C109   C     0.13156   0.60785   0.53737   0.00000  Uiso   1.00
C110   C     0.26866   0.62124   0.66969   0.00000  Uiso   1.00
C111   C     0.26002   0.68217   0.70676   0.00000  Uiso   1.00
C112   C     0.32581   0.70139   0.68299   0.00000  Uiso   1.00
C113   C     0.23905   0.51329   0.70036   0.00000  Uiso   1.00
C114   C     0.20554   0.48346   0.76322   0.00000  Uiso   1.00
C115   C     0.24642   0.41179   0.76529   0.00000  Uiso   1.00
H116   H     0.39254   0.48498   0.53268   0.00000  Uiso   1.00
H117   H     0.32856   0.50468   0.44179   0.00000  Uiso   1.00
H118   H     0.46183   0.56884   0.54170   0.00000  Uiso   1.00
H119   H     0.40736   0.37016   0.59816   0.00000  Uiso   1.00
H120   H     0.22596   0.54432   0.36691   0.00000  Uiso   1.00
H121   H     0.50698   0.67960   0.57758   0.00000  Uiso   1.00
H122   H     0.39211   0.26064   0.69664   0.00000  Uiso   1.00
H123   H     0.14856   0.62197   0.73224   0.00000  Uiso   1.00
H124   H     0.07118   0.64918   0.65230   0.00000  Uiso   1.00
H125   H     0.20445   0.71335   0.75220   0.00000  Uiso   1.00
H126   H     0.14998   0.51467   0.80866   0.00000  Uiso   1.00
H127   H     0.01706   0.66161   0.53776   0.00000  Uiso   1.00
H128   H     0.29808   0.79688   0.74843   0.00000  Uiso   1.00
H129   H     0.18321   0.37793   0.86749   0.00000  Uiso   1.00
O130   O     0.07501   0.61841   0.39614   0.00000  Uiso   1.00
O131   O     0.44371   0.79588   0.67254   0.00000  Uiso   1.00
O132   O     0.29301   0.24623   0.82873   0.00000  Uiso   1.00
N133   N     0.18741   0.56817   0.41810   0.00000  Uiso   1.00
N134   N     0.45014   0.69466   0.61505   0.00000  Uiso   1.00
N135   N     0.34277   0.30298   0.72637   0.00000  Uiso   1.00
N136   N     0.07500   0.63128   0.51003   0.00000  Uiso   1.00
N137   N     0.33774   0.75777   0.70699   0.00000  Uiso   1.00
N138   N     0.23036   0.36609   0.81830   0.00000  Uiso   1.00
C139   C     0.33715   0.01928   0.58630   0.00000  Uiso   1.00
C140   C     0.27236   0.02899   0.66390   0.00000  Uiso   1.00
C141   C     0.28389   0.00019   0.72375   0.00000  Uiso   1.00
C142   C     0.21697   0.01530   0.79009   0.00000  Uiso   1.00
C143   C     0.12789   0.02396   0.90966   0.00000  Uiso   1.00
C144   C     0.33058   0.09460   0.56597   0.00000  Uiso   1.00
C145   C     0.39106   0.12097   0.54348   0.00000  Uiso   1.00
C146   C     0.37315   0.19132   0.52738   0.00000  Uiso   1.00
C147   C     0.37447   0.30183   0.49486   0.00000  Uiso   1.00
C148   C     0.31302   0.98774   0.53684   0.00000  Uiso   1.00
C149   C     0.35875   0.92426   0.48982   0.00000  Uiso   1.00
C150   C     0.32607   0.90465   0.44918   0.00000  Uiso   1.00
C151   C     0.30013   0.84923   0.37141   0.00000  Uiso   1.00
C152   C     0.19781   0.09734   0.59769   0.00000  Uiso   1.00
C153   C     0.19668   0.07139   0.67009   0.00000  Uiso   1.00
C154   C     0.12972   0.08655   0.73636   0.00000  Uiso   1.00
C155   C     0.14115   0.05777   0.79630   0.00000  Uiso   1.00
C156   C     0.25490   0.13700   0.57216   0.00000  Uiso   1.00
C157   C     0.23690   0.20733   0.55609   0.00000  Uiso   1.00
C158   C     0.29734   0.23379   0.53358   0.00000  Uiso   1.00
C159   C     0.23734   0.03014   0.54302   0.00000  Uiso   1.00
C160   C     0.20458   0.01062   0.50244   0.00000  Uiso   1.00
C161   C     0.25025   0.94712   0.45538   0.00000  Uiso   1.00
H162   H     0.39607   0.98627   0.58148   0.00000  Uiso   1.00
H163   H     0.34247   0.96738   0.71894   0.00000  Uiso   1.00
H164   H     0.44963   0.08814   0.53869   0.00000  Uiso   1.00
H165   H     0.41732   0.89147   0.48505   0.00000  Uiso   1.00
H166   H     0.24967   0.96516   0.87408   0.00000  Uiso   1.00
H167   H     0.47562   0.21978   0.49398   0.00000  Uiso   1.00
H168   H     0.40749   0.80505   0.38087   0.00000  Uiso   1.00
H169   H     0.13889   0.13035   0.60251   0.00000  Uiso   1.00
H170   H     0.07116   0.11936   0.74113   0.00000  Uiso   1.00
H171   H     0.17832   0.24012   0.56088   0.00000  Uiso   1.00
H172   H     0.14601   0.04344   0.50724   0.00000  Uiso   1.00
H173   H     0.02946   0.08851   0.89209   0.00000  Uiso   1.00
H174   H     0.25542   0.34313   0.51199   0.00000  Uiso   1.00
H175   H     0.18729   0.92840   0.39888   0.00000  Uiso   1.00
O176   O     0.09966   0.01703   0.97390   0.00000  Uiso   1.00
O177   O     0.39611   0.35107   0.47521   0.00000  Uiso   1.00
O178   O     0.30672   0.80695   0.32682   0.00000  Uiso   1.00
N179   N     0.20713   0.99569   0.85929   0.00000  Uiso   1.00
N180   N     0.41839   0.23374   0.50393   0.00000  Uiso   1.00
N181   N     0.35470   0.84601   0.39817   0.00000  Uiso   1.00
N182   N     0.08864   0.06206   0.86898   0.00000  Uiso   1.00
N183   N     0.29990   0.30012   0.51363   0.00000  Uiso   1.00
N184   N     0.23621   0.91239   0.40786   0.00000  Uiso   1.00
C185   C     0.57466   0.04757   0.05583   0.00000  Uiso   1.00
C186   C     0.64305   0.07299   0.03732   0.00000  Uiso   1.00
C187   C     0.71270   0.05207   0.97296   0.00000  Uiso   1.00
C188   C     0.76799   0.08140   0.96652   0.00000  Uiso   1.00
C189   C     0.87629   0.11351   0.92925   0.00000  Uiso   1.00
C190   C     0.50095   0.11513   0.07269   0.00000  Uiso   1.00
C191   C     0.45112   0.12963   0.03809   0.00000  Uiso   1.00
C192   C     0.38679   0.19443   0.06143   0.00000  Uiso   1.00
C193   C     0.27444   0.29193   0.07912   0.00000  Uiso   1.00
C194   C     0.56239   0.01581   0.12805   0.00000  Uiso   1.00
C195   C     0.56420   0.94681   0.14001   0.00000  Uiso   1.00
C196   C     0.55157   0.92800   0.20997   0.00000  Uiso   1.00
C197   C     0.53462   0.87129   0.31362   0.00000  Uiso   1.00
C198   C     0.54900   0.13687   0.15882   0.00000  Uiso   1.00
C199   C     0.62911   0.12149   0.09326   0.00000  Uiso   1.00
C200   C     0.68431   0.15086   0.08691   0.00000  Uiso   1.00
C201   C     0.75403   0.12999   0.02256   0.00000  Uiso   1.00
C202   C     0.48701   0.16362   0.12863   0.00000  Uiso   1.00
C203   C     0.42273   0.22842   0.15204   0.00000  Uiso   1.00
C204   C     0.37282   0.24302   0.11748   0.00000  Uiso   1.00
C205   C     0.54845   0.06431   0.18400   0.00000  Uiso   1.00
C206   C     0.53581   0.04560   0.25396   0.00000  Uiso   1.00
C207   C     0.53761   0.97658   0.26601   0.00000  Uiso   1.00
H208   H     0.58551   0.00982   0.01228   0.00000  Uiso   1.00
H209   H     0.72347   0.01454   0.92968   0.00000  Uiso   1.00
H210   H     0.46192   0.09208   0.99480   0.00000  Uiso   1.00
H211   H     0.57499   0.90929   0.09670   0.00000  Uiso   1.00
H212   H     0.87026   0.04118   0.86276   0.00000  Uiso   1.00
H213   H     0.31876   0.20467   0.00010   0.00000  Uiso   1.00
H214   H     0.55718   0.81922   0.21498   0.00000  Uiso   1.00
H215   H     0.53814   0.17463   0.20238   0.00000  Uiso   1.00
H216   H     0.67351   0.18839   0.13022   0.00000  Uiso   1.00
H217   H     0.41196   0.26593   0.19534   0.00000  Uiso   1.00
H218   H     0.52503   0.08314   0.29724   0.00000  Uiso   1.00
H219   H     0.82971   0.18229   0.02553   0.00000  Uiso   1.00
H220   H     0.27821   0.34578   0.16286   0.00000  Uiso   1.00
H221   H     0.51663   0.96033   0.37774   0.00000  Uiso   1.00
O222   O     0.93987   0.11784   0.89323   0.00000  Uiso   1.00
O223   O     0.21632   0.33232   0.07342   0.00000  Uiso   1.00
O224   O     0.52913   0.82662   0.35533   0.00000  Uiso   1.00
N225   N     0.84214   0.07249   0.91098   0.00000  Uiso   1.00
N226   N     0.32654   0.22535   0.03937   0.00000  Uiso   1.00
N227   N     0.54942   0.86499   0.24027   0.00000  Uiso   1.00
N228   N     0.82032   0.14842   0.99856   0.00000  Uiso   1.00
N229   N     0.30472   0.30128   0.12695   0.00000  Uiso   1.00
N230   N     0.52760   0.94092   0.32785   0.00000  Uiso   1.00
C231   C     0.05526   0.02921   0.30457   0.00000  Uiso   1.00
C232   C     0.02424   0.07900   0.25598   0.00000  Uiso   1.00
C233   C     0.97388   0.07180   0.22855   0.00000  Uiso   1.00
C234   C     0.95231   0.12293   0.18514   0.00000  Uiso   1.00
C235   C     0.89988   0.19172   0.11207   0.00000  Uiso   1.00
C236   C     0.03113   0.07664   0.37347   0.00000  Uiso   1.00
C237   C     0.98657   0.06744   0.44483   0.00000  Uiso   1.00
C238   C     0.97082   0.11658   0.50033   0.00000  Uiso   1.00
C239   C     0.92914   0.18166   0.60967   0.00000  Uiso   1.00
C240   C     0.14551   0.00298   0.26486   0.00000  Uiso   1.00
C241   C     0.19713   0.93185   0.24489   0.00000  Uiso   1.00
C242   C     0.27767   0.91897   0.20896   0.00000  Uiso   1.00
C243   C     0.41359   0.86969   0.14965   0.00000  Uiso   1.00
C244   C     0.10651   0.13282   0.27626   0.00000  Uiso   1.00
C245   C     0.05208   0.13528   0.24061   0.00000  Uiso   1.00
C246   C     0.03059   0.18644   0.19723   0.00000  Uiso   1.00
C247   C     0.98020   0.17931   0.16974   0.00000  Uiso   1.00
C248   C     0.05897   0.13291   0.35810   0.00000  Uiso   1.00
C249   C     0.04328   0.18207   0.41351   0.00000  Uiso   1.00
C250   C     0.99871   0.17296   0.48492   0.00000  Uiso   1.00
C251   C     0.17335   0.05926   0.24948   0.00000  Uiso   1.00
C252   C     0.25384   0.04649   0.21357   0.00000  Uiso   1.00
C253   C     0.30556   0.97535   0.19356   0.00000  Uiso   1.00
H254   H     0.03358   0.98539   0.31654   0.00000  Uiso   1.00
H255   H     0.95234   0.02825   0.24047   0.00000  Uiso   1.00
H256   H     0.96504   0.02388   0.45671   0.00000  Uiso   1.00
H257   H     0.17556   0.88832   0.25680   0.00000  Uiso   1.00
H258   H     0.87452   0.10059   0.14936   0.00000  Uiso   1.00
H259   H     0.90133   0.09137   0.60532   0.00000  Uiso   1.00
H260   H     0.34525   0.80550   0.18378   0.00000  Uiso   1.00
H261   H     0.12819   0.17663   0.26429   0.00000  Uiso   1.00
H262   H     0.05214   0.22998   0.18534   0.00000  Uiso   1.00
H263   H     0.06484   0.22561   0.40159   0.00000  Uiso   1.00
H264   H     0.27536   0.09005   0.20168   0.00000  Uiso   1.00
H265   H     0.95552   0.26433   0.10462   0.00000  Uiso   1.00
H266   H     0.98234   0.25510   0.56059   0.00000  Uiso   1.00
H267   H     0.42625   0.96924   0.13905   0.00000  Uiso   1.00
O268   O     0.86327   0.21412   0.07602   0.00000  Uiso   1.00
O269   O     0.89846   0.20201   0.67423   0.00000  Uiso   1.00
O270   O     0.48086   0.82696   0.12117   0.00000  Uiso   1.00
N271   N     0.90403   0.13180   0.14965   0.00000  Uiso   1.00
N272   N     0.92909   0.12318   0.57595   0.00000  Uiso   1.00
N273   N     0.34412   0.85592   0.18187   0.00000  Uiso   1.00
N274   N     0.94762   0.21990   0.12558   0.00000  Uiso   1.00
N275   N     0.97268   0.21129   0.55188   0.00000  Uiso   1.00
N276   N     0.38770   0.94403   0.15779   0.00000  Uiso   1.00
C277   C     0.35046   0.48381   0.20377   0.00000  Uiso   1.00
C278   C     0.31112   0.43829   0.25694   0.00000  Uiso   1.00
C279   C     0.23235   0.44579   0.28254   0.00000  Uiso   1.00
C280   C     0.20779   0.39888   0.33087   0.00000  Uiso   1.00
C281   C     0.13874   0.33616   0.41007   0.00000  Uiso   1.00
C282   C     0.42117   0.43141   0.13956   0.00000  Uiso   1.00
C283   C     0.43494   0.43314   0.06645   0.00000  Uiso   1.00
C284   C     0.50303   0.38044   0.01597   0.00000  Uiso   1.00
C285   C     0.60487   0.30707   0.91292   0.00000  Uiso   1.00
C286   C     0.38521   0.51550   0.24245   0.00000  Uiso   1.00
C287   C     0.36875   0.58792   0.25584   0.00000  Uiso   1.00
C288   C     0.40658   0.60602   0.29197   0.00000  Uiso   1.00
C289   C     0.45258   0.66320   0.34868   0.00000  Uiso   1.00
C290   C     0.44692   0.38717   0.24410   0.00000  Uiso   1.00
C291   C     0.36351   0.38580   0.27885   0.00000  Uiso   1.00
C292   C     0.33907   0.33887   0.32716   0.00000  Uiso   1.00
C293   C     0.26028   0.34629   0.35282   0.00000  Uiso   1.00
C294   C     0.47356   0.37892   0.16146   0.00000  Uiso   1.00
C295   C     0.54166   0.32621   0.11108   0.00000  Uiso   1.00
C296   C     0.55552   0.32785   0.03792   0.00000  Uiso   1.00
C297   C     0.43760   0.46301   0.26436   0.00000  Uiso   1.00
C298   C     0.47547   0.48099   0.30047   0.00000  Uiso   1.00
C299   C     0.45907   0.55343   0.31392   0.00000  Uiso   1.00
H300   H     0.30968   0.52468   0.18671   0.00000  Uiso   1.00
H301   H     0.19182   0.48642   0.26557   0.00000  Uiso   1.00
H302   H     0.39438   0.47377   0.04952   0.00000  Uiso   1.00
H303   H     0.32821   0.62853   0.23888   0.00000  Uiso   1.00
H304   H     0.08427   0.42083   0.36263   0.00000  Uiso   1.00
H305   H     0.51140   0.39417   0.90708   0.00000  Uiso   1.00
H306   H     0.37185   0.72051   0.30638   0.00000  Uiso   1.00
H307   H     0.48772   0.34630   0.26116   0.00000  Uiso   1.00
H308   H     0.37963   0.29825   0.34410   0.00000  Uiso   1.00
H309   H     0.58219   0.28560   0.12805   0.00000  Uiso   1.00
H310   H     0.51601   0.44036   0.31741   0.00000  Uiso   1.00
H311   H     0.23671   0.26810   0.42637   0.00000  Uiso   1.00
H312   H     0.66383   0.24145   0.97081   0.00000  Uiso   1.00
H313   H     0.52428   0.56779   0.37012   0.00000  Uiso   1.00
O314   O     0.08618   0.31606   0.44770   0.00000  Uiso   1.00
O315   O     0.64656   0.28110   0.85003   0.00000  Uiso   1.00
O316   O     0.46347   0.70925   0.37391   0.00000  Uiso   1.00
N317   N     0.13498   0.39149   0.36626   0.00000  Uiso   1.00
N318   N     0.53431   0.36656   0.94035   0.00000  Uiso   1.00
N319   N     0.40386   0.67166   0.31364   0.00000  Uiso   1.00
N320   N     0.21700   0.30931   0.40056   0.00000  Uiso   1.00
N321   N     0.61633   0.28438   0.97464   0.00000  Uiso   1.00
N322   N     0.48588   0.58948   0.34794   0.00000  Uiso   1.00
C323   C     0.97181   0.43560   0.92008   0.00000  Uiso   1.00
C324   C     0.99722   0.42323   0.83794   0.00000  Uiso   1.00
C325   C     0.02970   0.46398   0.78592   0.00000  Uiso   1.00
C326   C     0.04902   0.44397   0.71357   0.00000  Uiso   1.00
C327   C     0.09044   0.43366   0.58899   0.00000  Uiso   1.00
C328   C     0.01736   0.36544   0.94031   0.00000  Uiso   1.00
C329   C     0.06676   0.35761   0.97438   0.00000  Uiso   1.00
C330   C     0.10303   0.28895   0.98822   0.00000  Uiso   1.00
C331   C     0.17567   0.18893   0.02263   0.00000  Uiso   1.00
C332   C     0.88480   0.44411   0.95733   0.00000  Uiso   1.00
C333   C     0.82274   0.50241   0.00571   0.00000  Uiso   1.00
C334   C     0.74739   0.49998   0.03389   0.00000  Uiso   1.00
C335   C     0.61421   0.52212   0.09472   0.00000  Uiso   1.00
C336   C     0.94835   0.32759   0.88410   0.00000  Uiso   1.00
C337   C     0.98447   0.36456   0.81840   0.00000  Uiso   1.00
C338   C     0.00374   0.34448   0.74611   0.00000  Uiso   1.00
C339   C     0.03625   0.38520   0.69399   0.00000  Uiso   1.00
C340   C     0.00462   0.30678   0.92077   0.00000  Uiso   1.00
C341   C     0.04081   0.23811   0.93457   0.00000  Uiso   1.00
C342   C     0.09026   0.23018   0.96864   0.00000  Uiso   1.00
C343   C     0.87205   0.38545   0.93778   0.00000  Uiso   1.00
C344   C     0.79679   0.38292   0.96590   0.00000  Uiso   1.00
C345   C     0.73463   0.44121   0.01431   0.00000  Uiso   1.00
H346   H     0.98174   0.48127   0.93530   0.00000  Uiso   1.00
H347   H     0.03956   0.50937   0.80107   0.00000  Uiso   1.00
H348   H     0.07661   0.40302   0.98950   0.00000  Uiso   1.00
H349   H     0.83263   0.54780   0.02083   0.00000  Uiso   1.00
H350   H     0.09807   0.51464   0.64362   0.00000  Uiso   1.00
H351   H     0.17617   0.29039   0.04097   0.00000  Uiso   1.00
H352   H     0.66169   0.59570   0.10703   0.00000  Uiso   1.00
H353   H     0.93843   0.28192   0.86888   0.00000  Uiso   1.00
H354   H     0.99387   0.29908   0.73100   0.00000  Uiso   1.00
H355   H     0.03093   0.19273   0.91944   0.00000  Uiso   1.00
H356   H     0.78694   0.33752   0.95076   0.00000  Uiso   1.00
H357   H     0.06100   0.34396   0.58675   0.00000  Uiso   1.00
H358   H     0.13910   0.11971   0.98411   0.00000  Uiso   1.00
H359   H     0.62461   0.42502   0.05016   0.00000  Uiso   1.00
O360   O     0.11681   0.44417   0.52568   0.00000  Uiso   1.00
O361   O     0.21927   0.14997   0.04700   0.00000  Uiso   1.00
O362   O     0.54427   0.55053   0.13366   0.00000  Uiso   1.00
N363   N     0.08172   0.47212   0.64916   0.00000  Uiso   1.00
N364   N     0.15475   0.26246   0.02065   0.00000  Uiso   1.00
N365   N     0.67375   0.54789   0.08242   0.00000  Uiso   1.00
N366   N     0.06177   0.38028   0.61856   0.00000  Uiso   1.00
N367   N     0.13480   0.17062   0.99005   0.00000  Uiso   1.00
N368   N     0.65380   0.45605   0.05182   0.00000  Uiso   1.00
C369   C     0.66336   0.48364   0.42160   0.00000  Uiso   1.00
C370   C     0.73196   0.45395   0.44331   0.00000  Uiso   1.00
C371   C     0.72702   0.46413   0.51277   0.00000  Uiso   1.00
C372   C     0.79651   0.43253   0.52146   0.00000  Uiso   1.00
C373   C     0.89210   0.39252   0.56411   0.00000  Uiso   1.00
C374   C     0.65955   0.41908   0.38903   0.00000  Uiso   1.00
C375   C     0.59373   0.39995   0.41286   0.00000  Uiso   1.00
C376   C     0.60226   0.33900   0.37584   0.00000  Uiso   1.00
C377   C     0.58542   0.24489   0.33420   0.00000  Uiso   1.00
C378   C     0.68915   0.52703   0.35836   0.00000  Uiso   1.00
C379   C     0.64820   0.59866   0.35639   0.00000  Uiso   1.00
C380   C     0.68165   0.62859   0.29354   0.00000  Uiso   1.00
C381   C     0.71076   0.70210   0.20428   0.00000  Uiso   1.00
C382   C     0.79554   0.40942   0.31348   0.00000  Uiso   1.00
C383   C     0.80376   0.41363   0.38458   0.00000  Uiso   1.00
C384   C     0.87327   0.38201   0.39316   0.00000  Uiso   1.00
C385   C     0.86844   0.39215   0.46263   0.00000  Uiso   1.00
C386   C     0.73134   0.37876   0.33031   0.00000  Uiso   1.00
C387   C     0.73998   0.31783   0.29324   0.00000  Uiso   1.00
C388   C     0.67419   0.29861   0.31701   0.00000  Uiso   1.00
C389   C     0.76095   0.48671   0.29964   0.00000  Uiso   1.00
C390   C     0.79446   0.51654   0.23678   0.00000  Uiso   1.00
C391   C     0.75358   0.58821   0.23471   0.00000  Uiso   1.00
H392   H     0.60746   0.51502   0.46732   0.00000  Uiso   1.00
H393   H     0.67144   0.49532   0.55821   0.00000  Uiso   1.00
H394   H     0.53817   0.43116   0.45830   0.00000  Uiso   1.00
H395   H     0.59264   0.62984   0.40184   0.00000  Uiso   1.00
H396   H     0.77404   0.45568   0.63309   0.00000  Uiso   1.00
H397   H     0.49302   0.32040   0.42242   0.00000  Uiso   1.00
H398   H     0.60789   0.73936   0.30336   0.00000  Uiso   1.00
H399   H     0.85144   0.37803   0.26776   0.00000  Uiso   1.00
H400   H     0.92882   0.35082   0.34770   0.00000  Uiso   1.00
H401   H     0.79555   0.28665   0.24780   0.00000  Uiso   1.00
H402   H     0.85002   0.48533   0.19134   0.00000  Uiso   1.00
H403   H     0.98294   0.33839   0.46224   0.00000  Uiso   1.00
H404   H     0.70192   0.20312   0.25157   0.00000  Uiso   1.00
H405   H     0.81679   0.62207   0.13251   0.00000  Uiso   1.00
O406   O     0.92499   0.38159   0.60386   0.00000  Uiso   1.00
O407   O     0.55629   0.20412   0.32746   0.00000  Uiso   1.00
O408   O     0.70699   0.75377   0.17127   0.00000  Uiso   1.00
N409   N     0.81259   0.43183   0.58190   0.00000  Uiso   1.00
N410   N     0.54986   0.30534   0.38495   0.00000  Uiso   1.00
N411   N     0.65723   0.69702   0.27363   0.00000  Uiso   1.00
N412   N     0.92500   0.36872   0.48997   0.00000  Uiso   1.00
N413   N     0.66226   0.24223   0.29301   0.00000  Uiso   1.00
N414   N     0.76964   0.63391   0.18170   0.00000  Uiso   1.00
C415   C     0.66285   0.98072   0.41370   0.00000  Uiso   1.00
C416   C     0.72764   0.97101   0.33610   0.00000  Uiso   1.00
C417   C     0.71611   0.99981   0.27625   0.00000  Uiso   1.00
C418   C     0.78303   0.98470   0.20991   0.00000  Uiso   1.00
C419   C     0.87211   0.97604   0.09034   0.00000  Uiso   1.00
C420   C     0.66942   0.90540   0.43403   0.00000  Uiso   1.00
C421   C     0.60894   0.87903   0.45652   0.00000  Uiso   1.00
C422   C     0.62685   0.80868   0.47262   0.00000  Uiso   1.00
C423   C     0.62553   0.69817   0.50514   0.00000  Uiso   1.00
C424   C     0.68698   0.01226   0.46316   0.00000  Uiso   1.00
C425   C     0.64125   0.07574   0.51018   0.00000  Uiso   1.00
C426   C     0.67393   0.09535   0.55082   0.00000  Uiso   1.00
C427   C     0.69987   0.15077   0.62859   0.00000  Uiso   1.00
C428   C     0.80219   0.90266   0.40231   0.00000  Uiso   1.00
C429   C     0.80332   0.92861   0.32991   0.00000  Uiso   1.00
C430   C     0.87028   0.91345   0.26364   0.00000  Uiso   1.00
C431   C     0.85885   0.94223   0.20370   0.00000  Uiso   1.00
C432   C     0.74510   0.86300   0.42784   0.00000  Uiso   1.00
C433   C     0.76310   0.79267   0.44391   0.00000  Uiso   1.00
C434   C     0.70266   0.76621   0.46642   0.00000  Uiso   1.00
C435   C     0.76266   0.96986   0.45698   0.00000  Uiso   1.00
C436   C     0.79542   0.98938   0.49756   0.00000  Uiso   1.00
C437   C     0.74975   0.05288   0.54462   0.00000  Uiso   1.00
H438   H     0.60393   0.01373   0.41852   0.00000  Uiso   1.00
H439   H     0.65753   0.03262   0.28106   0.00000  Uiso   1.00
H440   H     0.55037   0.91186   0.46131   0.00000  Uiso   1.00
H441   H     0.58268   0.10853   0.51495   0.00000  Uiso   1.00
H442   H     0.75033   0.03484   0.12592   0.00000  Uiso   1.00
H443   H     0.52438   0.78022   0.50602   0.00000  Uiso   1.00
H444   H     0.59251   0.19495   0.61913   0.00000  Uiso   1.00
H445   H     0.86111   0.86965   0.39749   0.00000  Uiso   1.00
H446   H     0.92884   0.88064   0.25887   0.00000  Uiso   1.00
H447   H     0.82168   0.75988   0.43912   0.00000  Uiso   1.00
H448   H     0.85399   0.95656   0.49276   0.00000  Uiso   1.00
H449   H     0.97054   0.91149   0.10791   0.00000  Uiso   1.00
H450   H     0.74458   0.65687   0.48801   0.00000  Uiso   1.00
H451   H     0.81271   0.07160   0.60112   0.00000  Uiso   1.00
O452   O     0.90034   0.98297   0.02610   0.00000  Uiso   1.00
O453   O     0.60389   0.64893   0.52479   0.00000  Uiso   1.00
O454   O     0.69328   0.19305   0.67318   0.00000  Uiso   1.00
N455   N     0.79287   0.00431   0.14071   0.00000  Uiso   1.00
N456   N     0.58161   0.76626   0.49607   0.00000  Uiso   1.00
N457   N     0.64530   0.15399   0.60183   0.00000  Uiso   1.00
N458   N     0.91136   0.93794   0.13102   0.00000  Uiso   1.00
N459   N     0.70010   0.69988   0.48637   0.00000  Uiso   1.00
N460   N     0.76379   0.08761   0.59214   0.00000  Uiso   1.00
C461   C     0.42534   0.95243   0.94417   0.00000  Uiso   1.00
C462   C     0.35695   0.92701   0.96268   0.00000  Uiso   1.00
C463   C     0.28730   0.94793   0.02704   0.00000  Uiso   1.00
C464   C     0.23201   0.91860   0.03348   0.00000  Uiso   1.00
C465   C     0.12371   0.88649   0.07075   0.00000  Uiso   1.00
C466   C     0.49905   0.88487   0.92731   0.00000  Uiso   1.00
C467   C     0.54888   0.87037   0.96191   0.00000  Uiso   1.00
C468   C     0.61321   0.80557   0.93857   0.00000  Uiso   1.00
C469   C     0.72556   0.70807   0.92088   0.00000  Uiso   1.00
C470   C     0.43761   0.98419   0.87195   0.00000  Uiso   1.00
C471   C     0.43580   0.05319   0.85999   0.00000  Uiso   1.00
C472   C     0.44843   0.07200   0.79003   0.00000  Uiso   1.00
C473   C     0.46538   0.12871   0.68638   0.00000  Uiso   1.00
C474   C     0.45100   0.86313   0.84118   0.00000  Uiso   1.00
C475   C     0.37089   0.87851   0.90674   0.00000  Uiso   1.00
C476   C     0.31569   0.84914   0.91309   0.00000  Uiso   1.00
C477   C     0.24597   0.87001   0.97744   0.00000  Uiso   1.00
C478   C     0.51299   0.83638   0.87137   0.00000  Uiso   1.00
C479   C     0.57727   0.77158   0.84796   0.00000  Uiso   1.00
C480   C     0.62718   0.75698   0.88252   0.00000  Uiso   1.00
C481   C     0.45155   0.93569   0.81600   0.00000  Uiso   1.00
C482   C     0.46419   0.95440   0.74604   0.00000  Uiso   1.00
C483   C     0.46239   0.02342   0.73399   0.00000  Uiso   1.00
H484   H     0.41449   0.99018   0.98772   0.00000  Uiso   1.00
H485   H     0.27653   0.98546   0.07032   0.00000  Uiso   1.00
H486   H     0.53808   0.90792   0.00520   0.00000  Uiso   1.00
H487   H     0.42501   0.09071   0.90330   0.00000  Uiso   1.00
H488   H     0.12974   0.95882   0.13724   0.00000  Uiso   1.00
H489   H     0.68124   0.79533   0.99990   0.00000  Uiso   1.00
H490   H     0.44282   0.18078   0.78502   0.00000  Uiso   1.00
H491   H     0.46186   0.82537   0.79762   0.00000  Uiso   1.00
H492   H     0.32649   0.81161   0.86978   0.00000  Uiso   1.00
H493   H     0.58804   0.73407   0.80466   0.00000  Uiso   1.00
H494   H     0.47497   0.91686   0.70276   0.00000  Uiso   1.00
H495   H     0.17029   0.81771   0.97447   0.00000  Uiso   1.00
H496   H     0.72179   0.65422   0.83714   0.00000  Uiso   1.00
H497   H     0.48337   0.03967   0.62226   0.00000  Uiso   1.00
O498   O     0.06013   0.88216   0.10677   0.00000  Uiso   1.00
O499   O     0.78368   0.66768   0.92658   0.00000  Uiso   1.00
O500   O     0.47087   0.17338   0.64467   0.00000  Uiso   1.00
N501   N     0.15786   0.92751   0.08902   0.00000  Uiso   1.00
N502   N     0.67346   0.77465   0.96063   0.00000  Uiso   1.00
N503   N     0.45058   0.13501   0.75973   0.00000  Uiso   1.00
N504   N     0.17968   0.85158   0.00144   0.00000  Uiso   1.00
N505   N     0.69528   0.69872   0.87305   0.00000  Uiso   1.00
N506   N     0.47240   0.05908   0.67215   0.00000  Uiso   1.00
C507   C     0.94474   0.97079   0.69543   0.00000  Uiso   1.00
C508   C     0.97576   0.92100   0.74402   0.00000  Uiso   1.00
C509   C     0.02612   0.92820   0.77145   0.00000  Uiso   1.00
C510   C     0.04769   0.87707   0.81486   0.00000  Uiso   1.00
C511   C     0.10012   0.80828   0.88793   0.00000  Uiso   1.00
C512   C     0.96887   0.92336   0.62653   0.00000  Uiso   1.00
C513   C     0.01343   0.93256   0.55517   0.00000  Uiso   1.00
C514   C     0.02918   0.88342   0.49967   0.00000  Uiso   1.00
C515   C     0.07086   0.81834   0.39033   0.00000  Uiso   1.00
C516   C     0.85449   0.99702   0.73514   0.00000  Uiso   1.00
C517   C     0.80287   0.06815   0.75511   0.00000  Uiso   1.00
C518   C     0.72233   0.08103   0.79104   0.00000  Uiso   1.00
C519   C     0.58641   0.13031   0.85035   0.00000  Uiso   1.00
C520   C     0.89349   0.86718   0.72374   0.00000  Uiso   1.00
C521   C     0.94792   0.86472   0.75939   0.00000  Uiso   1.00
C522   C     0.96941   0.81356   0.80277   0.00000  Uiso   1.00
C523   C     0.01980   0.82069   0.83026   0.00000  Uiso   1.00
C524   C     0.94103   0.86709   0.64190   0.00000  Uiso   1.00
C525   C     0.95672   0.81793   0.58649   0.00000  Uiso   1.00
C526   C     0.00129   0.82704   0.51508   0.00000  Uiso   1.00
C527   C     0.82665   0.94074   0.75052   0.00000  Uiso   1.00
C528   C     0.74616   0.95351   0.78643   0.00000  Uiso   1.00
C529   C     0.69444   0.02465   0.80644   0.00000  Uiso   1.00
H530   H     0.96642   0.01461   0.68346   0.00000  Uiso   1.00
H531   H     0.04766   0.97175   0.75953   0.00000  Uiso   1.00
H532   H     0.03496   0.97612   0.54329   0.00000  Uiso   1.00
H533   H     0.82444   0.11168   0.74320   0.00000  Uiso   1.00
H534   H     0.12548   0.89941   0.85064   0.00000  Uiso   1.00
H535   H     0.09867   0.90863   0.39468   0.00000  Uiso   1.00
H536   H     0.65475   0.19450   0.81622   0.00000  Uiso   1.00
H537   H     0.87181   0.82337   0.73571   0.00000  Uiso   1.00
H538   H     0.94786   0.77002   0.81466   0.00000  Uiso   1.00
H539   H     0.93516   0.77439   0.59841   0.00000  Uiso   1.00
H540   H     0.72464   0.90995   0.79832   0.00000  Uiso   1.00
H541   H     0.04448   0.73567   0.89538   0.00000  Uiso   1.00
H542   H     0.01766   0.74490   0.43941   0.00000  Uiso   1.00
H543   H     0.57375   0.03076   0.86095   0.00000  Uiso   1.00
O544   O     0.13673   0.78588   0.92398   0.00000  Uiso   1.00
O545   O     0.10154   0.79799   0.32577   0.00000  Uiso   1.00
O546   O     0.51914   0.17304   0.87883   0.00000  Uiso   1.00
N547   N     0.09597   0.86820   0.85035   0.00000  Uiso   1.00
N548   N     0.07091   0.87682   0.42405   0.00000  Uiso   1.00
N549   N     0.65588   0.14408   0.81813   0.00000  Uiso   1.00
N550   N     0.05238   0.78010   0.87442   0.00000  Uiso   1.00
N551   N     0.02732   0.78871   0.44812   0.00000  Uiso   1.00
N552   N     0.61230   0.05597   0.84221   0.00000  Uiso   1.00
