data_job_05450
_audit_creation_date              2018-12-19
_audit_creation_method            'Materials Studio'
_symmetry_space_group_name_H-M    'P1'
_symmetry_Int_Tables_number       1
_symmetry_cell_setting            triclinic
loop_
_symmetry_equiv_pos_as_xyz
  x,y,z
_cell_length_a                    21.2381
_cell_length_b                    15.0692
_cell_length_c                    18.1068
_cell_angle_alpha                 90.0000
_cell_angle_beta                  90.0000
_cell_angle_gamma                 90.0000
loop_
_atom_site_label
_atom_site_type_symbol
_atom_site_fract_x
_atom_site_fract_y
_atom_site_fract_z
_atom_site_U_iso_or_equiv
_atom_site_adp_type
_atom_site_occupancy
C1     C     0.76276   0.63482   0.10081   0.00000  Uiso   1.00
C2     C     0.83140   0.65650   0.11766   0.00000  Uiso   1.00
C3     C     0.88267   0.60255   0.10212   0.00000  Uiso   1.00
C4     C     0.94167   0.63432   0.12189   0.00000  Uiso   1.00
C5     C     0.04713   0.65538   0.14291   0.00000  Uiso   1.00
C6     C     0.72789   0.64122   0.17424   0.00000  Uiso   1.00
C7     C     0.69212   0.57443   0.20625   0.00000  Uiso   1.00
C8     C     0.66397   0.59336   0.27364   0.00000  Uiso   1.00
C9     C     0.60869   0.59072   0.38246   0.00000  Uiso   1.00
C10    C     0.73830   0.71115   0.05354   0.00000  Uiso   1.00
C11    C     0.71127   0.70315   0.98408   0.00000  Uiso   1.00
C12    C     0.69188   0.78095   0.94986   0.00000  Uiso   1.00
C13    C     0.65277   0.88688   0.87129   0.00000  Uiso   1.00
C14    C     0.77636   0.78720   0.16357   0.00000  Uiso   1.00
C15    C     0.83879   0.73926   0.15176   0.00000  Uiso   1.00
C16    C     0.89773   0.77114   0.17156   0.00000  Uiso   1.00
C17    C     0.94908   0.71724   0.15604   0.00000  Uiso   1.00
C18    C     0.73528   0.72399   0.20833   0.00000  Uiso   1.00
C19    C     0.70717   0.74302   0.27569   0.00000  Uiso   1.00
C20    C     0.67138   0.67627   0.30779   0.00000  Uiso   1.00
C21    C     0.74569   0.79391   0.08763   0.00000  Uiso   1.00
C22    C     0.72633   0.87174   0.05352   0.00000  Uiso   1.00
C23    C     0.69928   0.86386   0.98401   0.00000  Uiso   1.00
H24    H     0.75700   0.57038   0.07427   0.00000  Uiso   1.00
H25    H     0.87693   0.53850   0.07574   0.00000  Uiso   1.00
H26    H     0.68640   0.51039   0.17985   0.00000  Uiso   1.00
H27    H     0.70556   0.63909   0.95771   0.00000  Uiso   1.00
H28    H     0.01316   0.53963   0.09243   0.00000  Uiso   1.00
H29    H     0.61140   0.48038   0.31193   0.00000  Uiso   1.00
H30    H     0.65179   0.75176   0.84352   0.00000  Uiso   1.00
H31    H     0.78212   0.85163   0.19011   0.00000  Uiso   1.00
H32    H     0.90343   0.83519   0.19794   0.00000  Uiso   1.00
H33    H     0.71290   0.80708   0.30205   0.00000  Uiso   1.00
H34    H     0.73206   0.93578   0.07991   0.00000  Uiso   1.00
H35    H     0.03467   0.78044   0.19161   0.00000  Uiso   1.00
H36    H     0.63290   0.72118   0.41112   0.00000  Uiso   1.00
H37    H     0.67330   0.99257   0.94270   0.00000  Uiso   1.00
O38    O     0.10326   0.64413   0.14510   0.00000  Uiso   1.00
O39    O     0.57616   0.56639   0.43307   0.00000  Uiso   1.00
O40    O     0.62916   0.92244   0.81853   0.00000  Uiso   1.00
N41    N     0.00157   0.59857   0.11468   0.00000  Uiso   1.00
N42    N     0.62596   0.54317   0.31992   0.00000  Uiso   1.00
N43    N     0.66371   0.79689   0.88200   0.00000  Uiso   1.00
N44    N     0.01315   0.72815   0.16805   0.00000  Uiso   1.00
N45    N     0.63753   0.67274   0.37328   0.00000  Uiso   1.00
N46    N     0.67528   0.92646   0.93536   0.00000  Uiso   1.00
C47    C     0.73724   0.36518   0.10081   0.00000  Uiso   1.00
C48    C     0.66860   0.34350   0.11766   0.00000  Uiso   1.00
C49    C     0.61733   0.39745   0.10212   0.00000  Uiso   1.00
C50    C     0.55833   0.36568   0.12189   0.00000  Uiso   1.00
C51    C     0.45287   0.34462   0.14291   0.00000  Uiso   1.00
C52    C     0.77211   0.35878   0.17424   0.00000  Uiso   1.00
C53    C     0.80788   0.42557   0.20625   0.00000  Uiso   1.00
C54    C     0.83603   0.40664   0.27364   0.00000  Uiso   1.00
C55    C     0.89131   0.40928   0.38246   0.00000  Uiso   1.00
C56    C     0.76170   0.28885   0.05354   0.00000  Uiso   1.00
C57    C     0.78873   0.29685   0.98408   0.00000  Uiso   1.00
C58    C     0.80812   0.21905   0.94986   0.00000  Uiso   1.00
C59    C     0.84723   0.11312   0.87129   0.00000  Uiso   1.00
C60    C     0.72364   0.21280   0.16357   0.00000  Uiso   1.00
C61    C     0.66121   0.26074   0.15176   0.00000  Uiso   1.00
C62    C     0.60227   0.22886   0.17156   0.00000  Uiso   1.00
C63    C     0.55092   0.28276   0.15604   0.00000  Uiso   1.00
C64    C     0.76472   0.27601   0.20833   0.00000  Uiso   1.00
C65    C     0.79283   0.25698   0.27569   0.00000  Uiso   1.00
C66    C     0.82862   0.32373   0.30779   0.00000  Uiso   1.00
C67    C     0.75431   0.20609   0.08763   0.00000  Uiso   1.00
C68    C     0.77367   0.12826   0.05352   0.00000  Uiso   1.00
C69    C     0.80072   0.13614   0.98401   0.00000  Uiso   1.00
H70    H     0.74300   0.42962   0.07427   0.00000  Uiso   1.00
H71    H     0.62307   0.46150   0.07574   0.00000  Uiso   1.00
H72    H     0.81360   0.48961   0.17985   0.00000  Uiso   1.00
H73    H     0.79444   0.36091   0.95771   0.00000  Uiso   1.00
H74    H     0.48684   0.46037   0.09243   0.00000  Uiso   1.00
H75    H     0.88860   0.51962   0.31193   0.00000  Uiso   1.00
H76    H     0.84821   0.24824   0.84352   0.00000  Uiso   1.00
H77    H     0.71788   0.14837   0.19011   0.00000  Uiso   1.00
H78    H     0.59657   0.16481   0.19794   0.00000  Uiso   1.00
H79    H     0.78710   0.19292   0.30205   0.00000  Uiso   1.00
H80    H     0.76794   0.06422   0.07991   0.00000  Uiso   1.00
H81    H     0.46533   0.21956   0.19161   0.00000  Uiso   1.00
H82    H     0.86710   0.27882   0.41112   0.00000  Uiso   1.00
H83    H     0.82670   0.00743   0.94270   0.00000  Uiso   1.00
O84    O     0.39674   0.35587   0.14510   0.00000  Uiso   1.00
O85    O     0.92384   0.43361   0.43307   0.00000  Uiso   1.00
O86    O     0.87084   0.07756   0.81853   0.00000  Uiso   1.00
N87    N     0.49843   0.40143   0.11468   0.00000  Uiso   1.00
N88    N     0.87404   0.45683   0.31992   0.00000  Uiso   1.00
N89    N     0.83629   0.20311   0.88200   0.00000  Uiso   1.00
N90    N     0.48685   0.27185   0.16805   0.00000  Uiso   1.00
N91    N     0.86247   0.32726   0.37328   0.00000  Uiso   1.00
N92    N     0.82472   0.07354   0.93536   0.00000  Uiso   1.00
C93    C     0.23724   0.63482   0.39919   0.00000  Uiso   1.00
C94    C     0.16860   0.65650   0.38234   0.00000  Uiso   1.00
C95    C     0.11733   0.60255   0.39788   0.00000  Uiso   1.00
C96    C     0.05833   0.63432   0.37811   0.00000  Uiso   1.00
C97    C     0.95287   0.65538   0.35709   0.00000  Uiso   1.00
C98    C     0.27211   0.64122   0.32576   0.00000  Uiso   1.00
C99    C     0.30788   0.57443   0.29375   0.00000  Uiso   1.00
C100   C     0.33603   0.59336   0.22636   0.00000  Uiso   1.00
C101   C     0.39131   0.59072   0.11754   0.00000  Uiso   1.00
C102   C     0.26170   0.71115   0.44646   0.00000  Uiso   1.00
C103   C     0.28873   0.70315   0.51592   0.00000  Uiso   1.00
C104   C     0.30812   0.78095   0.55014   0.00000  Uiso   1.00
C105   C     0.34723   0.88688   0.62871   0.00000  Uiso   1.00
C106   C     0.22364   0.78720   0.33643   0.00000  Uiso   1.00
C107   C     0.16121   0.73926   0.34824   0.00000  Uiso   1.00
C108   C     0.10227   0.77114   0.32844   0.00000  Uiso   1.00
C109   C     0.05092   0.71724   0.34396   0.00000  Uiso   1.00
C110   C     0.26472   0.72399   0.29167   0.00000  Uiso   1.00
C111   C     0.29283   0.74302   0.22431   0.00000  Uiso   1.00
C112   C     0.32862   0.67627   0.19221   0.00000  Uiso   1.00
C113   C     0.25431   0.79391   0.41237   0.00000  Uiso   1.00
C114   C     0.27367   0.87174   0.44648   0.00000  Uiso   1.00
C115   C     0.30072   0.86386   0.51599   0.00000  Uiso   1.00
H116   H     0.24300   0.57038   0.42573   0.00000  Uiso   1.00
H117   H     0.12307   0.53850   0.42426   0.00000  Uiso   1.00
H118   H     0.31360   0.51039   0.32015   0.00000  Uiso   1.00
H119   H     0.29444   0.63909   0.54229   0.00000  Uiso   1.00
H120   H     0.98684   0.53963   0.40757   0.00000  Uiso   1.00
H121   H     0.38860   0.48038   0.18807   0.00000  Uiso   1.00
H122   H     0.34821   0.75176   0.65648   0.00000  Uiso   1.00
H123   H     0.21788   0.85163   0.30989   0.00000  Uiso   1.00
H124   H     0.09657   0.83519   0.30206   0.00000  Uiso   1.00
H125   H     0.28710   0.80708   0.19795   0.00000  Uiso   1.00
H126   H     0.26794   0.93578   0.42009   0.00000  Uiso   1.00
H127   H     0.96533   0.78044   0.30839   0.00000  Uiso   1.00
H128   H     0.36710   0.72118   0.08888   0.00000  Uiso   1.00
H129   H     0.32670   0.99257   0.55730   0.00000  Uiso   1.00
O130   O     0.89674   0.64413   0.35490   0.00000  Uiso   1.00
O131   O     0.42384   0.56639   0.06693   0.00000  Uiso   1.00
O132   O     0.37084   0.92244   0.68147   0.00000  Uiso   1.00
N133   N     0.99843   0.59857   0.38532   0.00000  Uiso   1.00
N134   N     0.37404   0.54317   0.18008   0.00000  Uiso   1.00
N135   N     0.33629   0.79689   0.61800   0.00000  Uiso   1.00
N136   N     0.98685   0.72815   0.33195   0.00000  Uiso   1.00
N137   N     0.36247   0.67274   0.12672   0.00000  Uiso   1.00
N138   N     0.32472   0.92646   0.56464   0.00000  Uiso   1.00
C139   C     0.26276   0.36518   0.39919   0.00000  Uiso   1.00
C140   C     0.33140   0.34350   0.38234   0.00000  Uiso   1.00
C141   C     0.38267   0.39745   0.39788   0.00000  Uiso   1.00
C142   C     0.44167   0.36568   0.37811   0.00000  Uiso   1.00
C143   C     0.54713   0.34462   0.35709   0.00000  Uiso   1.00
C144   C     0.22789   0.35878   0.32576   0.00000  Uiso   1.00
C145   C     0.19212   0.42557   0.29375   0.00000  Uiso   1.00
C146   C     0.16397   0.40664   0.22636   0.00000  Uiso   1.00
C147   C     0.10869   0.40928   0.11754   0.00000  Uiso   1.00
C148   C     0.23830   0.28885   0.44646   0.00000  Uiso   1.00
C149   C     0.21127   0.29685   0.51592   0.00000  Uiso   1.00
C150   C     0.19188   0.21905   0.55014   0.00000  Uiso   1.00
C151   C     0.15277   0.11312   0.62871   0.00000  Uiso   1.00
C152   C     0.27636   0.21280   0.33643   0.00000  Uiso   1.00
C153   C     0.33879   0.26074   0.34824   0.00000  Uiso   1.00
C154   C     0.39773   0.22886   0.32844   0.00000  Uiso   1.00
C155   C     0.44908   0.28276   0.34396   0.00000  Uiso   1.00
C156   C     0.23528   0.27601   0.29167   0.00000  Uiso   1.00
C157   C     0.20717   0.25698   0.22431   0.00000  Uiso   1.00
C158   C     0.17138   0.32373   0.19221   0.00000  Uiso   1.00
C159   C     0.24569   0.20609   0.41237   0.00000  Uiso   1.00
C160   C     0.22633   0.12826   0.44648   0.00000  Uiso   1.00
C161   C     0.19928   0.13614   0.51599   0.00000  Uiso   1.00
H162   H     0.25700   0.42962   0.42573   0.00000  Uiso   1.00
H163   H     0.37693   0.46150   0.42426   0.00000  Uiso   1.00
H164   H     0.18640   0.48961   0.32015   0.00000  Uiso   1.00
H165   H     0.20556   0.36091   0.54229   0.00000  Uiso   1.00
H166   H     0.51316   0.46037   0.40757   0.00000  Uiso   1.00
H167   H     0.11140   0.51962   0.18807   0.00000  Uiso   1.00
H168   H     0.15179   0.24824   0.65648   0.00000  Uiso   1.00
H169   H     0.28212   0.14837   0.30989   0.00000  Uiso   1.00
H170   H     0.40343   0.16481   0.30206   0.00000  Uiso   1.00
H171   H     0.21290   0.19292   0.19795   0.00000  Uiso   1.00
H172   H     0.23206   0.06422   0.42009   0.00000  Uiso   1.00
H173   H     0.53467   0.21956   0.30839   0.00000  Uiso   1.00
H174   H     0.13290   0.27882   0.08888   0.00000  Uiso   1.00
H175   H     0.17330   0.00743   0.55730   0.00000  Uiso   1.00
O176   O     0.60326   0.35587   0.35490   0.00000  Uiso   1.00
O177   O     0.07616   0.43361   0.06693   0.00000  Uiso   1.00
O178   O     0.12916   0.07756   0.68147   0.00000  Uiso   1.00
N179   N     0.50157   0.40143   0.38532   0.00000  Uiso   1.00
N180   N     0.12596   0.45683   0.18008   0.00000  Uiso   1.00
N181   N     0.16371   0.20311   0.61800   0.00000  Uiso   1.00
N182   N     0.51315   0.27185   0.33195   0.00000  Uiso   1.00
N183   N     0.13753   0.32726   0.12672   0.00000  Uiso   1.00
N184   N     0.17528   0.07354   0.56464   0.00000  Uiso   1.00
C185   C     0.23724   0.36518   0.89919   0.00000  Uiso   1.00
C186   C     0.16860   0.34350   0.88234   0.00000  Uiso   1.00
C187   C     0.11733   0.39745   0.89788   0.00000  Uiso   1.00
C188   C     0.05833   0.36568   0.87811   0.00000  Uiso   1.00
C189   C     0.95287   0.34462   0.85709   0.00000  Uiso   1.00
C190   C     0.27211   0.35878   0.82576   0.00000  Uiso   1.00
C191   C     0.30788   0.42557   0.79375   0.00000  Uiso   1.00
C192   C     0.33603   0.40664   0.72636   0.00000  Uiso   1.00
C193   C     0.39131   0.40928   0.61754   0.00000  Uiso   1.00
C194   C     0.26170   0.28885   0.94646   0.00000  Uiso   1.00
C195   C     0.28873   0.29685   0.01592   0.00000  Uiso   1.00
C196   C     0.30812   0.21905   0.05014   0.00000  Uiso   1.00
C197   C     0.34723   0.11312   0.12871   0.00000  Uiso   1.00
C198   C     0.22364   0.21280   0.83643   0.00000  Uiso   1.00
C199   C     0.16121   0.26074   0.84824   0.00000  Uiso   1.00
C200   C     0.10227   0.22886   0.82844   0.00000  Uiso   1.00
C201   C     0.05092   0.28276   0.84396   0.00000  Uiso   1.00
C202   C     0.26472   0.27601   0.79167   0.00000  Uiso   1.00
C203   C     0.29283   0.25698   0.72431   0.00000  Uiso   1.00
C204   C     0.32862   0.32373   0.69221   0.00000  Uiso   1.00
C205   C     0.25431   0.20609   0.91237   0.00000  Uiso   1.00
C206   C     0.27367   0.12826   0.94648   0.00000  Uiso   1.00
C207   C     0.30072   0.13614   0.01599   0.00000  Uiso   1.00
H208   H     0.24300   0.42962   0.92573   0.00000  Uiso   1.00
H209   H     0.12307   0.46150   0.92426   0.00000  Uiso   1.00
H210   H     0.31360   0.48961   0.82015   0.00000  Uiso   1.00
H211   H     0.29444   0.36091   0.04229   0.00000  Uiso   1.00
H212   H     0.98684   0.46037   0.90757   0.00000  Uiso   1.00
H213   H     0.38860   0.51962   0.68807   0.00000  Uiso   1.00
H214   H     0.34821   0.24824   0.15648   0.00000  Uiso   1.00
H215   H     0.21788   0.14837   0.80989   0.00000  Uiso   1.00
H216   H     0.09657   0.16481   0.80206   0.00000  Uiso   1.00
H217   H     0.28710   0.19292   0.69795   0.00000  Uiso   1.00
H218   H     0.26794   0.06422   0.92009   0.00000  Uiso   1.00
H219   H     0.96533   0.21956   0.80839   0.00000  Uiso   1.00
H220   H     0.36710   0.27882   0.58888   0.00000  Uiso   1.00
H221   H     0.32670   0.00743   0.05730   0.00000  Uiso   1.00
O222   O     0.89674   0.35587   0.85490   0.00000  Uiso   1.00
O223   O     0.42384   0.43361   0.56693   0.00000  Uiso   1.00
O224   O     0.37084   0.07756   0.18147   0.00000  Uiso   1.00
N225   N     0.99843   0.40143   0.88532   0.00000  Uiso   1.00
N226   N     0.37404   0.45683   0.68008   0.00000  Uiso   1.00
N227   N     0.33629   0.20311   0.11800   0.00000  Uiso   1.00
N228   N     0.98685   0.27185   0.83195   0.00000  Uiso   1.00
N229   N     0.36247   0.32726   0.62672   0.00000  Uiso   1.00
N230   N     0.32472   0.07354   0.06464   0.00000  Uiso   1.00
C231   C     0.26276   0.63482   0.89919   0.00000  Uiso   1.00
C232   C     0.33140   0.65650   0.88234   0.00000  Uiso   1.00
C233   C     0.38267   0.60255   0.89788   0.00000  Uiso   1.00
C234   C     0.44167   0.63432   0.87811   0.00000  Uiso   1.00
C235   C     0.54713   0.65538   0.85709   0.00000  Uiso   1.00
C236   C     0.22789   0.64122   0.82576   0.00000  Uiso   1.00
C237   C     0.19212   0.57443   0.79375   0.00000  Uiso   1.00
C238   C     0.16397   0.59336   0.72636   0.00000  Uiso   1.00
C239   C     0.10869   0.59072   0.61754   0.00000  Uiso   1.00
C240   C     0.23830   0.71115   0.94646   0.00000  Uiso   1.00
C241   C     0.21127   0.70315   0.01592   0.00000  Uiso   1.00
C242   C     0.19188   0.78095   0.05014   0.00000  Uiso   1.00
C243   C     0.15277   0.88688   0.12871   0.00000  Uiso   1.00
C244   C     0.27636   0.78720   0.83643   0.00000  Uiso   1.00
C245   C     0.33879   0.73926   0.84824   0.00000  Uiso   1.00
C246   C     0.39773   0.77114   0.82844   0.00000  Uiso   1.00
C247   C     0.44908   0.71724   0.84396   0.00000  Uiso   1.00
C248   C     0.23528   0.72399   0.79167   0.00000  Uiso   1.00
C249   C     0.20717   0.74302   0.72431   0.00000  Uiso   1.00
C250   C     0.17138   0.67627   0.69221   0.00000  Uiso   1.00
C251   C     0.24569   0.79391   0.91237   0.00000  Uiso   1.00
C252   C     0.22633   0.87174   0.94648   0.00000  Uiso   1.00
C253   C     0.19928   0.86386   0.01599   0.00000  Uiso   1.00
H254   H     0.25700   0.57038   0.92573   0.00000  Uiso   1.00
H255   H     0.37693   0.53850   0.92426   0.00000  Uiso   1.00
H256   H     0.18640   0.51039   0.82015   0.00000  Uiso   1.00
H257   H     0.20556   0.63909   0.04229   0.00000  Uiso   1.00
H258   H     0.51316   0.53963   0.90757   0.00000  Uiso   1.00
H259   H     0.11140   0.48038   0.68807   0.00000  Uiso   1.00
H260   H     0.15179   0.75176   0.15648   0.00000  Uiso   1.00
H261   H     0.28212   0.85163   0.80989   0.00000  Uiso   1.00
H262   H     0.40343   0.83519   0.80206   0.00000  Uiso   1.00
H263   H     0.21290   0.80708   0.69795   0.00000  Uiso   1.00
H264   H     0.23206   0.93578   0.92009   0.00000  Uiso   1.00
H265   H     0.53467   0.78044   0.80839   0.00000  Uiso   1.00
H266   H     0.13290   0.72118   0.58888   0.00000  Uiso   1.00
H267   H     0.17330   0.99257   0.05730   0.00000  Uiso   1.00
O268   O     0.60326   0.64413   0.85490   0.00000  Uiso   1.00
O269   O     0.07616   0.56639   0.56693   0.00000  Uiso   1.00
O270   O     0.12916   0.92244   0.18147   0.00000  Uiso   1.00
N271   N     0.50157   0.59857   0.88532   0.00000  Uiso   1.00
N272   N     0.12596   0.54317   0.68008   0.00000  Uiso   1.00
N273   N     0.16371   0.79689   0.11800   0.00000  Uiso   1.00
N274   N     0.51315   0.72815   0.83195   0.00000  Uiso   1.00
N275   N     0.13753   0.67274   0.62672   0.00000  Uiso   1.00
N276   N     0.17528   0.92646   0.06464   0.00000  Uiso   1.00
C277   C     0.76276   0.36518   0.60081   0.00000  Uiso   1.00
C278   C     0.83140   0.34350   0.61766   0.00000  Uiso   1.00
C279   C     0.88267   0.39745   0.60212   0.00000  Uiso   1.00
C280   C     0.94167   0.36568   0.62189   0.00000  Uiso   1.00
C281   C     0.04713   0.34462   0.64291   0.00000  Uiso   1.00
C282   C     0.72789   0.35878   0.67424   0.00000  Uiso   1.00
C283   C     0.69212   0.42557   0.70625   0.00000  Uiso   1.00
C284   C     0.66397   0.40664   0.77364   0.00000  Uiso   1.00
C285   C     0.60869   0.40928   0.88246   0.00000  Uiso   1.00
C286   C     0.73830   0.28885   0.55354   0.00000  Uiso   1.00
C287   C     0.71127   0.29685   0.48408   0.00000  Uiso   1.00
C288   C     0.69188   0.21905   0.44986   0.00000  Uiso   1.00
C289   C     0.65277   0.11312   0.37129   0.00000  Uiso   1.00
C290   C     0.77636   0.21280   0.66357   0.00000  Uiso   1.00
C291   C     0.83879   0.26074   0.65176   0.00000  Uiso   1.00
C292   C     0.89773   0.22886   0.67156   0.00000  Uiso   1.00
C293   C     0.94908   0.28276   0.65604   0.00000  Uiso   1.00
C294   C     0.73528   0.27601   0.70833   0.00000  Uiso   1.00
C295   C     0.70717   0.25698   0.77569   0.00000  Uiso   1.00
C296   C     0.67138   0.32373   0.80779   0.00000  Uiso   1.00
C297   C     0.74569   0.20609   0.58763   0.00000  Uiso   1.00
C298   C     0.72633   0.12826   0.55352   0.00000  Uiso   1.00
C299   C     0.69928   0.13614   0.48401   0.00000  Uiso   1.00
H300   H     0.75700   0.42962   0.57427   0.00000  Uiso   1.00
H301   H     0.87693   0.46150   0.57574   0.00000  Uiso   1.00
H302   H     0.68640   0.48961   0.67985   0.00000  Uiso   1.00
H303   H     0.70556   0.36091   0.45771   0.00000  Uiso   1.00
H304   H     0.01316   0.46037   0.59243   0.00000  Uiso   1.00
H305   H     0.61140   0.51962   0.81193   0.00000  Uiso   1.00
H306   H     0.65179   0.24824   0.34352   0.00000  Uiso   1.00
H307   H     0.78212   0.14837   0.69011   0.00000  Uiso   1.00
H308   H     0.90343   0.16481   0.69794   0.00000  Uiso   1.00
H309   H     0.71290   0.19292   0.80205   0.00000  Uiso   1.00
H310   H     0.73206   0.06422   0.57991   0.00000  Uiso   1.00
H311   H     0.03467   0.21956   0.69161   0.00000  Uiso   1.00
H312   H     0.63290   0.27882   0.91112   0.00000  Uiso   1.00
H313   H     0.67330   0.00743   0.44270   0.00000  Uiso   1.00
O314   O     0.10326   0.35587   0.64510   0.00000  Uiso   1.00
O315   O     0.57616   0.43361   0.93307   0.00000  Uiso   1.00
O316   O     0.62916   0.07756   0.31853   0.00000  Uiso   1.00
N317   N     0.00157   0.40143   0.61468   0.00000  Uiso   1.00
N318   N     0.62596   0.45683   0.81992   0.00000  Uiso   1.00
N319   N     0.66371   0.20311   0.38200   0.00000  Uiso   1.00
N320   N     0.01315   0.27185   0.66805   0.00000  Uiso   1.00
N321   N     0.63753   0.32726   0.87328   0.00000  Uiso   1.00
N322   N     0.67528   0.07354   0.43536   0.00000  Uiso   1.00
C323   C     0.73724   0.63482   0.60081   0.00000  Uiso   1.00
C324   C     0.66860   0.65650   0.61766   0.00000  Uiso   1.00
C325   C     0.61733   0.60255   0.60212   0.00000  Uiso   1.00
C326   C     0.55833   0.63432   0.62189   0.00000  Uiso   1.00
C327   C     0.45287   0.65538   0.64291   0.00000  Uiso   1.00
C328   C     0.77211   0.64122   0.67424   0.00000  Uiso   1.00
C329   C     0.80788   0.57443   0.70625   0.00000  Uiso   1.00
C330   C     0.83603   0.59336   0.77364   0.00000  Uiso   1.00
C331   C     0.89131   0.59072   0.88246   0.00000  Uiso   1.00
C332   C     0.76170   0.71115   0.55354   0.00000  Uiso   1.00
C333   C     0.78873   0.70315   0.48408   0.00000  Uiso   1.00
C334   C     0.80812   0.78095   0.44986   0.00000  Uiso   1.00
C335   C     0.84723   0.88688   0.37129   0.00000  Uiso   1.00
C336   C     0.72364   0.78720   0.66357   0.00000  Uiso   1.00
C337   C     0.66121   0.73926   0.65176   0.00000  Uiso   1.00
C338   C     0.60227   0.77114   0.67156   0.00000  Uiso   1.00
C339   C     0.55092   0.71724   0.65604   0.00000  Uiso   1.00
C340   C     0.76472   0.72399   0.70833   0.00000  Uiso   1.00
C341   C     0.79283   0.74302   0.77569   0.00000  Uiso   1.00
C342   C     0.82862   0.67627   0.80779   0.00000  Uiso   1.00
C343   C     0.75431   0.79391   0.58763   0.00000  Uiso   1.00
C344   C     0.77367   0.87174   0.55352   0.00000  Uiso   1.00
C345   C     0.80072   0.86386   0.48401   0.00000  Uiso   1.00
H346   H     0.74300   0.57038   0.57427   0.00000  Uiso   1.00
H347   H     0.62307   0.53850   0.57574   0.00000  Uiso   1.00
H348   H     0.81360   0.51039   0.67985   0.00000  Uiso   1.00
H349   H     0.79444   0.63909   0.45771   0.00000  Uiso   1.00
H350   H     0.48684   0.53963   0.59243   0.00000  Uiso   1.00
H351   H     0.88860   0.48038   0.81193   0.00000  Uiso   1.00
H352   H     0.84821   0.75176   0.34352   0.00000  Uiso   1.00
H353   H     0.71788   0.85163   0.69011   0.00000  Uiso   1.00
H354   H     0.59657   0.83519   0.69794   0.00000  Uiso   1.00
H355   H     0.78710   0.80708   0.80205   0.00000  Uiso   1.00
H356   H     0.76794   0.93578   0.57991   0.00000  Uiso   1.00
H357   H     0.46533   0.78044   0.69161   0.00000  Uiso   1.00
H358   H     0.86710   0.72118   0.91112   0.00000  Uiso   1.00
H359   H     0.82670   0.99257   0.44270   0.00000  Uiso   1.00
O360   O     0.39674   0.64413   0.64510   0.00000  Uiso   1.00
O361   O     0.92384   0.56639   0.93307   0.00000  Uiso   1.00
O362   O     0.87084   0.92244   0.31853   0.00000  Uiso   1.00
N363   N     0.49843   0.59857   0.61468   0.00000  Uiso   1.00
N364   N     0.87404   0.54317   0.81992   0.00000  Uiso   1.00
N365   N     0.83629   0.79689   0.38200   0.00000  Uiso   1.00
N366   N     0.48685   0.72815   0.66805   0.00000  Uiso   1.00
N367   N     0.86247   0.67274   0.87328   0.00000  Uiso   1.00
N368   N     0.82472   0.92646   0.43536   0.00000  Uiso   1.00
