data_job_02949
_audit_creation_date              2018-12-19
_audit_creation_method            'Materials Studio'
_symmetry_space_group_name_H-M    'P1'
_symmetry_Int_Tables_number       1
_symmetry_cell_setting            triclinic
loop_
_symmetry_equiv_pos_as_xyz
  x,y,z
_cell_length_a                    20.6540
_cell_length_b                    11.7831
_cell_length_c                    23.2319
_cell_angle_alpha                 90.0000
_cell_angle_beta                  90.0000
_cell_angle_gamma                 90.0000
loop_
_atom_site_label
_atom_site_type_symbol
_atom_site_fract_x
_atom_site_fract_y
_atom_site_fract_z
_atom_site_U_iso_or_equiv
_atom_site_adp_type
_atom_site_occupancy
C1     C     0.09415   0.53175   0.63679   0.00000  Uiso   1.00
C2     C     0.15001   0.52614   0.67961   0.00000  Uiso   1.00
C3     C     0.14584   0.48871   0.73613   0.00000  Uiso   1.00
C4     C     0.20246   0.49014   0.76834   0.00000  Uiso   1.00
C5     C     0.28027   0.47578   0.83842   0.00000  Uiso   1.00
C6     C     0.09113   0.65456   0.61626   0.00000  Uiso   1.00
C7     C     0.03744   0.72509   0.61950   0.00000  Uiso   1.00
C8     C     0.04448   0.83462   0.59836   0.00000  Uiso   1.00
C9     C     0.03086   0.01960   0.57004   0.00000  Uiso   1.00
C10    C     0.11530   0.46191   0.58483   0.00000  Uiso   1.00
C11    C     0.08192   0.37048   0.56163   0.00000  Uiso   1.00
C12    C     0.10931   0.31783   0.51403   0.00000  Uiso   1.00
C13    C     0.13322   0.20369   0.43692   0.00000  Uiso   1.00
C14    C     0.20212   0.60083   0.59349   0.00000  Uiso   1.00
C15    C     0.20866   0.56367   0.65609   0.00000  Uiso   1.00
C16    C     0.26530   0.56515   0.68822   0.00000  Uiso   1.00
C17    C     0.26121   0.52773   0.74478   0.00000  Uiso   1.00
C18    C     0.14977   0.69208   0.59274   0.00000  Uiso   1.00
C19    C     0.15689   0.80153   0.57159   0.00000  Uiso   1.00
C20    C     0.10323   0.87221   0.57480   0.00000  Uiso   1.00
C21    C     0.17394   0.49943   0.56131   0.00000  Uiso   1.00
C22    C     0.20138   0.44691   0.51373   0.00000  Uiso   1.00
C23    C     0.16806   0.35542   0.49047   0.00000  Uiso   1.00
H24    H     0.04849   0.50254   0.65510   0.00000  Uiso   1.00
H25    H     0.10044   0.45969   0.75432   0.00000  Uiso   1.00
H26    H     0.99206   0.69603   0.63770   0.00000  Uiso   1.00
H27    H     0.03654   0.34147   0.57985   0.00000  Uiso   1.00
H28    H     0.18390   0.42877   0.85395   0.00000  Uiso   1.00
H29    H     0.95536   0.92708   0.60803   0.00000  Uiso   1.00
H30    H     0.04916   0.17943   0.48604   0.00000  Uiso   1.00
H31    H     0.24778   0.63005   0.57518   0.00000  Uiso   1.00
H32    H     0.31067   0.59419   0.67001   0.00000  Uiso   1.00
H33    H     0.20228   0.83053   0.55339   0.00000  Uiso   1.00
H34    H     0.24677   0.47598   0.49554   0.00000  Uiso   1.00
H35    H     0.35453   0.53794   0.78553   0.00000  Uiso   1.00
H36    H     0.12598   0.03626   0.53960   0.00000  Uiso   1.00
H37    H     0.21979   0.28860   0.41762   0.00000  Uiso   1.00
O38    O     0.30699   0.45750   0.88357   0.00000  Uiso   1.00
O39    O     0.00714   0.11126   0.56093   0.00000  Uiso   1.00
O40    O     0.13021   0.13036   0.40088   0.00000  Uiso   1.00
N41    N     0.21543   0.45936   0.82483   0.00000  Uiso   1.00
N42    N     0.00176   0.92526   0.59492   0.00000  Uiso   1.00
N43    N     0.08945   0.22629   0.48086   0.00000  Uiso   1.00
N44    N     0.30725   0.51811   0.78801   0.00000  Uiso   1.00
N45    N     0.09357   0.98401   0.55810   0.00000  Uiso   1.00
N46    N     0.18126   0.28503   0.44404   0.00000  Uiso   1.00
C47    C     0.40585   0.46825   0.13679   0.00000  Uiso   1.00
C48    C     0.34999   0.47386   0.17961   0.00000  Uiso   1.00
C49    C     0.35416   0.51129   0.23613   0.00000  Uiso   1.00
C50    C     0.29754   0.50986   0.26834   0.00000  Uiso   1.00
C51    C     0.21973   0.52422   0.33842   0.00000  Uiso   1.00
C52    C     0.40887   0.34544   0.11626   0.00000  Uiso   1.00
C53    C     0.46256   0.27491   0.11950   0.00000  Uiso   1.00
C54    C     0.45552   0.16538   0.09836   0.00000  Uiso   1.00
C55    C     0.46914   0.98040   0.07004   0.00000  Uiso   1.00
C56    C     0.38470   0.53809   0.08483   0.00000  Uiso   1.00
C57    C     0.41808   0.62952   0.06163   0.00000  Uiso   1.00
C58    C     0.39069   0.68217   0.01403   0.00000  Uiso   1.00
C59    C     0.36678   0.79631   0.93692   0.00000  Uiso   1.00
C60    C     0.29788   0.39917   0.09349   0.00000  Uiso   1.00
C61    C     0.29134   0.43633   0.15609   0.00000  Uiso   1.00
C62    C     0.23470   0.43485   0.18822   0.00000  Uiso   1.00
C63    C     0.23879   0.47227   0.24478   0.00000  Uiso   1.00
C64    C     0.35023   0.30792   0.09274   0.00000  Uiso   1.00
C65    C     0.34311   0.19847   0.07159   0.00000  Uiso   1.00
C66    C     0.39677   0.12779   0.07480   0.00000  Uiso   1.00
C67    C     0.32606   0.50057   0.06131   0.00000  Uiso   1.00
C68    C     0.29862   0.55309   0.01373   0.00000  Uiso   1.00
C69    C     0.33194   0.64458   0.99047   0.00000  Uiso   1.00
H70    H     0.45151   0.49746   0.15510   0.00000  Uiso   1.00
H71    H     0.39956   0.54031   0.25432   0.00000  Uiso   1.00
H72    H     0.50794   0.30397   0.13770   0.00000  Uiso   1.00
H73    H     0.46346   0.65853   0.07985   0.00000  Uiso   1.00
H74    H     0.31610   0.57123   0.35395   0.00000  Uiso   1.00
H75    H     0.54464   0.07292   0.10803   0.00000  Uiso   1.00
H76    H     0.45084   0.82057   0.98604   0.00000  Uiso   1.00
H77    H     0.25222   0.36995   0.07518   0.00000  Uiso   1.00
H78    H     0.18933   0.40581   0.17001   0.00000  Uiso   1.00
H79    H     0.29772   0.16947   0.05339   0.00000  Uiso   1.00
H80    H     0.25323   0.52402   0.99554   0.00000  Uiso   1.00
H81    H     0.14547   0.46206   0.28553   0.00000  Uiso   1.00
H82    H     0.37402   0.96374   0.03960   0.00000  Uiso   1.00
H83    H     0.28021   0.71140   0.91762   0.00000  Uiso   1.00
O84    O     0.19301   0.54250   0.38357   0.00000  Uiso   1.00
O85    O     0.49286   0.88874   0.06093   0.00000  Uiso   1.00
O86    O     0.36979   0.86964   0.90088   0.00000  Uiso   1.00
N87    N     0.28457   0.54064   0.32483   0.00000  Uiso   1.00
N88    N     0.49824   0.07474   0.09492   0.00000  Uiso   1.00
N89    N     0.41055   0.77371   0.98086   0.00000  Uiso   1.00
N90    N     0.19275   0.48189   0.28801   0.00000  Uiso   1.00
N91    N     0.40643   0.01599   0.05810   0.00000  Uiso   1.00
N92    N     0.31874   0.71497   0.94404   0.00000  Uiso   1.00
C93    C     0.90585   0.03175   0.86321   0.00000  Uiso   1.00
C94    C     0.84999   0.02614   0.82039   0.00000  Uiso   1.00
C95    C     0.85416   0.98871   0.76387   0.00000  Uiso   1.00
C96    C     0.79754   0.99014   0.73166   0.00000  Uiso   1.00
C97    C     0.71973   0.97578   0.66158   0.00000  Uiso   1.00
C98    C     0.90887   0.15456   0.88374   0.00000  Uiso   1.00
C99    C     0.96256   0.22509   0.88050   0.00000  Uiso   1.00
C100   C     0.95552   0.33462   0.90164   0.00000  Uiso   1.00
C101   C     0.96914   0.51960   0.92996   0.00000  Uiso   1.00
C102   C     0.88470   0.96191   0.91517   0.00000  Uiso   1.00
C103   C     0.91808   0.87048   0.93837   0.00000  Uiso   1.00
C104   C     0.89069   0.81783   0.98597   0.00000  Uiso   1.00
C105   C     0.86678   0.70369   0.06308   0.00000  Uiso   1.00
C106   C     0.79788   0.10083   0.90651   0.00000  Uiso   1.00
C107   C     0.79134   0.06367   0.84391   0.00000  Uiso   1.00
C108   C     0.73470   0.06515   0.81178   0.00000  Uiso   1.00
C109   C     0.73879   0.02773   0.75522   0.00000  Uiso   1.00
C110   C     0.85023   0.19208   0.90726   0.00000  Uiso   1.00
C111   C     0.84311   0.30153   0.92841   0.00000  Uiso   1.00
C112   C     0.89677   0.37221   0.92520   0.00000  Uiso   1.00
C113   C     0.82606   0.99943   0.93869   0.00000  Uiso   1.00
C114   C     0.79862   0.94691   0.98627   0.00000  Uiso   1.00
C115   C     0.83194   0.85542   0.00953   0.00000  Uiso   1.00
H116   H     0.95151   0.00254   0.84490   0.00000  Uiso   1.00
H117   H     0.89956   0.95969   0.74568   0.00000  Uiso   1.00
H118   H     0.00794   0.19603   0.86230   0.00000  Uiso   1.00
H119   H     0.96346   0.84147   0.92015   0.00000  Uiso   1.00
H120   H     0.81610   0.92877   0.64605   0.00000  Uiso   1.00
H121   H     0.04464   0.42708   0.89197   0.00000  Uiso   1.00
H122   H     0.95084   0.67943   0.01396   0.00000  Uiso   1.00
H123   H     0.75222   0.13005   0.92482   0.00000  Uiso   1.00
H124   H     0.68933   0.09419   0.82999   0.00000  Uiso   1.00
H125   H     0.79772   0.33053   0.94661   0.00000  Uiso   1.00
H126   H     0.75323   0.97598   0.00446   0.00000  Uiso   1.00
H127   H     0.64547   0.03794   0.71447   0.00000  Uiso   1.00
H128   H     0.87402   0.53626   0.96040   0.00000  Uiso   1.00
H129   H     0.78021   0.78860   0.08238   0.00000  Uiso   1.00
O130   O     0.69301   0.95750   0.61643   0.00000  Uiso   1.00
O131   O     0.99286   0.61126   0.93907   0.00000  Uiso   1.00
O132   O     0.86979   0.63036   0.09912   0.00000  Uiso   1.00
N133   N     0.78457   0.95936   0.67517   0.00000  Uiso   1.00
N134   N     0.99824   0.42526   0.90508   0.00000  Uiso   1.00
N135   N     0.91055   0.72629   0.01914   0.00000  Uiso   1.00
N136   N     0.69275   0.01811   0.71199   0.00000  Uiso   1.00
N137   N     0.90643   0.48401   0.94190   0.00000  Uiso   1.00
N138   N     0.81874   0.78503   0.05596   0.00000  Uiso   1.00
C139   C     0.59415   0.96825   0.36321   0.00000  Uiso   1.00
C140   C     0.65001   0.97386   0.32039   0.00000  Uiso   1.00
C141   C     0.64584   0.01129   0.26387   0.00000  Uiso   1.00
C142   C     0.70246   0.00986   0.23166   0.00000  Uiso   1.00
C143   C     0.78027   0.02422   0.16158   0.00000  Uiso   1.00
C144   C     0.59113   0.84544   0.38374   0.00000  Uiso   1.00
C145   C     0.53744   0.77491   0.38050   0.00000  Uiso   1.00
C146   C     0.54448   0.66538   0.40164   0.00000  Uiso   1.00
C147   C     0.53086   0.48040   0.42996   0.00000  Uiso   1.00
C148   C     0.61530   0.03809   0.41517   0.00000  Uiso   1.00
C149   C     0.58192   0.12952   0.43837   0.00000  Uiso   1.00
C150   C     0.60931   0.18217   0.48597   0.00000  Uiso   1.00
C151   C     0.63322   0.29631   0.56308   0.00000  Uiso   1.00
C152   C     0.70212   0.89917   0.40651   0.00000  Uiso   1.00
C153   C     0.70866   0.93633   0.34391   0.00000  Uiso   1.00
C154   C     0.76530   0.93485   0.31178   0.00000  Uiso   1.00
C155   C     0.76121   0.97227   0.25522   0.00000  Uiso   1.00
C156   C     0.64977   0.80792   0.40726   0.00000  Uiso   1.00
C157   C     0.65689   0.69847   0.42841   0.00000  Uiso   1.00
C158   C     0.60323   0.62779   0.42520   0.00000  Uiso   1.00
C159   C     0.67394   0.00057   0.43869   0.00000  Uiso   1.00
C160   C     0.70138   0.05309   0.48627   0.00000  Uiso   1.00
C161   C     0.66806   0.14458   0.50953   0.00000  Uiso   1.00
H162   H     0.54849   0.99746   0.34490   0.00000  Uiso   1.00
H163   H     0.60044   0.04031   0.24568   0.00000  Uiso   1.00
H164   H     0.49206   0.80397   0.36230   0.00000  Uiso   1.00
H165   H     0.53654   0.15853   0.42015   0.00000  Uiso   1.00
H166   H     0.68390   0.07123   0.14605   0.00000  Uiso   1.00
H167   H     0.45536   0.57292   0.39197   0.00000  Uiso   1.00
H168   H     0.54916   0.32057   0.51396   0.00000  Uiso   1.00
H169   H     0.74778   0.86995   0.42482   0.00000  Uiso   1.00
H170   H     0.81067   0.90581   0.32999   0.00000  Uiso   1.00
H171   H     0.70228   0.66947   0.44661   0.00000  Uiso   1.00
H172   H     0.74677   0.02402   0.50446   0.00000  Uiso   1.00
H173   H     0.85453   0.96206   0.21447   0.00000  Uiso   1.00
H174   H     0.62598   0.46374   0.46040   0.00000  Uiso   1.00
H175   H     0.71979   0.21140   0.58238   0.00000  Uiso   1.00
O176   O     0.80699   0.04250   0.11643   0.00000  Uiso   1.00
O177   O     0.50714   0.38874   0.43907   0.00000  Uiso   1.00
O178   O     0.63021   0.36964   0.59912   0.00000  Uiso   1.00
N179   N     0.71543   0.04064   0.17517   0.00000  Uiso   1.00
N180   N     0.50176   0.57474   0.40508   0.00000  Uiso   1.00
N181   N     0.58945   0.27371   0.51914   0.00000  Uiso   1.00
N182   N     0.80725   0.98189   0.21199   0.00000  Uiso   1.00
N183   N     0.59357   0.51599   0.44190   0.00000  Uiso   1.00
N184   N     0.68126   0.21497   0.55596   0.00000  Uiso   1.00
C185   C     0.90585   0.46825   0.36321   0.00000  Uiso   1.00
C186   C     0.84999   0.47386   0.32039   0.00000  Uiso   1.00
C187   C     0.85416   0.51129   0.26387   0.00000  Uiso   1.00
C188   C     0.79754   0.50986   0.23166   0.00000  Uiso   1.00
C189   C     0.71973   0.52422   0.16158   0.00000  Uiso   1.00
C190   C     0.90887   0.34544   0.38374   0.00000  Uiso   1.00
C191   C     0.96256   0.27491   0.38050   0.00000  Uiso   1.00
C192   C     0.95552   0.16538   0.40164   0.00000  Uiso   1.00
C193   C     0.96914   0.98040   0.42996   0.00000  Uiso   1.00
C194   C     0.88470   0.53809   0.41517   0.00000  Uiso   1.00
C195   C     0.91808   0.62952   0.43837   0.00000  Uiso   1.00
C196   C     0.89069   0.68217   0.48597   0.00000  Uiso   1.00
C197   C     0.86678   0.79631   0.56308   0.00000  Uiso   1.00
C198   C     0.79788   0.39917   0.40651   0.00000  Uiso   1.00
C199   C     0.79134   0.43633   0.34391   0.00000  Uiso   1.00
C200   C     0.73470   0.43485   0.31178   0.00000  Uiso   1.00
C201   C     0.73879   0.47227   0.25522   0.00000  Uiso   1.00
C202   C     0.85023   0.30792   0.40726   0.00000  Uiso   1.00
C203   C     0.84311   0.19847   0.42841   0.00000  Uiso   1.00
C204   C     0.89677   0.12779   0.42520   0.00000  Uiso   1.00
C205   C     0.82606   0.50057   0.43869   0.00000  Uiso   1.00
C206   C     0.79862   0.55309   0.48627   0.00000  Uiso   1.00
C207   C     0.83194   0.64458   0.50953   0.00000  Uiso   1.00
H208   H     0.95151   0.49746   0.34490   0.00000  Uiso   1.00
H209   H     0.89956   0.54031   0.24568   0.00000  Uiso   1.00
H210   H     0.00794   0.30397   0.36230   0.00000  Uiso   1.00
H211   H     0.96346   0.65853   0.42015   0.00000  Uiso   1.00
H212   H     0.81610   0.57123   0.14605   0.00000  Uiso   1.00
H213   H     0.04464   0.07292   0.39197   0.00000  Uiso   1.00
H214   H     0.95084   0.82057   0.51396   0.00000  Uiso   1.00
H215   H     0.75222   0.36995   0.42482   0.00000  Uiso   1.00
H216   H     0.68933   0.40581   0.32999   0.00000  Uiso   1.00
H217   H     0.79772   0.16947   0.44661   0.00000  Uiso   1.00
H218   H     0.75323   0.52402   0.50446   0.00000  Uiso   1.00
H219   H     0.64547   0.46206   0.21447   0.00000  Uiso   1.00
H220   H     0.87402   0.96374   0.46040   0.00000  Uiso   1.00
H221   H     0.78021   0.71140   0.58238   0.00000  Uiso   1.00
O222   O     0.69301   0.54250   0.11643   0.00000  Uiso   1.00
O223   O     0.99286   0.88874   0.43907   0.00000  Uiso   1.00
O224   O     0.86979   0.86964   0.59912   0.00000  Uiso   1.00
N225   N     0.78457   0.54064   0.17517   0.00000  Uiso   1.00
N226   N     0.99824   0.07474   0.40508   0.00000  Uiso   1.00
N227   N     0.91055   0.77371   0.51914   0.00000  Uiso   1.00
N228   N     0.69275   0.48189   0.21199   0.00000  Uiso   1.00
N229   N     0.90643   0.01599   0.44190   0.00000  Uiso   1.00
N230   N     0.81874   0.71497   0.55596   0.00000  Uiso   1.00
C231   C     0.59415   0.53175   0.86321   0.00000  Uiso   1.00
C232   C     0.65001   0.52614   0.82039   0.00000  Uiso   1.00
C233   C     0.64584   0.48871   0.76387   0.00000  Uiso   1.00
C234   C     0.70246   0.49014   0.73166   0.00000  Uiso   1.00
C235   C     0.78027   0.47578   0.66158   0.00000  Uiso   1.00
C236   C     0.59113   0.65456   0.88374   0.00000  Uiso   1.00
C237   C     0.53744   0.72509   0.88050   0.00000  Uiso   1.00
C238   C     0.54448   0.83462   0.90164   0.00000  Uiso   1.00
C239   C     0.53086   0.01960   0.92996   0.00000  Uiso   1.00
C240   C     0.61530   0.46191   0.91517   0.00000  Uiso   1.00
C241   C     0.58192   0.37048   0.93837   0.00000  Uiso   1.00
C242   C     0.60931   0.31783   0.98597   0.00000  Uiso   1.00
C243   C     0.63322   0.20369   0.06308   0.00000  Uiso   1.00
C244   C     0.70212   0.60083   0.90651   0.00000  Uiso   1.00
C245   C     0.70866   0.56367   0.84391   0.00000  Uiso   1.00
C246   C     0.76530   0.56515   0.81178   0.00000  Uiso   1.00
C247   C     0.76121   0.52773   0.75522   0.00000  Uiso   1.00
C248   C     0.64977   0.69208   0.90726   0.00000  Uiso   1.00
C249   C     0.65689   0.80153   0.92841   0.00000  Uiso   1.00
C250   C     0.60323   0.87221   0.92520   0.00000  Uiso   1.00
C251   C     0.67394   0.49943   0.93869   0.00000  Uiso   1.00
C252   C     0.70138   0.44691   0.98627   0.00000  Uiso   1.00
C253   C     0.66806   0.35542   0.00953   0.00000  Uiso   1.00
H254   H     0.54849   0.50254   0.84490   0.00000  Uiso   1.00
H255   H     0.60044   0.45969   0.74568   0.00000  Uiso   1.00
H256   H     0.49206   0.69603   0.86230   0.00000  Uiso   1.00
H257   H     0.53654   0.34147   0.92015   0.00000  Uiso   1.00
H258   H     0.68390   0.42877   0.64605   0.00000  Uiso   1.00
H259   H     0.45536   0.92708   0.89197   0.00000  Uiso   1.00
H260   H     0.54916   0.17943   0.01396   0.00000  Uiso   1.00
H261   H     0.74778   0.63005   0.92482   0.00000  Uiso   1.00
H262   H     0.81067   0.59419   0.82999   0.00000  Uiso   1.00
H263   H     0.70228   0.83053   0.94661   0.00000  Uiso   1.00
H264   H     0.74677   0.47598   0.00446   0.00000  Uiso   1.00
H265   H     0.85453   0.53794   0.71447   0.00000  Uiso   1.00
H266   H     0.62598   0.03626   0.96040   0.00000  Uiso   1.00
H267   H     0.71979   0.28860   0.08238   0.00000  Uiso   1.00
O268   O     0.80699   0.45750   0.61643   0.00000  Uiso   1.00
O269   O     0.50714   0.11126   0.93907   0.00000  Uiso   1.00
O270   O     0.63021   0.13036   0.09912   0.00000  Uiso   1.00
N271   N     0.71543   0.45936   0.67517   0.00000  Uiso   1.00
N272   N     0.50176   0.92526   0.90508   0.00000  Uiso   1.00
N273   N     0.58945   0.22629   0.01914   0.00000  Uiso   1.00
N274   N     0.80725   0.51811   0.71199   0.00000  Uiso   1.00
N275   N     0.59357   0.98401   0.94190   0.00000  Uiso   1.00
N276   N     0.68126   0.28503   0.05596   0.00000  Uiso   1.00
C277   C     0.09415   0.96825   0.13679   0.00000  Uiso   1.00
C278   C     0.15001   0.97386   0.17961   0.00000  Uiso   1.00
C279   C     0.14584   0.01129   0.23613   0.00000  Uiso   1.00
C280   C     0.20246   0.00986   0.26834   0.00000  Uiso   1.00
C281   C     0.28027   0.02422   0.33842   0.00000  Uiso   1.00
C282   C     0.09113   0.84544   0.11626   0.00000  Uiso   1.00
C283   C     0.03744   0.77491   0.11950   0.00000  Uiso   1.00
C284   C     0.04448   0.66538   0.09836   0.00000  Uiso   1.00
C285   C     0.03086   0.48040   0.07004   0.00000  Uiso   1.00
C286   C     0.11530   0.03809   0.08483   0.00000  Uiso   1.00
C287   C     0.08192   0.12952   0.06163   0.00000  Uiso   1.00
C288   C     0.10931   0.18217   0.01403   0.00000  Uiso   1.00
C289   C     0.13322   0.29631   0.93692   0.00000  Uiso   1.00
C290   C     0.20212   0.89917   0.09349   0.00000  Uiso   1.00
C291   C     0.20866   0.93633   0.15609   0.00000  Uiso   1.00
C292   C     0.26530   0.93485   0.18822   0.00000  Uiso   1.00
C293   C     0.26121   0.97227   0.24478   0.00000  Uiso   1.00
C294   C     0.14977   0.80792   0.09274   0.00000  Uiso   1.00
C295   C     0.15689   0.69847   0.07159   0.00000  Uiso   1.00
C296   C     0.10323   0.62779   0.07480   0.00000  Uiso   1.00
C297   C     0.17394   0.00057   0.06131   0.00000  Uiso   1.00
C298   C     0.20138   0.05309   0.01373   0.00000  Uiso   1.00
C299   C     0.16806   0.14458   0.99047   0.00000  Uiso   1.00
H300   H     0.04849   0.99746   0.15510   0.00000  Uiso   1.00
H301   H     0.10044   0.04031   0.25432   0.00000  Uiso   1.00
H302   H     0.99206   0.80397   0.13770   0.00000  Uiso   1.00
H303   H     0.03654   0.15853   0.07985   0.00000  Uiso   1.00
H304   H     0.18390   0.07123   0.35395   0.00000  Uiso   1.00
H305   H     0.95536   0.57292   0.10803   0.00000  Uiso   1.00
H306   H     0.04916   0.32057   0.98604   0.00000  Uiso   1.00
H307   H     0.24778   0.86995   0.07518   0.00000  Uiso   1.00
H308   H     0.31067   0.90581   0.17001   0.00000  Uiso   1.00
H309   H     0.20228   0.66947   0.05339   0.00000  Uiso   1.00
H310   H     0.24677   0.02402   0.99554   0.00000  Uiso   1.00
H311   H     0.35453   0.96206   0.28553   0.00000  Uiso   1.00
H312   H     0.12598   0.46374   0.03960   0.00000  Uiso   1.00
H313   H     0.21979   0.21140   0.91762   0.00000  Uiso   1.00
O314   O     0.30699   0.04250   0.38357   0.00000  Uiso   1.00
O315   O     0.00714   0.38874   0.06093   0.00000  Uiso   1.00
O316   O     0.13021   0.36964   0.90088   0.00000  Uiso   1.00
N317   N     0.21543   0.04064   0.32483   0.00000  Uiso   1.00
N318   N     0.00176   0.57474   0.09492   0.00000  Uiso   1.00
N319   N     0.08945   0.27371   0.98086   0.00000  Uiso   1.00
N320   N     0.30725   0.98189   0.28801   0.00000  Uiso   1.00
N321   N     0.09357   0.51599   0.05810   0.00000  Uiso   1.00
N322   N     0.18126   0.21497   0.94404   0.00000  Uiso   1.00
C323   C     0.40585   0.03175   0.63679   0.00000  Uiso   1.00
C324   C     0.34999   0.02614   0.67961   0.00000  Uiso   1.00
C325   C     0.35416   0.98871   0.73613   0.00000  Uiso   1.00
C326   C     0.29754   0.99014   0.76834   0.00000  Uiso   1.00
C327   C     0.21973   0.97578   0.83842   0.00000  Uiso   1.00
C328   C     0.40887   0.15456   0.61626   0.00000  Uiso   1.00
C329   C     0.46256   0.22509   0.61950   0.00000  Uiso   1.00
C330   C     0.45552   0.33462   0.59836   0.00000  Uiso   1.00
C331   C     0.46914   0.51960   0.57004   0.00000  Uiso   1.00
C332   C     0.38470   0.96191   0.58483   0.00000  Uiso   1.00
C333   C     0.41808   0.87048   0.56163   0.00000  Uiso   1.00
C334   C     0.39069   0.81783   0.51403   0.00000  Uiso   1.00
C335   C     0.36678   0.70369   0.43692   0.00000  Uiso   1.00
C336   C     0.29788   0.10083   0.59349   0.00000  Uiso   1.00
C337   C     0.29134   0.06367   0.65609   0.00000  Uiso   1.00
C338   C     0.23470   0.06515   0.68822   0.00000  Uiso   1.00
C339   C     0.23879   0.02773   0.74478   0.00000  Uiso   1.00
C340   C     0.35023   0.19208   0.59274   0.00000  Uiso   1.00
C341   C     0.34311   0.30153   0.57159   0.00000  Uiso   1.00
C342   C     0.39677   0.37221   0.57480   0.00000  Uiso   1.00
C343   C     0.32606   0.99943   0.56131   0.00000  Uiso   1.00
C344   C     0.29862   0.94691   0.51373   0.00000  Uiso   1.00
C345   C     0.33194   0.85542   0.49047   0.00000  Uiso   1.00
H346   H     0.45151   0.00254   0.65510   0.00000  Uiso   1.00
H347   H     0.39956   0.95969   0.75432   0.00000  Uiso   1.00
H348   H     0.50794   0.19603   0.63770   0.00000  Uiso   1.00
H349   H     0.46346   0.84147   0.57985   0.00000  Uiso   1.00
H350   H     0.31610   0.92877   0.85395   0.00000  Uiso   1.00
H351   H     0.54464   0.42708   0.60803   0.00000  Uiso   1.00
H352   H     0.45084   0.67943   0.48604   0.00000  Uiso   1.00
H353   H     0.25222   0.13005   0.57518   0.00000  Uiso   1.00
H354   H     0.18933   0.09419   0.67001   0.00000  Uiso   1.00
H355   H     0.29772   0.33053   0.55339   0.00000  Uiso   1.00
H356   H     0.25323   0.97598   0.49554   0.00000  Uiso   1.00
H357   H     0.14547   0.03794   0.78553   0.00000  Uiso   1.00
H358   H     0.37402   0.53626   0.53960   0.00000  Uiso   1.00
H359   H     0.28021   0.78860   0.41762   0.00000  Uiso   1.00
O360   O     0.19301   0.95750   0.88357   0.00000  Uiso   1.00
O361   O     0.49286   0.61126   0.56093   0.00000  Uiso   1.00
O362   O     0.36979   0.63036   0.40088   0.00000  Uiso   1.00
N363   N     0.28457   0.95936   0.82483   0.00000  Uiso   1.00
N364   N     0.49824   0.42526   0.59492   0.00000  Uiso   1.00
N365   N     0.41055   0.72629   0.48086   0.00000  Uiso   1.00
N366   N     0.19275   0.01811   0.78801   0.00000  Uiso   1.00
N367   N     0.40643   0.48401   0.55810   0.00000  Uiso   1.00
N368   N     0.31874   0.78503   0.44404   0.00000  Uiso   1.00
