data_job_01964
_audit_creation_date              2018-12-19
_audit_creation_method            'Materials Studio'
_symmetry_space_group_name_H-M    'P1'
_symmetry_Int_Tables_number       1
_symmetry_cell_setting            triclinic
loop_
_symmetry_equiv_pos_as_xyz
  x,y,z
_cell_length_a                    19.5317
_cell_length_b                    15.2635
_cell_length_c                    22.2855
_cell_angle_alpha                 90.0000
_cell_angle_beta                  29.6332
_cell_angle_gamma                 90.0000
loop_
_atom_site_label
_atom_site_type_symbol
_atom_site_fract_x
_atom_site_fract_y
_atom_site_fract_z
_atom_site_U_iso_or_equiv
_atom_site_adp_type
_atom_site_occupancy
C1     C     0.19276   0.10294   0.98637   0.00000  Uiso   1.00
C2     C     0.10030   0.18315   0.04913   0.00000  Uiso   1.00
C3     C     0.11868   0.24919   0.99308   0.00000  Uiso   1.00
C4     C     0.02283   0.31699   0.06631   0.00000  Uiso   1.00
C5     C     0.89607   0.44132   0.14478   0.00000  Uiso   1.00
C6     C     0.24105   0.10414   0.01472   0.00000  Uiso   1.00
C7     C     0.37778   0.10374   0.92973   0.00000  Uiso   1.00
C8     C     0.40042   0.10502   0.97400   0.00000  Uiso   1.00
C9     C     0.49219   0.10661   0.99903   0.00000  Uiso   1.00
C10    C     0.09788   0.02355   0.05269   0.00000  Uiso   1.00
C11    C     0.11424   0.95539   0.99963   0.00000  Uiso   1.00
C12    C     0.01636   0.88880   0.07587   0.00000  Uiso   1.00
C13    C     0.88582   0.76528   0.15986   0.00000  Uiso   1.00
C14    C     0.98985   0.10589   0.21610   0.00000  Uiso   1.00
C15    C     0.99009   0.18475   0.17392   0.00000  Uiso   1.00
C16    C     0.89419   0.25246   0.24726   0.00000  Uiso   1.00
C17    C     0.91242   0.31860   0.19132   0.00000  Uiso   1.00
C18    C     0.13085   0.10574   0.13950   0.00000  Uiso   1.00
C19    C     0.15329   0.10701   0.18390   0.00000  Uiso   1.00
C20    C     0.29002   0.10662   0.09901   0.00000  Uiso   1.00
C21    C     0.98767   0.02516   0.17748   0.00000  Uiso   1.00
C22    C     0.88975   0.95866   0.25381   0.00000  Uiso   1.00
C23    C     0.90595   0.89041   0.20088   0.00000  Uiso   1.00
H24    H     0.27856   0.10169   0.88922   0.00000  Uiso   1.00
H25    H     0.20399   0.24793   0.89651   0.00000  Uiso   1.00
H26    H     0.46305   0.10249   0.83317   0.00000  Uiso   1.00
H27    H     0.19954   0.95417   0.90306   0.00000  Uiso   1.00
H28    H     0.07273   0.41080   0.95961   0.00000  Uiso   1.00
H29    H     0.61898   0.10410   0.82606   0.00000  Uiso   1.00
H30    H     0.06333   0.79132   0.97344   0.00000  Uiso   1.00
H31    H     0.90405   0.10714   0.31326   0.00000  Uiso   1.00
H32    H     0.80891   0.25369   0.34382   0.00000  Uiso   1.00
H33    H     0.06798   0.10825   0.28047   0.00000  Uiso   1.00
H34    H     0.80447   0.95992   0.35037   0.00000  Uiso   1.00
H35    H     0.75208   0.41547   0.32266   0.00000  Uiso   1.00
H36    H     0.29833   0.10877   0.18911   0.00000  Uiso   1.00
H37    H     0.74267   0.79600   0.33649   0.00000  Uiso   1.00
O38    O     0.85661   0.50945   0.15358   0.00000  Uiso   1.00
O39    O     0.57326   0.10706   0.97836   0.00000  Uiso   1.00
O40    O     0.84426   0.69671   0.17172   0.00000  Uiso   1.00
N41    N     0.01031   0.39178   0.04086   0.00000  Uiso   1.00
N42    N     0.52101   0.10505   0.91600   0.00000  Uiso   1.00
N43    N     0.00155   0.81262   0.05378   0.00000  Uiso   1.00
N44    N     0.83776   0.39429   0.23622   0.00000  Uiso   1.00
N45    N     0.34847   0.10756   0.11135   0.00000  Uiso   1.00
N46    N     0.82901   0.81513   0.24914   0.00000  Uiso   1.00
C47    C     0.80724   0.60294   0.51363   0.00000  Uiso   1.00
C48    C     0.89970   0.68315   0.45087   0.00000  Uiso   1.00
C49    C     0.88132   0.74919   0.50692   0.00000  Uiso   1.00
C50    C     0.97717   0.81699   0.43369   0.00000  Uiso   1.00
C51    C     0.10393   0.94132   0.35522   0.00000  Uiso   1.00
C52    C     0.75895   0.60414   0.48528   0.00000  Uiso   1.00
C53    C     0.62222   0.60374   0.57027   0.00000  Uiso   1.00
C54    C     0.59958   0.60502   0.52600   0.00000  Uiso   1.00
C55    C     0.50781   0.60661   0.50097   0.00000  Uiso   1.00
C56    C     0.90212   0.52355   0.44731   0.00000  Uiso   1.00
C57    C     0.88576   0.45539   0.50037   0.00000  Uiso   1.00
C58    C     0.98364   0.38880   0.42413   0.00000  Uiso   1.00
C59    C     0.11418   0.26528   0.34014   0.00000  Uiso   1.00
C60    C     0.01015   0.60589   0.28390   0.00000  Uiso   1.00
C61    C     0.00991   0.68475   0.32608   0.00000  Uiso   1.00
C62    C     0.10581   0.75246   0.25274   0.00000  Uiso   1.00
C63    C     0.08758   0.81860   0.30868   0.00000  Uiso   1.00
C64    C     0.86915   0.60574   0.36050   0.00000  Uiso   1.00
C65    C     0.84671   0.60701   0.31610   0.00000  Uiso   1.00
C66    C     0.70998   0.60662   0.40099   0.00000  Uiso   1.00
C67    C     0.01233   0.52516   0.32252   0.00000  Uiso   1.00
C68    C     0.11025   0.45866   0.24619   0.00000  Uiso   1.00
C69    C     0.09405   0.39041   0.29912   0.00000  Uiso   1.00
H70    H     0.72144   0.60169   0.61078   0.00000  Uiso   1.00
H71    H     0.79601   0.74793   0.60349   0.00000  Uiso   1.00
H72    H     0.53695   0.60249   0.66683   0.00000  Uiso   1.00
H73    H     0.80046   0.45417   0.59694   0.00000  Uiso   1.00
H74    H     0.92727   0.91080   0.54039   0.00000  Uiso   1.00
H75    H     0.38102   0.60410   0.67394   0.00000  Uiso   1.00
H76    H     0.93667   0.29132   0.52656   0.00000  Uiso   1.00
H77    H     0.09595   0.60714   0.18674   0.00000  Uiso   1.00
H78    H     0.19109   0.75369   0.15618   0.00000  Uiso   1.00
H79    H     0.93202   0.60825   0.21953   0.00000  Uiso   1.00
H80    H     0.19553   0.45992   0.14963   0.00000  Uiso   1.00
H81    H     0.24792   0.91547   0.17734   0.00000  Uiso   1.00
H82    H     0.70167   0.60877   0.31089   0.00000  Uiso   1.00
H83    H     0.25733   0.29600   0.16351   0.00000  Uiso   1.00
O84    O     0.14339   0.00945   0.34642   0.00000  Uiso   1.00
O85    O     0.42674   0.60706   0.52164   0.00000  Uiso   1.00
O86    O     0.15574   0.19671   0.32828   0.00000  Uiso   1.00
N87    N     0.98969   0.89178   0.45914   0.00000  Uiso   1.00
N88    N     0.47899   0.60505   0.58400   0.00000  Uiso   1.00
N89    N     0.99845   0.31262   0.44622   0.00000  Uiso   1.00
N90    N     0.16224   0.89429   0.26378   0.00000  Uiso   1.00
N91    N     0.65153   0.60756   0.38865   0.00000  Uiso   1.00
N92    N     0.17099   0.31513   0.25086   0.00000  Uiso   1.00
C93    C     0.80724   0.89706   0.01363   0.00000  Uiso   1.00
C94    C     0.89970   0.81685   0.95087   0.00000  Uiso   1.00
C95    C     0.88132   0.75081   0.00692   0.00000  Uiso   1.00
C96    C     0.97717   0.68301   0.93369   0.00000  Uiso   1.00
C97    C     0.10393   0.55868   0.85522   0.00000  Uiso   1.00
C98    C     0.75895   0.89586   0.98528   0.00000  Uiso   1.00
C99    C     0.62222   0.89626   0.07027   0.00000  Uiso   1.00
C100   C     0.59958   0.89498   0.02600   0.00000  Uiso   1.00
C101   C     0.50781   0.89339   0.00097   0.00000  Uiso   1.00
C102   C     0.90212   0.97645   0.94731   0.00000  Uiso   1.00
C103   C     0.88576   0.04461   0.00037   0.00000  Uiso   1.00
C104   C     0.98364   0.11120   0.92413   0.00000  Uiso   1.00
C105   C     0.11418   0.23472   0.84014   0.00000  Uiso   1.00
C106   C     0.01015   0.89411   0.78390   0.00000  Uiso   1.00
C107   C     0.00991   0.81525   0.82608   0.00000  Uiso   1.00
C108   C     0.10581   0.74754   0.75274   0.00000  Uiso   1.00
C109   C     0.08758   0.68140   0.80868   0.00000  Uiso   1.00
C110   C     0.86915   0.89426   0.86050   0.00000  Uiso   1.00
C111   C     0.84671   0.89299   0.81610   0.00000  Uiso   1.00
C112   C     0.70998   0.89338   0.90099   0.00000  Uiso   1.00
C113   C     0.01233   0.97484   0.82252   0.00000  Uiso   1.00
C114   C     0.11025   0.04134   0.74619   0.00000  Uiso   1.00
C115   C     0.09405   0.10959   0.79912   0.00000  Uiso   1.00
H116   H     0.72144   0.89831   0.11078   0.00000  Uiso   1.00
H117   H     0.79601   0.75207   0.10349   0.00000  Uiso   1.00
H118   H     0.53695   0.89751   0.16683   0.00000  Uiso   1.00
H119   H     0.80046   0.04583   0.09694   0.00000  Uiso   1.00
H120   H     0.92727   0.58920   0.04039   0.00000  Uiso   1.00
H121   H     0.38102   0.89590   0.17394   0.00000  Uiso   1.00
H122   H     0.93667   0.20868   0.02656   0.00000  Uiso   1.00
H123   H     0.09595   0.89286   0.68674   0.00000  Uiso   1.00
H124   H     0.19109   0.74631   0.65618   0.00000  Uiso   1.00
H125   H     0.93202   0.89175   0.71953   0.00000  Uiso   1.00
H126   H     0.19553   0.04008   0.64963   0.00000  Uiso   1.00
H127   H     0.24792   0.58453   0.67734   0.00000  Uiso   1.00
H128   H     0.70167   0.89123   0.81089   0.00000  Uiso   1.00
H129   H     0.25733   0.20400   0.66351   0.00000  Uiso   1.00
O130   O     0.14339   0.49055   0.84642   0.00000  Uiso   1.00
O131   O     0.42674   0.89294   0.02164   0.00000  Uiso   1.00
O132   O     0.15574   0.30329   0.82828   0.00000  Uiso   1.00
N133   N     0.98969   0.60822   0.95914   0.00000  Uiso   1.00
N134   N     0.47899   0.89495   0.08400   0.00000  Uiso   1.00
N135   N     0.99845   0.18738   0.94622   0.00000  Uiso   1.00
N136   N     0.16224   0.60571   0.76378   0.00000  Uiso   1.00
N137   N     0.65153   0.89244   0.88865   0.00000  Uiso   1.00
N138   N     0.17099   0.18487   0.75086   0.00000  Uiso   1.00
C139   C     0.19276   0.39706   0.48637   0.00000  Uiso   1.00
C140   C     0.10030   0.31685   0.54913   0.00000  Uiso   1.00
C141   C     0.11868   0.25081   0.49308   0.00000  Uiso   1.00
C142   C     0.02283   0.18301   0.56631   0.00000  Uiso   1.00
C143   C     0.89607   0.05868   0.64478   0.00000  Uiso   1.00
C144   C     0.24105   0.39586   0.51472   0.00000  Uiso   1.00
C145   C     0.37778   0.39626   0.42973   0.00000  Uiso   1.00
C146   C     0.40042   0.39498   0.47400   0.00000  Uiso   1.00
C147   C     0.49219   0.39339   0.49903   0.00000  Uiso   1.00
C148   C     0.09788   0.47645   0.55269   0.00000  Uiso   1.00
C149   C     0.11424   0.54461   0.49963   0.00000  Uiso   1.00
C150   C     0.01636   0.61120   0.57587   0.00000  Uiso   1.00
C151   C     0.88582   0.73472   0.65986   0.00000  Uiso   1.00
C152   C     0.98985   0.39411   0.71610   0.00000  Uiso   1.00
C153   C     0.99009   0.31525   0.67392   0.00000  Uiso   1.00
C154   C     0.89419   0.24754   0.74726   0.00000  Uiso   1.00
C155   C     0.91242   0.18140   0.69132   0.00000  Uiso   1.00
C156   C     0.13085   0.39426   0.63950   0.00000  Uiso   1.00
C157   C     0.15329   0.39299   0.68390   0.00000  Uiso   1.00
C158   C     0.29002   0.39338   0.59901   0.00000  Uiso   1.00
C159   C     0.98767   0.47484   0.67748   0.00000  Uiso   1.00
C160   C     0.88975   0.54134   0.75381   0.00000  Uiso   1.00
C161   C     0.90595   0.60959   0.70088   0.00000  Uiso   1.00
H162   H     0.27856   0.39831   0.38922   0.00000  Uiso   1.00
H163   H     0.20399   0.25207   0.39651   0.00000  Uiso   1.00
H164   H     0.46305   0.39751   0.33317   0.00000  Uiso   1.00
H165   H     0.19954   0.54583   0.40306   0.00000  Uiso   1.00
H166   H     0.07273   0.08920   0.45961   0.00000  Uiso   1.00
H167   H     0.61898   0.39590   0.32606   0.00000  Uiso   1.00
H168   H     0.06333   0.70868   0.47344   0.00000  Uiso   1.00
H169   H     0.90405   0.39286   0.81326   0.00000  Uiso   1.00
H170   H     0.80891   0.24631   0.84382   0.00000  Uiso   1.00
H171   H     0.06798   0.39175   0.78047   0.00000  Uiso   1.00
H172   H     0.80447   0.54008   0.85037   0.00000  Uiso   1.00
H173   H     0.75208   0.08453   0.82266   0.00000  Uiso   1.00
H174   H     0.29833   0.39123   0.68911   0.00000  Uiso   1.00
H175   H     0.74267   0.70400   0.83649   0.00000  Uiso   1.00
O176   O     0.85661   0.99055   0.65358   0.00000  Uiso   1.00
O177   O     0.57326   0.39294   0.47836   0.00000  Uiso   1.00
O178   O     0.84426   0.80329   0.67172   0.00000  Uiso   1.00
N179   N     0.01031   0.10822   0.54086   0.00000  Uiso   1.00
N180   N     0.52101   0.39495   0.41600   0.00000  Uiso   1.00
N181   N     0.00155   0.68738   0.55378   0.00000  Uiso   1.00
N182   N     0.83776   0.10571   0.73622   0.00000  Uiso   1.00
N183   N     0.34847   0.39244   0.61135   0.00000  Uiso   1.00
N184   N     0.82901   0.68487   0.74914   0.00000  Uiso   1.00
