data_job_01676
_audit_creation_date              2018-12-19
_audit_creation_method            'Materials Studio'
_symmetry_space_group_name_H-M    'P1'
_symmetry_Int_Tables_number       1
_symmetry_cell_setting            triclinic
loop_
_symmetry_equiv_pos_as_xyz
  x,y,z
_cell_length_a                    9.4746
_cell_length_b                    12.2383
_cell_length_c                    14.7185
_cell_angle_alpha                 71.3670
_cell_angle_beta                  86.5453
_cell_angle_gamma                 76.3114
loop_
_atom_site_label
_atom_site_type_symbol
_atom_site_fract_x
_atom_site_fract_y
_atom_site_fract_z
_atom_site_U_iso_or_equiv
_atom_site_adp_type
_atom_site_occupancy
C1     C     0.82679   0.15270   0.76895   0.00000  Uiso   1.00
C2     C     0.89307   0.25227   0.77500   0.00000  Uiso   1.00
C3     C     0.89536   0.28768   0.85545   0.00000  Uiso   1.00
C4     C     0.96115   0.38057   0.84641   0.00000  Uiso   1.00
C5     C     0.05470   0.52679   0.86893   0.00000  Uiso   1.00
C6     C     0.71634   0.20834   0.68630   0.00000  Uiso   1.00
C7     C     0.57004   0.20678   0.69218   0.00000  Uiso   1.00
C8     C     0.48708   0.26268   0.60846   0.00000  Uiso   1.00
C9     C     0.30626   0.34061   0.49327   0.00000  Uiso   1.00
C10    C     0.94823   0.06742   0.73650   0.00000  Uiso   1.00
C11    C     0.99688   0.94737   0.78458   0.00000  Uiso   1.00
C12    C     0.10912   0.88462   0.74312   0.00000  Uiso   1.00
C13    C     0.28835   0.74376   0.70587   0.00000  Uiso   1.00
C14    C     0.93958   0.25472   0.60982   0.00000  Uiso   1.00
C15    C     0.95433   0.30768   0.68856   0.00000  Uiso   1.00
C16    C     0.02015   0.40054   0.67939   0.00000  Uiso   1.00
C17    C     0.02254   0.43608   0.75982   0.00000  Uiso   1.00
C18    C     0.77760   0.26375   0.59987   0.00000  Uiso   1.00
C19    C     0.69484   0.31965   0.51612   0.00000  Uiso   1.00
C20    C     0.54845   0.31819   0.52187   0.00000  Uiso   1.00
C21    C     0.00950   0.12283   0.65007   0.00000  Uiso   1.00
C22    C     0.12168   0.06025   0.60852   0.00000  Uiso   1.00
C23    C     0.17050   0.94014   0.65653   0.00000  Uiso   1.00
H24    H     0.77908   0.10956   0.83624   0.00000  Uiso   1.00
H25    H     0.84792   0.24478   0.92233   0.00000  Uiso   1.00
H26    H     0.52266   0.16389   0.75907   0.00000  Uiso   1.00
H27    H     0.94944   0.90453   0.85146   0.00000  Uiso   1.00
H28    H     0.95121   0.41915   0.97964   0.00000  Uiso   1.00
H29    H     0.26540   0.24855   0.63541   0.00000  Uiso   1.00
H30    H     0.16534   0.70164   0.83023   0.00000  Uiso   1.00
H31    H     0.98728   0.29786   0.54253   0.00000  Uiso   1.00
H32    H     0.06755   0.44341   0.61250   0.00000  Uiso   1.00
H33    H     0.74229   0.36252   0.44925   0.00000  Uiso   1.00
H34    H     0.16906   0.10316   0.54164   0.00000  Uiso   1.00
H35    H     0.12947   0.58037   0.72817   0.00000  Uiso   1.00
H36    H     0.44365   0.40977   0.38394   0.00000  Uiso   1.00
H37    H     0.34359   0.86286   0.57876   0.00000  Uiso   1.00
O38    O     0.08935   0.59214   0.90523   0.00000  Uiso   1.00
O39    O     0.18960   0.36829   0.45361   0.00000  Uiso   1.00
O40    O     0.37029   0.65076   0.70920   0.00000  Uiso   1.00
N41    N     0.98218   0.43711   0.91086   0.00000  Uiso   1.00
N42    N     0.34098   0.27762   0.58903   0.00000  Uiso   1.00
N43    N     0.18232   0.76629   0.77115   0.00000  Uiso   1.00
N44    N     0.07810   0.52386   0.77555   0.00000  Uiso   1.00
N45    N     0.43690   0.36437   0.45372   0.00000  Uiso   1.00
N46    N     0.27823   0.85304   0.63584   0.00000  Uiso   1.00
C47    C     0.17321   0.84730   0.23105   0.00000  Uiso   1.00
C48    C     0.10693   0.74773   0.22500   0.00000  Uiso   1.00
C49    C     0.10464   0.71232   0.14455   0.00000  Uiso   1.00
C50    C     0.03885   0.61943   0.15359   0.00000  Uiso   1.00
C51    C     0.94530   0.47321   0.13107   0.00000  Uiso   1.00
C52    C     0.28366   0.79166   0.31370   0.00000  Uiso   1.00
C53    C     0.42996   0.79322   0.30782   0.00000  Uiso   1.00
C54    C     0.51292   0.73732   0.39154   0.00000  Uiso   1.00
C55    C     0.69374   0.65939   0.50673   0.00000  Uiso   1.00
C56    C     0.05177   0.93258   0.26350   0.00000  Uiso   1.00
C57    C     0.00312   0.05263   0.21542   0.00000  Uiso   1.00
C58    C     0.89088   0.11538   0.25688   0.00000  Uiso   1.00
C59    C     0.71165   0.25624   0.29413   0.00000  Uiso   1.00
C60    C     0.06042   0.74528   0.39018   0.00000  Uiso   1.00
C61    C     0.04567   0.69232   0.31144   0.00000  Uiso   1.00
C62    C     0.97985   0.59946   0.32061   0.00000  Uiso   1.00
C63    C     0.97746   0.56392   0.24018   0.00000  Uiso   1.00
C64    C     0.22240   0.73625   0.40013   0.00000  Uiso   1.00
C65    C     0.30516   0.68035   0.48388   0.00000  Uiso   1.00
C66    C     0.45155   0.68181   0.47813   0.00000  Uiso   1.00
C67    C     0.99050   0.87717   0.34993   0.00000  Uiso   1.00
C68    C     0.87832   0.93975   0.39148   0.00000  Uiso   1.00
C69    C     0.82950   0.05986   0.34347   0.00000  Uiso   1.00
H70    H     0.22092   0.89044   0.16376   0.00000  Uiso   1.00
H71    H     0.15208   0.75522   0.07767   0.00000  Uiso   1.00
H72    H     0.47734   0.83611   0.24093   0.00000  Uiso   1.00
H73    H     0.05056   0.09547   0.14854   0.00000  Uiso   1.00
H74    H     0.04879   0.58085   0.02036   0.00000  Uiso   1.00
H75    H     0.73460   0.75145   0.36459   0.00000  Uiso   1.00
H76    H     0.83466   0.29836   0.16977   0.00000  Uiso   1.00
H77    H     0.01272   0.70214   0.45747   0.00000  Uiso   1.00
H78    H     0.93245   0.55659   0.38750   0.00000  Uiso   1.00
H79    H     0.25771   0.63748   0.55075   0.00000  Uiso   1.00
H80    H     0.83094   0.89684   0.45836   0.00000  Uiso   1.00
H81    H     0.87053   0.41963   0.27183   0.00000  Uiso   1.00
H82    H     0.55635   0.59023   0.61606   0.00000  Uiso   1.00
H83    H     0.65641   0.13714   0.42124   0.00000  Uiso   1.00
O84    O     0.91065   0.40786   0.09477   0.00000  Uiso   1.00
O85    O     0.81040   0.63171   0.54639   0.00000  Uiso   1.00
O86    O     0.62971   0.34924   0.29080   0.00000  Uiso   1.00
N87    N     0.01782   0.56289   0.08914   0.00000  Uiso   1.00
N88    N     0.65902   0.72238   0.41097   0.00000  Uiso   1.00
N89    N     0.81768   0.23371   0.22885   0.00000  Uiso   1.00
N90    N     0.92190   0.47614   0.22445   0.00000  Uiso   1.00
N91    N     0.56310   0.63563   0.54628   0.00000  Uiso   1.00
N92    N     0.72177   0.14696   0.36416   0.00000  Uiso   1.00
