data_job_04769
_audit_creation_date              2018-12-19
_audit_creation_method            'Materials Studio'
_symmetry_space_group_name_H-M    'P1'
_symmetry_Int_Tables_number       1
_symmetry_cell_setting            triclinic
loop_
_symmetry_equiv_pos_as_xyz
  x,y,z
_cell_length_a                    12.0637
_cell_length_b                    26.5133
_cell_length_c                    7.1254
_cell_angle_alpha                 90.0000
_cell_angle_beta                  90.0000
_cell_angle_gamma                 90.0000
loop_
_atom_site_label
_atom_site_type_symbol
_atom_site_fract_x
_atom_site_fract_y
_atom_site_fract_z
_atom_site_U_iso_or_equiv
_atom_site_adp_type
_atom_site_occupancy
C1     C     0.27112   0.62083   0.89153   0.00000  Uiso   1.00
C2     C     0.38791   0.64030   0.85340   0.00000  Uiso   1.00
C3     C     0.45629   0.66400   0.98283   0.00000  Uiso   1.00
C4     C     0.56020   0.67902   0.92045   0.00000  Uiso   1.00
C5     C     0.73633   0.71055   0.88939   0.00000  Uiso   1.00
C6     C     0.19628   0.64655   0.74804   0.00000  Uiso   1.00
C7     C     0.10353   0.67550   0.78889   0.00000  Uiso   1.00
C8     C     0.04612   0.69578   0.63780   0.00000  Uiso   1.00
C9     C     0.92469   0.73699   0.44316   0.00000  Uiso   1.00
C10    C     0.27230   0.56505   0.83949   0.00000  Uiso   1.00
C11    C     0.24343   0.52547   0.95721   0.00000  Uiso   1.00
C12    C     0.24999   0.47713   0.88310   0.00000  Uiso   1.00
C13    C     0.24658   0.39179   0.83046   0.00000  Uiso   1.00
C14    C     0.33407   0.60536   0.55057   0.00000  Uiso   1.00
C15    C     0.42210   0.63189   0.66820   0.00000  Uiso   1.00
C16    C     0.52594   0.64688   0.60560   0.00000  Uiso   1.00
C17    C     0.59446   0.67060   0.73492   0.00000  Uiso   1.00
C18    C     0.23048   0.63815   0.56284   0.00000  Uiso   1.00
C19    C     0.17318   0.65838   0.41166   0.00000  Uiso   1.00
C20    C     0.08037   0.68736   0.45227   0.00000  Uiso   1.00
C21    C     0.30649   0.55664   0.65429   0.00000  Uiso   1.00
C22    C     0.31309   0.50835   0.57998   0.00000  Uiso   1.00
C23    C     0.28424   0.46871   0.69757   0.00000  Uiso   1.00
H24    H     0.24449   0.62738   0.03571   0.00000  Uiso   1.00
H25    H     0.42979   0.67050   0.12614   0.00000  Uiso   1.00
H26    H     0.07708   0.68200   0.93222   0.00000  Uiso   1.00
H27    H     0.21697   0.53199   0.10052   0.00000  Uiso   1.00
H28    H     0.65029   0.71462   0.14471   0.00000  Uiso   1.00
H29    H     0.90657   0.73885   0.73582   0.00000  Uiso   1.00
H30    H     0.20154   0.42253   0.09071   0.00000  Uiso   1.00
H31    H     0.36070   0.59881   0.40637   0.00000  Uiso   1.00
H32    H     0.55238   0.64037   0.46227   0.00000  Uiso   1.00
H33    H     0.19967   0.65187   0.26836   0.00000  Uiso   1.00
H34    H     0.33955   0.50186   0.43666   0.00000  Uiso   1.00
H35    H     0.74979   0.69017   0.60589   0.00000  Uiso   1.00
H36    H     0.00606   0.71440   0.19701   0.00000  Uiso   1.00
H37    H     0.30104   0.39807   0.55189   0.00000  Uiso   1.00
O38    O     0.82402   0.73027   0.92341   0.00000  Uiso   1.00
O39    O     0.84827   0.76204   0.38697   0.00000  Uiso   1.00
O40    O     0.23528   0.34703   0.85258   0.00000  Uiso   1.00
N41    N     0.64741   0.70316   0.01024   0.00000  Uiso   1.00
N42    N     0.95208   0.72581   0.62796   0.00000  Uiso   1.00
N43    N     0.22783   0.43008   0.95973   0.00000  Uiso   1.00
N44    N     0.70095   0.69000   0.72030   0.00000  Uiso   1.00
N45    N     0.00562   0.71266   0.33802   0.00000  Uiso   1.00
N46    N     0.28137   0.41692   0.66980   0.00000  Uiso   1.00
C47    C     0.72888   0.37917   0.39153   0.00000  Uiso   1.00
C48    C     0.61209   0.35970   0.35340   0.00000  Uiso   1.00
C49    C     0.54371   0.33600   0.48283   0.00000  Uiso   1.00
C50    C     0.43980   0.32098   0.42045   0.00000  Uiso   1.00
C51    C     0.26367   0.28945   0.38939   0.00000  Uiso   1.00
C52    C     0.80372   0.35345   0.24804   0.00000  Uiso   1.00
C53    C     0.89647   0.32450   0.28889   0.00000  Uiso   1.00
C54    C     0.95388   0.30422   0.13780   0.00000  Uiso   1.00
C55    C     0.07531   0.26301   0.94316   0.00000  Uiso   1.00
C56    C     0.72770   0.43495   0.33949   0.00000  Uiso   1.00
C57    C     0.75657   0.47453   0.45721   0.00000  Uiso   1.00
C58    C     0.75001   0.52287   0.38310   0.00000  Uiso   1.00
C59    C     0.75342   0.60821   0.33046   0.00000  Uiso   1.00
C60    C     0.66593   0.39464   0.05057   0.00000  Uiso   1.00
C61    C     0.57790   0.36811   0.16820   0.00000  Uiso   1.00
C62    C     0.47406   0.35312   0.10560   0.00000  Uiso   1.00
C63    C     0.40554   0.32940   0.23492   0.00000  Uiso   1.00
C64    C     0.76952   0.36185   0.06284   0.00000  Uiso   1.00
C65    C     0.82682   0.34162   0.91166   0.00000  Uiso   1.00
C66    C     0.91963   0.31264   0.95227   0.00000  Uiso   1.00
C67    C     0.69351   0.44336   0.15429   0.00000  Uiso   1.00
C68    C     0.68691   0.49165   0.07998   0.00000  Uiso   1.00
C69    C     0.71576   0.53129   0.19757   0.00000  Uiso   1.00
H70    H     0.75551   0.37262   0.53571   0.00000  Uiso   1.00
H71    H     0.57021   0.32950   0.62614   0.00000  Uiso   1.00
H72    H     0.92292   0.31800   0.43222   0.00000  Uiso   1.00
H73    H     0.78303   0.46801   0.60052   0.00000  Uiso   1.00
H74    H     0.34971   0.28538   0.64471   0.00000  Uiso   1.00
H75    H     0.09343   0.26115   0.23582   0.00000  Uiso   1.00
H76    H     0.79846   0.57747   0.59071   0.00000  Uiso   1.00
H77    H     0.63930   0.40119   0.90637   0.00000  Uiso   1.00
H78    H     0.44762   0.35963   0.96227   0.00000  Uiso   1.00
H79    H     0.80033   0.34813   0.76836   0.00000  Uiso   1.00
H80    H     0.66045   0.49814   0.93666   0.00000  Uiso   1.00
H81    H     0.25021   0.30983   0.10589   0.00000  Uiso   1.00
H82    H     0.99394   0.28560   0.69701   0.00000  Uiso   1.00
H83    H     0.69896   0.60193   0.05189   0.00000  Uiso   1.00
O84    O     0.17598   0.26973   0.42341   0.00000  Uiso   1.00
O85    O     0.15173   0.23796   0.88697   0.00000  Uiso   1.00
O86    O     0.76472   0.65297   0.35258   0.00000  Uiso   1.00
N87    N     0.35259   0.29684   0.51024   0.00000  Uiso   1.00
N88    N     0.04792   0.27419   0.12796   0.00000  Uiso   1.00
N89    N     0.77217   0.56992   0.45973   0.00000  Uiso   1.00
N90    N     0.29905   0.31000   0.22030   0.00000  Uiso   1.00
N91    N     0.99438   0.28734   0.83802   0.00000  Uiso   1.00
N92    N     0.71863   0.58308   0.16980   0.00000  Uiso   1.00
C93    C     0.77112   0.87917   0.89153   0.00000  Uiso   1.00
C94    C     0.88791   0.85970   0.85340   0.00000  Uiso   1.00
C95    C     0.95629   0.83600   0.98283   0.00000  Uiso   1.00
C96    C     0.06020   0.82098   0.92045   0.00000  Uiso   1.00
C97    C     0.23633   0.78945   0.88939   0.00000  Uiso   1.00
C98    C     0.69628   0.85345   0.74804   0.00000  Uiso   1.00
C99    C     0.60353   0.82450   0.78889   0.00000  Uiso   1.00
C100   C     0.54612   0.80422   0.63780   0.00000  Uiso   1.00
C101   C     0.42469   0.76301   0.44316   0.00000  Uiso   1.00
C102   C     0.77230   0.93495   0.83949   0.00000  Uiso   1.00
C103   C     0.74343   0.97453   0.95721   0.00000  Uiso   1.00
C104   C     0.74999   0.02287   0.88310   0.00000  Uiso   1.00
C105   C     0.74658   0.10821   0.83046   0.00000  Uiso   1.00
C106   C     0.83407   0.89464   0.55057   0.00000  Uiso   1.00
C107   C     0.92210   0.86811   0.66820   0.00000  Uiso   1.00
C108   C     0.02594   0.85312   0.60560   0.00000  Uiso   1.00
C109   C     0.09446   0.82940   0.73492   0.00000  Uiso   1.00
C110   C     0.73048   0.86185   0.56284   0.00000  Uiso   1.00
C111   C     0.67318   0.84162   0.41166   0.00000  Uiso   1.00
C112   C     0.58037   0.81264   0.45227   0.00000  Uiso   1.00
C113   C     0.80649   0.94336   0.65429   0.00000  Uiso   1.00
C114   C     0.81309   0.99165   0.57998   0.00000  Uiso   1.00
C115   C     0.78424   0.03129   0.69757   0.00000  Uiso   1.00
H116   H     0.74449   0.87262   0.03571   0.00000  Uiso   1.00
H117   H     0.92979   0.82950   0.12614   0.00000  Uiso   1.00
H118   H     0.57708   0.81800   0.93222   0.00000  Uiso   1.00
H119   H     0.71697   0.96801   0.10052   0.00000  Uiso   1.00
H120   H     0.15029   0.78538   0.14471   0.00000  Uiso   1.00
H121   H     0.40657   0.76115   0.73582   0.00000  Uiso   1.00
H122   H     0.70154   0.07747   0.09071   0.00000  Uiso   1.00
H123   H     0.86070   0.90119   0.40637   0.00000  Uiso   1.00
H124   H     0.05238   0.85963   0.46227   0.00000  Uiso   1.00
H125   H     0.69967   0.84813   0.26836   0.00000  Uiso   1.00
H126   H     0.83955   0.99814   0.43666   0.00000  Uiso   1.00
H127   H     0.24979   0.80983   0.60589   0.00000  Uiso   1.00
H128   H     0.50606   0.78560   0.19701   0.00000  Uiso   1.00
H129   H     0.80104   0.10193   0.55189   0.00000  Uiso   1.00
O130   O     0.32402   0.76973   0.92341   0.00000  Uiso   1.00
O131   O     0.34827   0.73796   0.38697   0.00000  Uiso   1.00
O132   O     0.73528   0.15297   0.85258   0.00000  Uiso   1.00
N133   N     0.14741   0.79684   0.01024   0.00000  Uiso   1.00
N134   N     0.45208   0.77419   0.62796   0.00000  Uiso   1.00
N135   N     0.72783   0.06992   0.95973   0.00000  Uiso   1.00
N136   N     0.20095   0.81000   0.72030   0.00000  Uiso   1.00
N137   N     0.50562   0.78734   0.33802   0.00000  Uiso   1.00
N138   N     0.78137   0.08308   0.66980   0.00000  Uiso   1.00
C139   C     0.22888   0.12083   0.39153   0.00000  Uiso   1.00
C140   C     0.11209   0.14030   0.35340   0.00000  Uiso   1.00
C141   C     0.04371   0.16400   0.48283   0.00000  Uiso   1.00
C142   C     0.93980   0.17902   0.42045   0.00000  Uiso   1.00
C143   C     0.76367   0.21055   0.38939   0.00000  Uiso   1.00
C144   C     0.30372   0.14655   0.24804   0.00000  Uiso   1.00
C145   C     0.39647   0.17550   0.28889   0.00000  Uiso   1.00
C146   C     0.45388   0.19578   0.13780   0.00000  Uiso   1.00
C147   C     0.57531   0.23699   0.94316   0.00000  Uiso   1.00
C148   C     0.22770   0.06505   0.33949   0.00000  Uiso   1.00
C149   C     0.25657   0.02547   0.45721   0.00000  Uiso   1.00
C150   C     0.25001   0.97713   0.38310   0.00000  Uiso   1.00
C151   C     0.25342   0.89179   0.33046   0.00000  Uiso   1.00
C152   C     0.16593   0.10536   0.05057   0.00000  Uiso   1.00
C153   C     0.07790   0.13189   0.16820   0.00000  Uiso   1.00
C154   C     0.97406   0.14688   0.10560   0.00000  Uiso   1.00
C155   C     0.90554   0.17060   0.23492   0.00000  Uiso   1.00
C156   C     0.26952   0.13815   0.06284   0.00000  Uiso   1.00
C157   C     0.32682   0.15838   0.91166   0.00000  Uiso   1.00
C158   C     0.41963   0.18736   0.95227   0.00000  Uiso   1.00
C159   C     0.19351   0.05664   0.15429   0.00000  Uiso   1.00
C160   C     0.18691   0.00835   0.07998   0.00000  Uiso   1.00
C161   C     0.21576   0.96871   0.19757   0.00000  Uiso   1.00
H162   H     0.25551   0.12738   0.53571   0.00000  Uiso   1.00
H163   H     0.07021   0.17050   0.62614   0.00000  Uiso   1.00
H164   H     0.42292   0.18200   0.43222   0.00000  Uiso   1.00
H165   H     0.28303   0.03199   0.60052   0.00000  Uiso   1.00
H166   H     0.84971   0.21462   0.64471   0.00000  Uiso   1.00
H167   H     0.59343   0.23885   0.23582   0.00000  Uiso   1.00
H168   H     0.29846   0.92253   0.59071   0.00000  Uiso   1.00
H169   H     0.13930   0.09881   0.90637   0.00000  Uiso   1.00
H170   H     0.94762   0.14037   0.96227   0.00000  Uiso   1.00
H171   H     0.30033   0.15187   0.76836   0.00000  Uiso   1.00
H172   H     0.16045   0.00186   0.93666   0.00000  Uiso   1.00
H173   H     0.75021   0.19017   0.10589   0.00000  Uiso   1.00
H174   H     0.49394   0.21440   0.69701   0.00000  Uiso   1.00
H175   H     0.19896   0.89807   0.05189   0.00000  Uiso   1.00
O176   O     0.67598   0.23027   0.42341   0.00000  Uiso   1.00
O177   O     0.65173   0.26204   0.88697   0.00000  Uiso   1.00
O178   O     0.26472   0.84703   0.35258   0.00000  Uiso   1.00
N179   N     0.85259   0.20316   0.51024   0.00000  Uiso   1.00
N180   N     0.54792   0.22581   0.12796   0.00000  Uiso   1.00
N181   N     0.27217   0.93008   0.45973   0.00000  Uiso   1.00
N182   N     0.79905   0.19000   0.22030   0.00000  Uiso   1.00
N183   N     0.49438   0.21266   0.83802   0.00000  Uiso   1.00
N184   N     0.21863   0.91692   0.16980   0.00000  Uiso   1.00
