data_job_03760
_audit_creation_date              2018-12-19
_audit_creation_method            'Materials Studio'
_symmetry_space_group_name_H-M    'P1'
_symmetry_Int_Tables_number       1
_symmetry_cell_setting            triclinic
loop_
_symmetry_equiv_pos_as_xyz
  x,y,z
_cell_length_a                    24.8784
_cell_length_b                    12.3718
_cell_length_c                    22.6796
_cell_angle_alpha                 90.0000
_cell_angle_beta                  90.0000
_cell_angle_gamma                 90.0000
loop_
_atom_site_label
_atom_site_type_symbol
_atom_site_fract_x
_atom_site_fract_y
_atom_site_fract_z
_atom_site_U_iso_or_equiv
_atom_site_adp_type
_atom_site_occupancy
C1     C     0.38958   0.13305   0.09362   0.00000  Uiso   1.00
C2     C     0.36737   0.21771   0.05126   0.00000  Uiso   1.00
C3     C     0.39088   0.31676   0.03861   0.00000  Uiso   1.00
C4     C     0.36428   0.38282   0.99865   0.00000  Uiso   1.00
C5     C     0.33714   0.51917   0.93690   0.00000  Uiso   1.00
C6     C     0.34518   0.11187   0.13851   0.00000  Uiso   1.00
C7     C     0.35002   0.12191   0.19922   0.00000  Uiso   1.00
C8     C     0.30473   0.09886   0.23271   0.00000  Uiso   1.00
C9     C     0.24314   0.07080   0.30642   0.00000  Uiso   1.00
C10    C     0.39516   0.02927   0.05787   0.00000  Uiso   1.00
C11    C     0.44203   0.96984   0.05080   0.00000  Uiso   1.00
C12    C     0.43881   0.87722   0.01640   0.00000  Uiso   1.00
C13    C     0.45483   0.72091   0.96491   0.00000  Uiso   1.00
C14    C     0.30052   0.07423   0.04513   0.00000  Uiso   1.00
C15    C     0.31900   0.18577   0.02492   0.00000  Uiso   1.00
C16    C     0.29235   0.25169   0.98496   0.00000  Uiso   1.00
C17    C     0.31582   0.35082   0.97226   0.00000  Uiso   1.00
C18    C     0.29681   0.07992   0.11217   0.00000  Uiso   1.00
C19    C     0.25149   0.05684   0.14557   0.00000  Uiso   1.00
C20    C     0.25627   0.06685   0.20632   0.00000  Uiso   1.00
C21    C     0.34679   0.99732   0.03153   0.00000  Uiso   1.00
C22    C     0.34350   0.90477   0.99714   0.00000  Uiso   1.00
C23    C     0.39036   0.84521   0.99002   0.00000  Uiso   1.00
H24    H     0.42724   0.15792   0.11413   0.00000  Uiso   1.00
H25    H     0.42831   0.34146   0.05901   0.00000  Uiso   1.00
H26    H     0.38746   0.14663   0.21959   0.00000  Uiso   1.00
H27    H     0.47945   0.99458   0.07119   0.00000  Uiso   1.00
H28    H     0.40817   0.53088   0.98630   0.00000  Uiso   1.00
H29    H     0.32203   0.12003   0.32490   0.00000  Uiso   1.00
H30    H     0.51602   0.79941   0.01196   0.00000  Uiso   1.00
H31    H     0.26286   0.04936   0.02462   0.00000  Uiso   1.00
H32    H     0.25492   0.22695   0.96459   0.00000  Uiso   1.00
H33    H     0.21407   0.03212   0.12517   0.00000  Uiso   1.00
H34    H     0.30606   0.88007   0.97677   0.00000  Uiso   1.00
H35    H     0.26743   0.43794   0.90967   0.00000  Uiso   1.00
H36    H     0.18130   0.02708   0.24827   0.00000  Uiso   1.00
H37    H     0.37528   0.70647   0.93533   0.00000  Uiso   1.00
O38    O     0.33553   0.60320   0.91012   0.00000  Uiso   1.00
O39    O     0.22253   0.06416   0.35435   0.00000  Uiso   1.00
O40    O     0.47703   0.64352   0.94378   0.00000  Uiso   1.00
N41    N     0.37614   0.48462   0.97649   0.00000  Uiso   1.00
N42    N     0.29561   0.10052   0.29307   0.00000  Uiso   1.00
N43    N     0.47696   0.80075   0.00051   0.00000  Uiso   1.00
N44    N     0.30041   0.43461   0.93526   0.00000  Uiso   1.00
N45    N     0.21988   0.05051   0.25183   0.00000  Uiso   1.00
N46    N     0.40124   0.75074   0.95927   0.00000  Uiso   1.00
C47    C     0.11042   0.86695   0.59362   0.00000  Uiso   1.00
C48    C     0.13263   0.78229   0.55126   0.00000  Uiso   1.00
C49    C     0.10912   0.68324   0.53861   0.00000  Uiso   1.00
C50    C     0.13572   0.61718   0.49865   0.00000  Uiso   1.00
C51    C     0.16286   0.48083   0.43690   0.00000  Uiso   1.00
C52    C     0.15482   0.88813   0.63851   0.00000  Uiso   1.00
C53    C     0.14998   0.87809   0.69922   0.00000  Uiso   1.00
C54    C     0.19527   0.90114   0.73271   0.00000  Uiso   1.00
C55    C     0.25686   0.92920   0.80642   0.00000  Uiso   1.00
C56    C     0.10484   0.97073   0.55787   0.00000  Uiso   1.00
C57    C     0.05797   0.03016   0.55080   0.00000  Uiso   1.00
C58    C     0.06119   0.12278   0.51640   0.00000  Uiso   1.00
C59    C     0.04517   0.27909   0.46491   0.00000  Uiso   1.00
C60    C     0.19948   0.92577   0.54513   0.00000  Uiso   1.00
C61    C     0.18100   0.81423   0.52492   0.00000  Uiso   1.00
C62    C     0.20765   0.74831   0.48496   0.00000  Uiso   1.00
C63    C     0.18418   0.64918   0.47226   0.00000  Uiso   1.00
C64    C     0.20319   0.92008   0.61217   0.00000  Uiso   1.00
C65    C     0.24851   0.94316   0.64557   0.00000  Uiso   1.00
C66    C     0.24373   0.93315   0.70632   0.00000  Uiso   1.00
C67    C     0.15321   0.00268   0.53153   0.00000  Uiso   1.00
C68    C     0.15650   0.09523   0.49714   0.00000  Uiso   1.00
C69    C     0.10964   0.15479   0.49002   0.00000  Uiso   1.00
H70    H     0.07276   0.84208   0.61413   0.00000  Uiso   1.00
H71    H     0.07169   0.65854   0.55901   0.00000  Uiso   1.00
H72    H     0.11254   0.85337   0.71959   0.00000  Uiso   1.00
H73    H     0.02055   0.00542   0.57119   0.00000  Uiso   1.00
H74    H     0.09183   0.46912   0.48630   0.00000  Uiso   1.00
H75    H     0.17797   0.87997   0.82490   0.00000  Uiso   1.00
H76    H     0.98398   0.20059   0.51196   0.00000  Uiso   1.00
H77    H     0.23714   0.95064   0.52462   0.00000  Uiso   1.00
H78    H     0.24508   0.77305   0.46459   0.00000  Uiso   1.00
H79    H     0.28593   0.96788   0.62517   0.00000  Uiso   1.00
H80    H     0.19394   0.11993   0.47677   0.00000  Uiso   1.00
H81    H     0.23257   0.56206   0.40967   0.00000  Uiso   1.00
H82    H     0.31870   0.97292   0.74827   0.00000  Uiso   1.00
H83    H     0.12472   0.29353   0.43533   0.00000  Uiso   1.00
O84    O     0.16447   0.39680   0.41012   0.00000  Uiso   1.00
O85    O     0.27747   0.93584   0.85435   0.00000  Uiso   1.00
O86    O     0.02297   0.35648   0.44378   0.00000  Uiso   1.00
N87    N     0.12386   0.51538   0.47649   0.00000  Uiso   1.00
N88    N     0.20439   0.89948   0.79307   0.00000  Uiso   1.00
N89    N     0.02304   0.19925   0.50051   0.00000  Uiso   1.00
N90    N     0.19959   0.56539   0.43526   0.00000  Uiso   1.00
N91    N     0.28012   0.94949   0.75183   0.00000  Uiso   1.00
N92    N     0.09876   0.24926   0.45927   0.00000  Uiso   1.00
C93    C     0.61042   0.63305   0.40638   0.00000  Uiso   1.00
C94    C     0.63263   0.71771   0.44874   0.00000  Uiso   1.00
C95    C     0.60912   0.81676   0.46139   0.00000  Uiso   1.00
C96    C     0.63572   0.88282   0.50135   0.00000  Uiso   1.00
C97    C     0.66286   0.01917   0.56310   0.00000  Uiso   1.00
C98    C     0.65482   0.61187   0.36149   0.00000  Uiso   1.00
C99    C     0.64998   0.62191   0.30078   0.00000  Uiso   1.00
C100   C     0.69527   0.59886   0.26729   0.00000  Uiso   1.00
C101   C     0.75686   0.57080   0.19358   0.00000  Uiso   1.00
C102   C     0.60484   0.52927   0.44213   0.00000  Uiso   1.00
C103   C     0.55797   0.46984   0.44920   0.00000  Uiso   1.00
C104   C     0.56119   0.37722   0.48360   0.00000  Uiso   1.00
C105   C     0.54517   0.22091   0.53509   0.00000  Uiso   1.00
C106   C     0.69948   0.57423   0.45487   0.00000  Uiso   1.00
C107   C     0.68100   0.68577   0.47508   0.00000  Uiso   1.00
C108   C     0.70765   0.75169   0.51504   0.00000  Uiso   1.00
C109   C     0.68418   0.85082   0.52774   0.00000  Uiso   1.00
C110   C     0.70319   0.57992   0.38783   0.00000  Uiso   1.00
C111   C     0.74851   0.55684   0.35443   0.00000  Uiso   1.00
C112   C     0.74373   0.56685   0.29368   0.00000  Uiso   1.00
C113   C     0.65321   0.49732   0.46847   0.00000  Uiso   1.00
C114   C     0.65650   0.40477   0.50286   0.00000  Uiso   1.00
C115   C     0.60964   0.34521   0.50998   0.00000  Uiso   1.00
H116   H     0.57276   0.65792   0.38587   0.00000  Uiso   1.00
H117   H     0.57169   0.84146   0.44099   0.00000  Uiso   1.00
H118   H     0.61254   0.64663   0.28041   0.00000  Uiso   1.00
H119   H     0.52055   0.49458   0.42881   0.00000  Uiso   1.00
H120   H     0.59183   0.03088   0.51370   0.00000  Uiso   1.00
H121   H     0.67797   0.62003   0.17510   0.00000  Uiso   1.00
H122   H     0.48398   0.29941   0.48804   0.00000  Uiso   1.00
H123   H     0.73714   0.54936   0.47538   0.00000  Uiso   1.00
H124   H     0.74508   0.72695   0.53541   0.00000  Uiso   1.00
H125   H     0.78593   0.53212   0.37483   0.00000  Uiso   1.00
H126   H     0.69394   0.38007   0.52323   0.00000  Uiso   1.00
H127   H     0.73257   0.93794   0.59033   0.00000  Uiso   1.00
H128   H     0.81870   0.52708   0.25173   0.00000  Uiso   1.00
H129   H     0.62472   0.20647   0.56467   0.00000  Uiso   1.00
O130   O     0.66447   0.10320   0.58988   0.00000  Uiso   1.00
O131   O     0.77747   0.56416   0.14565   0.00000  Uiso   1.00
O132   O     0.52297   0.14352   0.55622   0.00000  Uiso   1.00
N133   N     0.62386   0.98462   0.52351   0.00000  Uiso   1.00
N134   N     0.70439   0.60052   0.20693   0.00000  Uiso   1.00
N135   N     0.52304   0.30075   0.49949   0.00000  Uiso   1.00
N136   N     0.69959   0.93461   0.56474   0.00000  Uiso   1.00
N137   N     0.78012   0.55051   0.24817   0.00000  Uiso   1.00
N138   N     0.59876   0.25074   0.54073   0.00000  Uiso   1.00
C139   C     0.88958   0.36695   0.90638   0.00000  Uiso   1.00
C140   C     0.86737   0.28229   0.94874   0.00000  Uiso   1.00
C141   C     0.89088   0.18324   0.96139   0.00000  Uiso   1.00
C142   C     0.86428   0.11718   0.00135   0.00000  Uiso   1.00
C143   C     0.83714   0.98083   0.06310   0.00000  Uiso   1.00
C144   C     0.84518   0.38813   0.86149   0.00000  Uiso   1.00
C145   C     0.85002   0.37809   0.80078   0.00000  Uiso   1.00
C146   C     0.80473   0.40114   0.76729   0.00000  Uiso   1.00
C147   C     0.74314   0.42920   0.69358   0.00000  Uiso   1.00
C148   C     0.89516   0.47073   0.94213   0.00000  Uiso   1.00
C149   C     0.94203   0.53016   0.94920   0.00000  Uiso   1.00
C150   C     0.93881   0.62278   0.98360   0.00000  Uiso   1.00
C151   C     0.95483   0.77909   0.03509   0.00000  Uiso   1.00
C152   C     0.80052   0.42577   0.95487   0.00000  Uiso   1.00
C153   C     0.81900   0.31423   0.97508   0.00000  Uiso   1.00
C154   C     0.79235   0.24831   0.01504   0.00000  Uiso   1.00
C155   C     0.81582   0.14918   0.02774   0.00000  Uiso   1.00
C156   C     0.79681   0.42008   0.88783   0.00000  Uiso   1.00
C157   C     0.75149   0.44316   0.85443   0.00000  Uiso   1.00
C158   C     0.75627   0.43315   0.79368   0.00000  Uiso   1.00
C159   C     0.84679   0.50268   0.96847   0.00000  Uiso   1.00
C160   C     0.84350   0.59523   0.00286   0.00000  Uiso   1.00
C161   C     0.89036   0.65479   0.00998   0.00000  Uiso   1.00
H162   H     0.92724   0.34208   0.88587   0.00000  Uiso   1.00
H163   H     0.92831   0.15854   0.94099   0.00000  Uiso   1.00
H164   H     0.88746   0.35337   0.78041   0.00000  Uiso   1.00
H165   H     0.97945   0.50542   0.92881   0.00000  Uiso   1.00
H166   H     0.90817   0.96912   0.01370   0.00000  Uiso   1.00
H167   H     0.82203   0.37997   0.67510   0.00000  Uiso   1.00
H168   H     0.01602   0.70059   0.98804   0.00000  Uiso   1.00
H169   H     0.76286   0.45064   0.97538   0.00000  Uiso   1.00
H170   H     0.75492   0.27305   0.03541   0.00000  Uiso   1.00
H171   H     0.71407   0.46788   0.87483   0.00000  Uiso   1.00
H172   H     0.80606   0.61993   0.02323   0.00000  Uiso   1.00
H173   H     0.76743   0.06206   0.09033   0.00000  Uiso   1.00
H174   H     0.68130   0.47292   0.75173   0.00000  Uiso   1.00
H175   H     0.87528   0.79353   0.06467   0.00000  Uiso   1.00
O176   O     0.83553   0.89680   0.08988   0.00000  Uiso   1.00
O177   O     0.72253   0.43584   0.64565   0.00000  Uiso   1.00
O178   O     0.97703   0.85648   0.05622   0.00000  Uiso   1.00
N179   N     0.87614   0.01538   0.02351   0.00000  Uiso   1.00
N180   N     0.79561   0.39948   0.70693   0.00000  Uiso   1.00
N181   N     0.97696   0.69925   0.99949   0.00000  Uiso   1.00
N182   N     0.80041   0.06539   0.06474   0.00000  Uiso   1.00
N183   N     0.71988   0.44949   0.74817   0.00000  Uiso   1.00
N184   N     0.90124   0.74926   0.04073   0.00000  Uiso   1.00
C185   C     0.61042   0.86695   0.90638   0.00000  Uiso   1.00
C186   C     0.63263   0.78229   0.94874   0.00000  Uiso   1.00
C187   C     0.60912   0.68324   0.96139   0.00000  Uiso   1.00
C188   C     0.63572   0.61718   0.00135   0.00000  Uiso   1.00
C189   C     0.66286   0.48083   0.06310   0.00000  Uiso   1.00
C190   C     0.65482   0.88813   0.86149   0.00000  Uiso   1.00
C191   C     0.64998   0.87809   0.80078   0.00000  Uiso   1.00
C192   C     0.69527   0.90114   0.76729   0.00000  Uiso   1.00
C193   C     0.75686   0.92920   0.69358   0.00000  Uiso   1.00
C194   C     0.60484   0.97073   0.94213   0.00000  Uiso   1.00
C195   C     0.55797   0.03016   0.94920   0.00000  Uiso   1.00
C196   C     0.56119   0.12278   0.98360   0.00000  Uiso   1.00
C197   C     0.54517   0.27909   0.03509   0.00000  Uiso   1.00
C198   C     0.69948   0.92577   0.95487   0.00000  Uiso   1.00
C199   C     0.68100   0.81423   0.97508   0.00000  Uiso   1.00
C200   C     0.70765   0.74831   0.01504   0.00000  Uiso   1.00
C201   C     0.68418   0.64918   0.02774   0.00000  Uiso   1.00
C202   C     0.70319   0.92008   0.88783   0.00000  Uiso   1.00
C203   C     0.74851   0.94316   0.85443   0.00000  Uiso   1.00
C204   C     0.74373   0.93315   0.79368   0.00000  Uiso   1.00
C205   C     0.65321   0.00268   0.96847   0.00000  Uiso   1.00
C206   C     0.65650   0.09523   0.00286   0.00000  Uiso   1.00
C207   C     0.60964   0.15479   0.00998   0.00000  Uiso   1.00
H208   H     0.57276   0.84208   0.88587   0.00000  Uiso   1.00
H209   H     0.57169   0.65854   0.94099   0.00000  Uiso   1.00
H210   H     0.61254   0.85337   0.78041   0.00000  Uiso   1.00
H211   H     0.52055   0.00542   0.92881   0.00000  Uiso   1.00
H212   H     0.59183   0.46912   0.01370   0.00000  Uiso   1.00
H213   H     0.67797   0.87997   0.67510   0.00000  Uiso   1.00
H214   H     0.48398   0.20059   0.98804   0.00000  Uiso   1.00
H215   H     0.73714   0.95064   0.97538   0.00000  Uiso   1.00
H216   H     0.74508   0.77305   0.03541   0.00000  Uiso   1.00
H217   H     0.78593   0.96788   0.87483   0.00000  Uiso   1.00
H218   H     0.69394   0.11993   0.02323   0.00000  Uiso   1.00
H219   H     0.73257   0.56206   0.09033   0.00000  Uiso   1.00
H220   H     0.81870   0.97292   0.75173   0.00000  Uiso   1.00
H221   H     0.62472   0.29353   0.06467   0.00000  Uiso   1.00
O222   O     0.66447   0.39680   0.08988   0.00000  Uiso   1.00
O223   O     0.77747   0.93584   0.64565   0.00000  Uiso   1.00
O224   O     0.52297   0.35648   0.05622   0.00000  Uiso   1.00
N225   N     0.62386   0.51538   0.02351   0.00000  Uiso   1.00
N226   N     0.70439   0.89948   0.70693   0.00000  Uiso   1.00
N227   N     0.52304   0.19925   0.99949   0.00000  Uiso   1.00
N228   N     0.69959   0.56539   0.06474   0.00000  Uiso   1.00
N229   N     0.78012   0.94949   0.74817   0.00000  Uiso   1.00
N230   N     0.59876   0.24926   0.04073   0.00000  Uiso   1.00
C231   C     0.88958   0.13305   0.40638   0.00000  Uiso   1.00
C232   C     0.86737   0.21771   0.44874   0.00000  Uiso   1.00
C233   C     0.89088   0.31676   0.46139   0.00000  Uiso   1.00
C234   C     0.86428   0.38282   0.50135   0.00000  Uiso   1.00
C235   C     0.83714   0.51917   0.56310   0.00000  Uiso   1.00
C236   C     0.84518   0.11187   0.36149   0.00000  Uiso   1.00
C237   C     0.85002   0.12191   0.30078   0.00000  Uiso   1.00
C238   C     0.80473   0.09886   0.26729   0.00000  Uiso   1.00
C239   C     0.74314   0.07080   0.19358   0.00000  Uiso   1.00
C240   C     0.89516   0.02927   0.44213   0.00000  Uiso   1.00
C241   C     0.94203   0.96984   0.44920   0.00000  Uiso   1.00
C242   C     0.93881   0.87722   0.48360   0.00000  Uiso   1.00
C243   C     0.95483   0.72091   0.53509   0.00000  Uiso   1.00
C244   C     0.80052   0.07423   0.45487   0.00000  Uiso   1.00
C245   C     0.81900   0.18577   0.47508   0.00000  Uiso   1.00
C246   C     0.79235   0.25169   0.51504   0.00000  Uiso   1.00
C247   C     0.81582   0.35082   0.52774   0.00000  Uiso   1.00
C248   C     0.79681   0.07992   0.38783   0.00000  Uiso   1.00
C249   C     0.75149   0.05684   0.35443   0.00000  Uiso   1.00
C250   C     0.75627   0.06685   0.29368   0.00000  Uiso   1.00
C251   C     0.84679   0.99732   0.46847   0.00000  Uiso   1.00
C252   C     0.84350   0.90477   0.50286   0.00000  Uiso   1.00
C253   C     0.89036   0.84521   0.50998   0.00000  Uiso   1.00
H254   H     0.92724   0.15792   0.38587   0.00000  Uiso   1.00
H255   H     0.92831   0.34146   0.44099   0.00000  Uiso   1.00
H256   H     0.88746   0.14663   0.28041   0.00000  Uiso   1.00
H257   H     0.97945   0.99458   0.42881   0.00000  Uiso   1.00
H258   H     0.90817   0.53088   0.51370   0.00000  Uiso   1.00
H259   H     0.82203   0.12003   0.17510   0.00000  Uiso   1.00
H260   H     0.01602   0.79941   0.48804   0.00000  Uiso   1.00
H261   H     0.76286   0.04936   0.47538   0.00000  Uiso   1.00
H262   H     0.75492   0.22695   0.53541   0.00000  Uiso   1.00
H263   H     0.71407   0.03212   0.37483   0.00000  Uiso   1.00
H264   H     0.80606   0.88007   0.52323   0.00000  Uiso   1.00
H265   H     0.76743   0.43794   0.59033   0.00000  Uiso   1.00
H266   H     0.68130   0.02708   0.25173   0.00000  Uiso   1.00
H267   H     0.87528   0.70647   0.56467   0.00000  Uiso   1.00
O268   O     0.83553   0.60320   0.58988   0.00000  Uiso   1.00
O269   O     0.72253   0.06416   0.14565   0.00000  Uiso   1.00
O270   O     0.97703   0.64352   0.55622   0.00000  Uiso   1.00
N271   N     0.87614   0.48462   0.52351   0.00000  Uiso   1.00
N272   N     0.79561   0.10052   0.20693   0.00000  Uiso   1.00
N273   N     0.97696   0.80075   0.49949   0.00000  Uiso   1.00
N274   N     0.80041   0.43461   0.56474   0.00000  Uiso   1.00
N275   N     0.71988   0.05051   0.24817   0.00000  Uiso   1.00
N276   N     0.90124   0.75074   0.54073   0.00000  Uiso   1.00
C277   C     0.38958   0.36695   0.59362   0.00000  Uiso   1.00
C278   C     0.36737   0.28229   0.55126   0.00000  Uiso   1.00
C279   C     0.39088   0.18324   0.53861   0.00000  Uiso   1.00
C280   C     0.36428   0.11718   0.49865   0.00000  Uiso   1.00
C281   C     0.33714   0.98083   0.43690   0.00000  Uiso   1.00
C282   C     0.34518   0.38813   0.63851   0.00000  Uiso   1.00
C283   C     0.35002   0.37809   0.69922   0.00000  Uiso   1.00
C284   C     0.30473   0.40114   0.73271   0.00000  Uiso   1.00
C285   C     0.24314   0.42920   0.80642   0.00000  Uiso   1.00
C286   C     0.39516   0.47073   0.55787   0.00000  Uiso   1.00
C287   C     0.44203   0.53016   0.55080   0.00000  Uiso   1.00
C288   C     0.43881   0.62278   0.51640   0.00000  Uiso   1.00
C289   C     0.45483   0.77909   0.46491   0.00000  Uiso   1.00
C290   C     0.30052   0.42577   0.54513   0.00000  Uiso   1.00
C291   C     0.31900   0.31423   0.52492   0.00000  Uiso   1.00
C292   C     0.29235   0.24831   0.48496   0.00000  Uiso   1.00
C293   C     0.31582   0.14918   0.47226   0.00000  Uiso   1.00
C294   C     0.29681   0.42008   0.61217   0.00000  Uiso   1.00
C295   C     0.25149   0.44316   0.64557   0.00000  Uiso   1.00
C296   C     0.25627   0.43315   0.70632   0.00000  Uiso   1.00
C297   C     0.34679   0.50268   0.53153   0.00000  Uiso   1.00
C298   C     0.34350   0.59523   0.49714   0.00000  Uiso   1.00
C299   C     0.39036   0.65479   0.49002   0.00000  Uiso   1.00
H300   H     0.42724   0.34208   0.61413   0.00000  Uiso   1.00
H301   H     0.42831   0.15854   0.55901   0.00000  Uiso   1.00
H302   H     0.38746   0.35337   0.71959   0.00000  Uiso   1.00
H303   H     0.47945   0.50542   0.57119   0.00000  Uiso   1.00
H304   H     0.40817   0.96912   0.48630   0.00000  Uiso   1.00
H305   H     0.32203   0.37997   0.82490   0.00000  Uiso   1.00
H306   H     0.51602   0.70059   0.51196   0.00000  Uiso   1.00
H307   H     0.26286   0.45064   0.52462   0.00000  Uiso   1.00
H308   H     0.25492   0.27305   0.46459   0.00000  Uiso   1.00
H309   H     0.21407   0.46788   0.62517   0.00000  Uiso   1.00
H310   H     0.30606   0.61993   0.47677   0.00000  Uiso   1.00
H311   H     0.26743   0.06206   0.40967   0.00000  Uiso   1.00
H312   H     0.18130   0.47292   0.74827   0.00000  Uiso   1.00
H313   H     0.37528   0.79353   0.43533   0.00000  Uiso   1.00
O314   O     0.33553   0.89680   0.41012   0.00000  Uiso   1.00
O315   O     0.22253   0.43584   0.85435   0.00000  Uiso   1.00
O316   O     0.47703   0.85648   0.44378   0.00000  Uiso   1.00
N317   N     0.37614   0.01538   0.47649   0.00000  Uiso   1.00
N318   N     0.29561   0.39948   0.79307   0.00000  Uiso   1.00
N319   N     0.47696   0.69925   0.50051   0.00000  Uiso   1.00
N320   N     0.30041   0.06539   0.43526   0.00000  Uiso   1.00
N321   N     0.21988   0.44949   0.75183   0.00000  Uiso   1.00
N322   N     0.40124   0.74926   0.45927   0.00000  Uiso   1.00
C323   C     0.11042   0.63305   0.09362   0.00000  Uiso   1.00
C324   C     0.13263   0.71771   0.05126   0.00000  Uiso   1.00
C325   C     0.10912   0.81676   0.03861   0.00000  Uiso   1.00
C326   C     0.13572   0.88282   0.99865   0.00000  Uiso   1.00
C327   C     0.16286   0.01917   0.93690   0.00000  Uiso   1.00
C328   C     0.15482   0.61187   0.13851   0.00000  Uiso   1.00
C329   C     0.14998   0.62191   0.19922   0.00000  Uiso   1.00
C330   C     0.19527   0.59886   0.23271   0.00000  Uiso   1.00
C331   C     0.25686   0.57080   0.30642   0.00000  Uiso   1.00
C332   C     0.10484   0.52927   0.05787   0.00000  Uiso   1.00
C333   C     0.05797   0.46984   0.05080   0.00000  Uiso   1.00
C334   C     0.06119   0.37722   0.01640   0.00000  Uiso   1.00
C335   C     0.04517   0.22091   0.96491   0.00000  Uiso   1.00
C336   C     0.19948   0.57423   0.04513   0.00000  Uiso   1.00
C337   C     0.18100   0.68577   0.02492   0.00000  Uiso   1.00
C338   C     0.20765   0.75169   0.98496   0.00000  Uiso   1.00
C339   C     0.18418   0.85082   0.97226   0.00000  Uiso   1.00
C340   C     0.20319   0.57992   0.11217   0.00000  Uiso   1.00
C341   C     0.24851   0.55684   0.14557   0.00000  Uiso   1.00
C342   C     0.24373   0.56685   0.20632   0.00000  Uiso   1.00
C343   C     0.15321   0.49732   0.03153   0.00000  Uiso   1.00
C344   C     0.15650   0.40477   0.99714   0.00000  Uiso   1.00
C345   C     0.10964   0.34521   0.99002   0.00000  Uiso   1.00
H346   H     0.07276   0.65792   0.11413   0.00000  Uiso   1.00
H347   H     0.07169   0.84146   0.05901   0.00000  Uiso   1.00
H348   H     0.11254   0.64663   0.21959   0.00000  Uiso   1.00
H349   H     0.02055   0.49458   0.07119   0.00000  Uiso   1.00
H350   H     0.09183   0.03088   0.98630   0.00000  Uiso   1.00
H351   H     0.17797   0.62003   0.32490   0.00000  Uiso   1.00
H352   H     0.98398   0.29941   0.01196   0.00000  Uiso   1.00
H353   H     0.23714   0.54936   0.02462   0.00000  Uiso   1.00
H354   H     0.24508   0.72695   0.96459   0.00000  Uiso   1.00
H355   H     0.28593   0.53212   0.12517   0.00000  Uiso   1.00
H356   H     0.19394   0.38007   0.97677   0.00000  Uiso   1.00
H357   H     0.23257   0.93794   0.90967   0.00000  Uiso   1.00
H358   H     0.31870   0.52708   0.24827   0.00000  Uiso   1.00
H359   H     0.12472   0.20647   0.93533   0.00000  Uiso   1.00
O360   O     0.16447   0.10320   0.91012   0.00000  Uiso   1.00
O361   O     0.27747   0.56416   0.35435   0.00000  Uiso   1.00
O362   O     0.02297   0.14352   0.94378   0.00000  Uiso   1.00
N363   N     0.12386   0.98462   0.97649   0.00000  Uiso   1.00
N364   N     0.20439   0.60052   0.29307   0.00000  Uiso   1.00
N365   N     0.02304   0.30075   0.00051   0.00000  Uiso   1.00
N366   N     0.19959   0.93461   0.93526   0.00000  Uiso   1.00
N367   N     0.28012   0.55051   0.25183   0.00000  Uiso   1.00
N368   N     0.09876   0.25074   0.95927   0.00000  Uiso   1.00
