data_job_00299
_audit_creation_date              2018-12-19
_audit_creation_method            'Materials Studio'
_symmetry_space_group_name_H-M    'P1'
_symmetry_Int_Tables_number       1
_symmetry_cell_setting            triclinic
loop_
_symmetry_equiv_pos_as_xyz
  x,y,z
_cell_length_a                    9.6816
_cell_length_b                    11.7376
_cell_length_c                    12.1574
_cell_angle_alpha                 105.5570
_cell_angle_beta                  111.7725
_cell_angle_gamma                 71.5890
loop_
_atom_site_label
_atom_site_type_symbol
_atom_site_fract_x
_atom_site_fract_y
_atom_site_fract_z
_atom_site_U_iso_or_equiv
_atom_site_adp_type
_atom_site_occupancy
C1     C     0.12065   0.22609   0.14835   0.00000  Uiso   1.00
C2     C     0.15079   0.15547   0.24681   0.00000  Uiso   1.00
C3     C     0.09045   0.05805   0.23330   0.00000  Uiso   1.00
C4     C     0.13186   0.00575   0.33425   0.00000  Uiso   1.00
C5     C     0.16366   0.88951   0.47036   0.00000  Uiso   1.00
C6     C     0.05755   0.35927   0.19592   0.00000  Uiso   1.00
C7     C     0.91881   0.43320   0.13960   0.00000  Uiso   1.00
C8     C     0.88175   0.55246   0.19771   0.00000  Uiso   1.00
C9     C     0.76883   0.75264   0.25476   0.00000  Uiso   1.00
C10    C     0.27755   0.21859   0.14165   0.00000  Uiso   1.00
C11    C     0.32378   0.17427   0.03970   0.00000  Uiso   1.00
C12    C     0.47193   0.17512   0.05211   0.00000  Uiso   1.00
C13    C     0.70060   0.15687   0.02490   0.00000  Uiso   1.00
C14    C     0.30151   0.30644   0.35167   0.00000  Uiso   1.00
C15    C     0.24903   0.19913   0.35725   0.00000  Uiso   1.00
C16    C     0.29055   0.14695   0.45825   0.00000  Uiso   1.00
C17    C     0.23028   0.04947   0.44489   0.00000  Uiso   1.00
C18    C     0.15578   0.40292   0.30636   0.00000  Uiso   1.00
C19    C     0.11892   0.52210   0.36456   0.00000  Uiso   1.00
C20    C     0.98016   0.59619   0.30835   0.00000  Uiso   1.00
C21    C     0.37579   0.26224   0.25209   0.00000  Uiso   1.00
C22    C     0.52389   0.26317   0.26466   0.00000  Uiso   1.00
C23    C     0.57035   0.21885   0.16274   0.00000  Uiso   1.00
H24    H     0.04416   0.19212   0.06237   0.00000  Uiso   1.00
H25    H     0.01441   0.02431   0.14782   0.00000  Uiso   1.00
H26    H     0.84282   0.39940   0.05414   0.00000  Uiso   1.00
H27    H     0.24773   0.14051   0.95425   0.00000  Uiso   1.00
H28    H     0.02471   0.85754   0.29127   0.00000  Uiso   1.00
H29    H     0.66292   0.64846   0.09371   0.00000  Uiso   1.00
H30    H     0.51675   0.10253   0.88308   0.00000  Uiso   1.00
H31    H     0.37800   0.34043   0.43766   0.00000  Uiso   1.00
H32    H     0.36657   0.18075   0.54370   0.00000  Uiso   1.00
H33    H     0.19497   0.55585   0.45002   0.00000  Uiso   1.00
H34    H     0.59988   0.29695   0.35013   0.00000  Uiso   1.00
H35    H     0.31053   0.98452   0.61259   0.00000  Uiso   1.00
H36    H     0.94873   0.77544   0.41502   0.00000  Uiso   1.00
H37    H     0.80256   0.22950   0.20440   0.00000  Uiso   1.00
O38    O     0.15404   0.81334   0.51493   0.00000  Uiso   1.00
O39    O     0.67939   0.85100   0.25572   0.00000  Uiso   1.00
O40    O     0.79960   0.13474   0.97939   0.00000  Uiso   1.00
N41    N     0.09357   0.90932   0.35233   0.00000  Uiso   1.00
N42    N     0.75530   0.64878   0.16764   0.00000  Uiso   1.00
N43    N     0.55355   0.13841   0.97071   0.00000  Uiso   1.00
N44    N     0.24737   0.97765   0.52523   0.00000  Uiso   1.00
N45    N     0.90910   0.71710   0.34053   0.00000  Uiso   1.00
N46    N     0.70735   0.20673   0.14360   0.00000  Uiso   1.00
C47    C     0.87935   0.77391   0.85165   0.00000  Uiso   1.00
C48    C     0.84921   0.84453   0.75319   0.00000  Uiso   1.00
C49    C     0.90955   0.94195   0.76670   0.00000  Uiso   1.00
C50    C     0.86814   0.99425   0.66575   0.00000  Uiso   1.00
C51    C     0.83634   0.11049   0.52964   0.00000  Uiso   1.00
C52    C     0.94245   0.64073   0.80408   0.00000  Uiso   1.00
C53    C     0.08119   0.56680   0.86040   0.00000  Uiso   1.00
C54    C     0.11825   0.44754   0.80229   0.00000  Uiso   1.00
C55    C     0.23117   0.24736   0.74524   0.00000  Uiso   1.00
C56    C     0.72245   0.78141   0.85835   0.00000  Uiso   1.00
C57    C     0.67622   0.82573   0.96030   0.00000  Uiso   1.00
C58    C     0.52807   0.82488   0.94789   0.00000  Uiso   1.00
C59    C     0.29940   0.84313   0.97510   0.00000  Uiso   1.00
C60    C     0.69849   0.69356   0.64833   0.00000  Uiso   1.00
C61    C     0.75097   0.80087   0.64275   0.00000  Uiso   1.00
C62    C     0.70945   0.85305   0.54175   0.00000  Uiso   1.00
C63    C     0.76972   0.95053   0.55511   0.00000  Uiso   1.00
C64    C     0.84422   0.59708   0.69364   0.00000  Uiso   1.00
C65    C     0.88108   0.47790   0.63544   0.00000  Uiso   1.00
C66    C     0.01984   0.40381   0.69165   0.00000  Uiso   1.00
C67    C     0.62421   0.73776   0.74791   0.00000  Uiso   1.00
C68    C     0.47611   0.73683   0.73534   0.00000  Uiso   1.00
C69    C     0.42965   0.78115   0.83726   0.00000  Uiso   1.00
H70    H     0.95584   0.80788   0.93763   0.00000  Uiso   1.00
H71    H     0.98559   0.97569   0.85218   0.00000  Uiso   1.00
H72    H     0.15718   0.60060   0.94586   0.00000  Uiso   1.00
H73    H     0.75227   0.85949   0.04575   0.00000  Uiso   1.00
H74    H     0.97529   0.14246   0.70873   0.00000  Uiso   1.00
H75    H     0.33708   0.35154   0.90629   0.00000  Uiso   1.00
H76    H     0.48325   0.89747   0.11692   0.00000  Uiso   1.00
H77    H     0.62200   0.65957   0.56234   0.00000  Uiso   1.00
H78    H     0.63343   0.81925   0.45630   0.00000  Uiso   1.00
H79    H     0.80503   0.44415   0.54998   0.00000  Uiso   1.00
H80    H     0.40012   0.70305   0.64987   0.00000  Uiso   1.00
H81    H     0.68947   0.01548   0.38741   0.00000  Uiso   1.00
H82    H     0.05127   0.22456   0.58498   0.00000  Uiso   1.00
H83    H     0.19744   0.77050   0.79560   0.00000  Uiso   1.00
O84    O     0.84596   0.18666   0.48507   0.00000  Uiso   1.00
O85    O     0.32061   0.14900   0.74428   0.00000  Uiso   1.00
O86    O     0.20040   0.86526   0.02061   0.00000  Uiso   1.00
N87    N     0.90643   0.09068   0.64767   0.00000  Uiso   1.00
N88    N     0.24470   0.35122   0.83236   0.00000  Uiso   1.00
N89    N     0.44645   0.86159   0.02929   0.00000  Uiso   1.00
N90    N     0.75263   0.02235   0.47477   0.00000  Uiso   1.00
N91    N     0.09090   0.28290   0.65947   0.00000  Uiso   1.00
N92    N     0.29265   0.79327   0.85640   0.00000  Uiso   1.00
