data_job_06558
_audit_creation_date              2018-12-19
_audit_creation_method            'Materials Studio'
_symmetry_space_group_name_H-M    'P1'
_symmetry_Int_Tables_number       1
_symmetry_cell_setting            triclinic
loop_
_symmetry_equiv_pos_as_xyz
  x,y,z
_cell_length_a                    20.4800
_cell_length_b                    19.1170
_cell_length_c                    20.1264
_cell_angle_alpha                 82.0431
_cell_angle_beta                  90.2235
_cell_angle_gamma                 113.0880
loop_
_atom_site_label
_atom_site_type_symbol
_atom_site_fract_x
_atom_site_fract_y
_atom_site_fract_z
_atom_site_U_iso_or_equiv
_atom_site_adp_type
_atom_site_occupancy
C1     C     0.83374   0.15273   0.18227   0.00000  Uiso   1.00
C2     C     0.79386   0.09897   0.24539   0.00000  Uiso   1.00
C3     C     0.72590   0.08654   0.26853   0.00000  Uiso   1.00
C4     C     0.69878   0.03515   0.32728   0.00000  Uiso   1.00
C5     C     0.63086   0.95741   0.42009   0.00000  Uiso   1.00
C6     C     0.90351   0.20842   0.20519   0.00000  Uiso   1.00
C7     C     0.92773   0.28802   0.19453   0.00000  Uiso   1.00
C8     C     0.99292   0.32876   0.21944   0.00000  Uiso   1.00
C9     C     0.09525   0.42096   0.24980   0.00000  Uiso   1.00
C10    C     0.85369   0.10340   0.13954   0.00000  Uiso   1.00
C11    C     0.83605   0.09471   0.07367   0.00000  Uiso   1.00
C12    C     0.85931   0.04705   0.04330   0.00000  Uiso   1.00
C13    C     0.88429   0.97618   0.97171   0.00000  Uiso   1.00
C14    C     0.90645   0.08355   0.24546   0.00000  Uiso   1.00
C15    C     0.83336   0.06139   0.27971   0.00000  Uiso   1.00
C16    C     0.80633   0.01000   0.33844   0.00000  Uiso   1.00
C17    C     0.73834   0.99750   0.36167   0.00000  Uiso   1.00
C18    C     0.94300   0.17085   0.23952   0.00000  Uiso   1.00
C19    C     0.00817   0.21148   0.26445   0.00000  Uiso   1.00
C20    C     0.03248   0.29112   0.25383   0.00000  Uiso   1.00
C21    C     0.89318   0.06582   0.17386   0.00000  Uiso   1.00
C22    C     0.91648   0.01817   0.14358   0.00000  Uiso   1.00
C23    C     0.89887   0.00941   0.07768   0.00000  Uiso   1.00
H24    H     0.80301   0.18199   0.15555   0.00000  Uiso   1.00
H25    H     0.69536   0.11564   0.24196   0.00000  Uiso   1.00
H26    H     0.89716   0.31708   0.16796   0.00000  Uiso   1.00
H27    H     0.80549   0.12380   0.04712   0.00000  Uiso   1.00
H28    H     0.59344   0.02553   0.35290   0.00000  Uiso   1.00
H29    H     0.01897   0.45029   0.19686   0.00000  Uiso   1.00
H30    H     0.82565   0.04272   0.94204   0.00000  Uiso   1.00
H31    H     0.93719   0.05429   0.27219   0.00000  Uiso   1.00
H32    H     0.83691   0.98093   0.36500   0.00000  Uiso   1.00
H33    H     0.03871   0.18238   0.29100   0.00000  Uiso   1.00
H34    H     0.94704   0.98910   0.17016   0.00000  Uiso   1.00
H35    H     0.70832   0.91620   0.45277   0.00000  Uiso   1.00
H36    H     0.13386   0.34096   0.29673   0.00000  Uiso   1.00
H37    H     0.94054   0.93338   0.04191   0.00000  Uiso   1.00
O38    O     0.58250   0.92493   0.46180   0.00000  Uiso   1.00
O39    O     0.14078   0.48219   0.25707   0.00000  Uiso   1.00
O40    O     0.88715   0.94747   0.92275   0.00000  Uiso   1.00
N41    N     0.63423   0.00985   0.36366   0.00000  Uiso   1.00
N42    N     0.03207   0.40698   0.21778   0.00000  Uiso   1.00
N43    N     0.85135   0.02595   0.97954   0.00000  Uiso   1.00
N44    N     0.69605   0.95102   0.41740   0.00000  Uiso   1.00
N45    N     0.09389   0.34814   0.27152   0.00000  Uiso   1.00
N46    N     0.91317   0.96712   0.03328   0.00000  Uiso   1.00
C47    C     0.37833   0.80334   0.92371   0.00000  Uiso   1.00
C48    C     0.44447   0.80039   0.89186   0.00000  Uiso   1.00
C49    C     0.46318   0.73749   0.89990   0.00000  Uiso   1.00
C50    C     0.52578   0.74634   0.86657   0.00000  Uiso   1.00
C51    C     0.62206   0.73123   0.82323   0.00000  Uiso   1.00
C52    C     0.40491   0.87094   0.96315   0.00000  Uiso   1.00
C53    C     0.39035   0.86736   0.03112   0.00000  Uiso   1.00
C54    C     0.41966   0.93560   0.05780   0.00000  Uiso   1.00
C55    C     0.45448   0.03003   0.12511   0.00000  Uiso   1.00
C56    C     0.33900   0.82612   0.86576   0.00000  Uiso   1.00
C57    C     0.26902   0.78485   0.85186   0.00000  Uiso   1.00
C58    C     0.24282   0.81536   0.79656   0.00000  Uiso   1.00
C59    C     0.17531   0.84019   0.71267   0.00000  Uiso   1.00
C60    C     0.45624   0.93091   0.85023   0.00000  Uiso   1.00
C61    C     0.48679   0.86968   0.85196   0.00000  Uiso   1.00
C62    C     0.54938   0.87862   0.81861   0.00000  Uiso   1.00
C63    C     0.56818   0.81575   0.82659   0.00000  Uiso   1.00
C64    C     0.44723   0.94023   0.92324   0.00000  Uiso   1.00
C65    C     0.47655   0.00849   0.94983   0.00000  Uiso   1.00
C66    C     0.46205   0.00501   0.01782   0.00000  Uiso   1.00
C67    C     0.38132   0.89540   0.82586   0.00000  Uiso   1.00
C68    C     0.35522   0.92598   0.77057   0.00000  Uiso   1.00
C69    C     0.28521   0.88478   0.75658   0.00000  Uiso   1.00
H70    H     0.34538   0.74941   0.95478   0.00000  Uiso   1.00
H71    H     0.43042   0.68389   0.93079   0.00000  Uiso   1.00
H72    H     0.35760   0.81374   0.06198   0.00000  Uiso   1.00
H73    H     0.23629   0.73124   0.88275   0.00000  Uiso   1.00
H74    H     0.54337   0.64181   0.88662   0.00000  Uiso   1.00
H75    H     0.38981   0.91561   0.16324   0.00000  Uiso   1.00
H76    H     0.13399   0.74165   0.78530   0.00000  Uiso   1.00
H77    H     0.48919   0.98485   0.81916   0.00000  Uiso   1.00
H78    H     0.58212   0.93225   0.78773   0.00000  Uiso   1.00
H79    H     0.50930   0.06210   0.91893   0.00000  Uiso   1.00
H80    H     0.38798   0.97960   0.73970   0.00000  Uiso   1.00
H81    H     0.66650   0.84339   0.77051   0.00000  Uiso   1.00
H82    H     0.51293   0.11719   0.04713   0.00000  Uiso   1.00
H83    H     0.25712   0.94323   0.66919   0.00000  Uiso   1.00
O84    O     0.66348   0.70376   0.81035   0.00000  Uiso   1.00
O85    O     0.46200   0.06297   0.17327   0.00000  Uiso   1.00
O86    O     0.12638   0.83474   0.67742   0.00000  Uiso   1.00
N87    N     0.55959   0.69647   0.86359   0.00000  Uiso   1.00
N88    N     0.41603   0.95245   0.12222   0.00000  Uiso   1.00
N89    N     0.17685   0.78982   0.76889   0.00000  Uiso   1.00
N90    N     0.62584   0.80494   0.80111   0.00000  Uiso   1.00
N91    N     0.48228   0.06092   0.05975   0.00000  Uiso   1.00
N92    N     0.24311   0.89829   0.70641   0.00000  Uiso   1.00
C93    C     0.04365   0.29625   0.63150   0.00000  Uiso   1.00
C94    C     0.03265   0.37033   0.60980   0.00000  Uiso   1.00
C95    C     0.04317   0.40983   0.54487   0.00000  Uiso   1.00
C96    C     0.03021   0.47648   0.53536   0.00000  Uiso   1.00
C97    C     0.01661   0.58755   0.49354   0.00000  Uiso   1.00
C98    C     0.09653   0.31318   0.68666   0.00000  Uiso   1.00
C99    C     0.16075   0.30462   0.68636   0.00000  Uiso   1.00
C100   C     0.20156   0.32315   0.74155   0.00000  Uiso   1.00
C101   C     0.28711   0.34544   0.81908   0.00000  Uiso   1.00
C102   C     0.97319   0.23821   0.66558   0.00000  Uiso   1.00
C103   C     0.93372   0.16661   0.64756   0.00000  Uiso   1.00
C104   C     0.87070   0.12201   0.68502   0.00000  Uiso   1.00
C105   C     0.76474   0.02790   0.72982   0.00000  Uiso   1.00
C106   C     0.00192   0.34436   0.73008   0.00000  Uiso   1.00
C107   C     0.00998   0.39646   0.66335   0.00000  Uiso   1.00
C108   C     0.99700   0.46307   0.65394   0.00000  Uiso   1.00
C109   C     0.00750   0.50266   0.58900   0.00000  Uiso   1.00
C110   C     0.07386   0.33931   0.74021   0.00000  Uiso   1.00
C111   C     0.11459   0.35785   0.79542   0.00000  Uiso   1.00
C112   C     0.17886   0.34933   0.79520   0.00000  Uiso   1.00
C113   C     0.95052   0.26434   0.71913   0.00000  Uiso   1.00
C114   C     0.88755   0.21984   0.75663   0.00000  Uiso   1.00
C115   C     0.84799   0.14819   0.73867   0.00000  Uiso   1.00
H116   H     0.06130   0.27590   0.58981   0.00000  Uiso   1.00
H117   H     0.06072   0.38959   0.50345   0.00000  Uiso   1.00
H118   H     0.17827   0.28439   0.64492   0.00000  Uiso   1.00
H119   H     0.95127   0.14640   0.60613   0.00000  Uiso   1.00
H120   H     0.05010   0.52718   0.43131   0.00000  Uiso   1.00
H121   H     0.29797   0.30533   0.72961   0.00000  Uiso   1.00
H122   H     0.81930   0.01435   0.64782   0.00000  Uiso   1.00
H123   H     0.98428   0.36471   0.77176   0.00000  Uiso   1.00
H124   H     0.97946   0.48328   0.69538   0.00000  Uiso   1.00
H125   H     0.09703   0.37807   0.83685   0.00000  Uiso   1.00
H126   H     0.87003   0.24008   0.79806   0.00000  Uiso   1.00
H127   H     0.98416   0.60322   0.58709   0.00000  Uiso   1.00
H128   H     0.23203   0.38136   0.88540   0.00000  Uiso   1.00
H129   H     0.75336   0.09039   0.80360   0.00000  Uiso   1.00
O130   O     0.01538   0.64161   0.45568   0.00000  Uiso   1.00
O131   O     0.34056   0.35053   0.84704   0.00000  Uiso   1.00
O132   O     0.71256   0.96878   0.73973   0.00000  Uiso   1.00
N133   N     0.03523   0.52880   0.47846   0.00000  Uiso   1.00
N134   N     0.26697   0.32139   0.75735   0.00000  Uiso   1.00
N135   N     0.81947   0.04934   0.68089   0.00000  Uiso   1.00
N136   N     0.99974   0.56971   0.56228   0.00000  Uiso   1.00
N137   N     0.23149   0.36230   0.84117   0.00000  Uiso   1.00
N138   N     0.78398   0.09026   0.76471   0.00000  Uiso   1.00
C139   C     0.26697   0.88736   0.40627   0.00000  Uiso   1.00
C140   C     0.27029   0.96056   0.36242   0.00000  Uiso   1.00
C141   C     0.21563   0.98633   0.35624   0.00000  Uiso   1.00
C142   C     0.22920   0.05466   0.31358   0.00000  Uiso   1.00
C143   C     0.22435   0.16209   0.25086   0.00000  Uiso   1.00
C144   C     0.32839   0.91252   0.45265   0.00000  Uiso   1.00
C145   C     0.32258   0.89789   0.52233   0.00000  Uiso   1.00
C146   C     0.38506   0.92578   0.55562   0.00000  Uiso   1.00
C147   C     0.47041   0.95858   0.63299   0.00000  Uiso   1.00
C148   C     0.28536   0.84078   0.35935   0.00000  Uiso   1.00
C149   C     0.24338   0.76582   0.35061   0.00000  Uiso   1.00
C150   C     0.26965   0.73330   0.30537   0.00000  Uiso   1.00
C151   C     0.28819   0.65471   0.23789   0.00000  Uiso   1.00
C152   C     0.38828   0.96289   0.34148   0.00000  Uiso   1.00
C153   C     0.33618   0.00158   0.32723   0.00000  Uiso   1.00
C154   C     0.34984   0.06989   0.28456   0.00000  Uiso   1.00
C155   C     0.29521   0.09576   0.27832   0.00000  Uiso   1.00
C156   C     0.39428   0.95354   0.41746   0.00000  Uiso   1.00
C157   C     0.45679   0.98146   0.45065   0.00000  Uiso   1.00
C158   C     0.45107   0.96688   0.52037   0.00000  Uiso   1.00
C159   C     0.35125   0.88180   0.32416   0.00000  Uiso   1.00
C160   C     0.37759   0.84939   0.27893   0.00000  Uiso   1.00
C161   C     0.33565   0.77440   0.27012   0.00000  Uiso   1.00
H162   H     0.21568   0.85542   0.43367   0.00000  Uiso   1.00
H163   H     0.16465   0.95456   0.38349   0.00000  Uiso   1.00
H164   H     0.27158   0.86613   0.54955   0.00000  Uiso   1.00
H165   H     0.19240   0.73409   0.37785   0.00000  Uiso   1.00
H166   H     0.13714   0.08259   0.31235   0.00000  Uiso   1.00
H167   H     0.36262   0.89610   0.66250   0.00000  Uiso   1.00
H168   H     0.19564   0.61766   0.30045   0.00000  Uiso   1.00
H169   H     0.43958   0.99484   0.31408   0.00000  Uiso   1.00
H170   H     0.40083   0.10163   0.25733   0.00000  Uiso   1.00
H171   H     0.50776   0.01320   0.42340   0.00000  Uiso   1.00
H172   H     0.42858   0.88115   0.25170   0.00000  Uiso   1.00
H173   H     0.32884   0.20195   0.20996   0.00000  Uiso   1.00
H174   H     0.55431   0.01546   0.56012   0.00000  Uiso   1.00
H175   H     0.38733   0.73702   0.19806   0.00000  Uiso   1.00
O176   O     0.20347   0.21002   0.22600   0.00000  Uiso   1.00
O177   O     0.49928   0.96534   0.68539   0.00000  Uiso   1.00
O178   O     0.28021   0.60004   0.21038   0.00000  Uiso   1.00
N179   N     0.18757   0.09602   0.29603   0.00000  Uiso   1.00
N180   N     0.39837   0.92168   0.62341   0.00000  Uiso   1.00
N181   N     0.24227   0.66134   0.28493   0.00000  Uiso   1.00
N182   N     0.29072   0.16024   0.24094   0.00000  Uiso   1.00
N183   N     0.50152   0.98590   0.56831   0.00000  Uiso   1.00
N184   N     0.34542   0.72557   0.22983   0.00000  Uiso   1.00
C185   C     0.74558   0.59428   0.06122   0.00000  Uiso   1.00
C186   C     0.80544   0.57017   0.04405   0.00000  Uiso   1.00
C187   C     0.83838   0.58291   0.98082   0.00000  Uiso   1.00
C188   C     0.89204   0.55643   0.97552   0.00000  Uiso   1.00
C189   C     0.98198   0.52478   0.94036   0.00000  Uiso   1.00
C190   C     0.77189   0.64389   0.11672   0.00000  Uiso   1.00
C191   C     0.77662   0.71861   0.11460   0.00000  Uiso   1.00
C192   C     0.80203   0.75418   0.17048   0.00000  Uiso   1.00
C193   C     0.83983   0.83696   0.24816   0.00000  Uiso   1.00
C194   C     0.68458   0.52105   0.09348   0.00000  Uiso   1.00
C195   C     0.61588   0.49249   0.07182   0.00000  Uiso   1.00
C196   C     0.56778   0.42465   0.10814   0.00000  Uiso   1.00
C197   C     0.47001   0.31671   0.14973   0.00000  Uiso   1.00
C198   C     0.78230   0.52460   0.16424   0.00000  Uiso   1.00
C199   C     0.82538   0.53232   0.10001   0.00000  Uiso   1.00
C200   C     0.87901   0.50581   0.09480   0.00000  Uiso   1.00
C201   C     0.91202   0.51851   0.03158   0.00000  Uiso   1.00
C202   C     0.79183   0.60605   0.17268   0.00000  Uiso   1.00
C203   C     0.81724   0.64151   0.22857   0.00000  Uiso   1.00
C204   C     0.82201   0.71627   0.22653   0.00000  Uiso   1.00
C205   C     0.70452   0.48320   0.14943   0.00000  Uiso   1.00
C206   C     0.65651   0.41540   0.18580   0.00000  Uiso   1.00
C207   C     0.58776   0.38674   0.16420   0.00000  Uiso   1.00
H208   H     0.73005   0.62375   0.01766   0.00000  Uiso   1.00
H209   H     0.82294   0.61221   0.93753   0.00000  Uiso   1.00
H210   H     0.76117   0.74788   0.07129   0.00000  Uiso   1.00
H211   H     0.60047   0.52180   0.02852   0.00000  Uiso   1.00
H212   H     0.93473   0.58274   0.87338   0.00000  Uiso   1.00
H213   H     0.80447   0.86880   0.15543   0.00000  Uiso   1.00
H214   H     0.46559   0.39207   0.06523   0.00000  Uiso   1.00
H215   H     0.79783   0.49514   0.20780   0.00000  Uiso   1.00
H216   H     0.89443   0.47653   0.13811   0.00000  Uiso   1.00
H217   H     0.83267   0.61221   0.27187   0.00000  Uiso   1.00
H218   H     0.67196   0.38613   0.22909   0.00000  Uiso   1.00
H219   H     0.99276   0.47262   0.03618   0.00000  Uiso   1.00
H220   H     0.86250   0.75869   0.31823   0.00000  Uiso   1.00
H221   H     0.52362   0.28195   0.22803   0.00000  Uiso   1.00
O222   O     0.02608   0.51778   0.90551   0.00000  Uiso   1.00
O223   O     0.85518   0.89308   0.27555   0.00000  Uiso   1.00
O224   O     0.41058   0.26762   0.15721   0.00000  Uiso   1.00
N225   N     0.93512   0.55936   0.92126   0.00000  Uiso   1.00
N226   N     0.81335   0.82682   0.18495   0.00000  Uiso   1.00
N227   N     0.49652   0.38112   0.10063   0.00000  Uiso   1.00
N228   N     0.96634   0.50011   0.00886   0.00000  Uiso   1.00
N229   N     0.84457   0.76757   0.27255   0.00000  Uiso   1.00
N230   N     0.52774   0.32187   0.18823   0.00000  Uiso   1.00
C231   C     0.58474   0.37064   0.59799   0.00000  Uiso   1.00
C232   C     0.54454   0.33015   0.66519   0.00000  Uiso   1.00
C233   C     0.52430   0.25281   0.69018   0.00000  Uiso   1.00
C234   C     0.48794   0.22684   0.75268   0.00000  Uiso   1.00
C235   C     0.42792   0.15643   0.85155   0.00000  Uiso   1.00
C236   C     0.65126   0.43693   0.61420   0.00000  Uiso   1.00
C237   C     0.72075   0.44937   0.59630   0.00000  Uiso   1.00
C238   C     0.77421   0.51329   0.61586   0.00000  Uiso   1.00
C239   C     0.87987   0.60868   0.63551   0.00000  Uiso   1.00
C240   C     0.53882   0.40749   0.56018   0.00000  Uiso   1.00
C241   C     0.51378   0.39519   0.49685   0.00000  Uiso   1.00
C242   C     0.47259   0.43435   0.47092   0.00000  Uiso   1.00
C243   C     0.40367   0.48403   0.40670   0.00000  Uiso   1.00
C244   C     0.55615   0.46205   0.66453   0.00000  Uiso   1.00
C245   C     0.52902   0.37981   0.70134   0.00000  Uiso   1.00
C246   C     0.49267   0.35395   0.76381   0.00000  Uiso   1.00
C247   C     0.47237   0.27658   0.78889   0.00000  Uiso   1.00
C248   C     0.63573   0.48658   0.65034   0.00000  Uiso   1.00
C249   C     0.68911   0.55051   0.66993   0.00000  Uiso   1.00
C250   C     0.75866   0.56304   0.65207   0.00000  Uiso   1.00
C251   C     0.52329   0.45714   0.59632   0.00000  Uiso   1.00
C252   C     0.48214   0.49633   0.57048   0.00000  Uiso   1.00
C253   C     0.45703   0.48409   0.50713   0.00000  Uiso   1.00
H254   H     0.59683   0.33198   0.56985   0.00000  Uiso   1.00
H255   H     0.53634   0.21440   0.66220   0.00000  Uiso   1.00
H256   H     0.73275   0.41093   0.56832   0.00000  Uiso   1.00
H257   H     0.52581   0.35676   0.46890   0.00000  Uiso   1.00
H258   H     0.46244   0.10594   0.78054   0.00000  Uiso   1.00
H259   H     0.87658   0.52036   0.58258   0.00000  Uiso   1.00
H260   H     0.44021   0.40613   0.37291   0.00000  Uiso   1.00
H261   H     0.54406   0.50072   0.69267   0.00000  Uiso   1.00
H262   H     0.48066   0.39239   0.79177   0.00000  Uiso   1.00
H263   H     0.67707   0.58892   0.69789   0.00000  Uiso   1.00
H264   H     0.47013   0.53475   0.59846   0.00000  Uiso   1.00
H265   H     0.41725   0.25040   0.88571   0.00000  Uiso   1.00
H266   H     0.83139   0.66482   0.68774   0.00000  Uiso   1.00
H267   H     0.39502   0.55059   0.47808   0.00000  Uiso   1.00
O268   O     0.39911   0.10387   0.89610   0.00000  Uiso   1.00
O269   O     0.94245   0.64758   0.63637   0.00000  Uiso   1.00
O270   O     0.36993   0.49771   0.36130   0.00000  Uiso   1.00
N271   N     0.46049   0.15480   0.79168   0.00000  Uiso   1.00
N272   N     0.84769   0.54225   0.60661   0.00000  Uiso   1.00
N273   N     0.43973   0.43547   0.41058   0.00000  Uiso   1.00
N274   N     0.43618   0.23254   0.84827   0.00000  Uiso   1.00
N275   N     0.82337   0.61998   0.66320   0.00000  Uiso   1.00
N276   N     0.41542   0.51321   0.46717   0.00000  Uiso   1.00
C277   C     0.17373   0.99668   0.55467   0.00000  Uiso   1.00
C278   C     0.22500   0.06651   0.50808   0.00000  Uiso   1.00
C279   C     0.29680   0.08432   0.49586   0.00000  Uiso   1.00
C280   C     0.33458   0.15076   0.45158   0.00000  Uiso   1.00
C281   C     0.41919   0.25203   0.38392   0.00000  Uiso   1.00
C282   C     0.11338   0.95448   0.51179   0.00000  Uiso   1.00
C283   C     0.09133   0.87809   0.50270   0.00000  Uiso   1.00
C284   C     0.03514   0.85022   0.46156   0.00000  Uiso   1.00
C285   C     0.94642   0.77755   0.39970   0.00000  Uiso   1.00
C286   C     0.14129   0.02822   0.60512   0.00000  Uiso   1.00
C287   C     0.14268   0.01382   0.67451   0.00000  Uiso   1.00
C288   C     0.10997   0.04803   0.71193   0.00000  Uiso   1.00
C289   C     0.06459   0.08985   0.79499   0.00000  Uiso   1.00
C290   C     0.11314   0.08302   0.49776   0.00000  Uiso   1.00
C291   C     0.19209   0.11340   0.47717   0.00000  Uiso   1.00
C292   C     0.22977   0.17984   0.43290   0.00000  Uiso   1.00
C293   C     0.30162   0.19775   0.42062   0.00000  Uiso   1.00
C294   C     0.08047   0.00137   0.48089   0.00000  Uiso   1.00
C295   C     0.02430   0.97361   0.43975   0.00000  Uiso   1.00
C296   C     0.00217   0.89721   0.43059   0.00000  Uiso   1.00
C297   C     0.10838   0.07512   0.57422   0.00000  Uiso   1.00
C298   C     0.07566   0.10935   0.61155   0.00000  Uiso   1.00
C299   C     0.07701   0.09501   0.68097   0.00000  Uiso   1.00
H300   H     0.19934   0.96017   0.57873   0.00000  Uiso   1.00
H301   H     0.32225   0.04800   0.51978   0.00000  Uiso   1.00
H302   H     0.11680   0.84181   0.52663   0.00000  Uiso   1.00
H303   H     0.16815   0.97753   0.69841   0.00000  Uiso   1.00
H304   H     0.44399   0.16605   0.44078   0.00000  Uiso   1.00
H305   H     0.01078   0.73127   0.45525   0.00000  Uiso   1.00
H306   H     0.11906   0.01746   0.81746   0.00000  Uiso   1.00
H307   H     0.08752   0.11953   0.47370   0.00000  Uiso   1.00
H308   H     0.20429   0.21612   0.40899   0.00000  Uiso   1.00
H309   H     0.99884   0.00992   0.41584   0.00000  Uiso   1.00
H310   H     0.05019   0.14564   0.58761   0.00000  Uiso   1.00
H311   H     0.34825   0.30250   0.35086   0.00000  Uiso   1.00
H312   H     0.91503   0.86772   0.36532   0.00000  Uiso   1.00
H313   H     0.02332   0.15391   0.72754   0.00000  Uiso   1.00
O314   O     0.47495   0.29493   0.35513   0.00000  Uiso   1.00
O315   O     0.90658   0.72451   0.37412   0.00000  Uiso   1.00
O316   O     0.04865   0.09998   0.84933   0.00000  Uiso   1.00
N317   N     0.40544   0.18492   0.42851   0.00000  Uiso   1.00
N318   N     0.00041   0.77843   0.44202   0.00000  Uiso   1.00
N319   N     0.10164   0.04597   0.78067   0.00000  Uiso   1.00
N320   N     0.35392   0.25834   0.38012   0.00000  Uiso   1.00
N321   N     0.94890   0.85185   0.39364   0.00000  Uiso   1.00
N322   N     0.05012   0.11939   0.73228   0.00000  Uiso   1.00
C323   C     0.78234   0.36895   0.79639   0.00000  Uiso   1.00
C324   C     0.72538   0.38942   0.82705   0.00000  Uiso   1.00
C325   C     0.71878   0.45941   0.81287   0.00000  Uiso   1.00
C326   C     0.66307   0.46675   0.84616   0.00000  Uiso   1.00
C327   C     0.58180   0.50773   0.88677   0.00000  Uiso   1.00
C328   C     0.74264   0.29701   0.76457   0.00000  Uiso   1.00
C329   C     0.75056   0.28931   0.69785   0.00000  Uiso   1.00
C330   C     0.70939   0.21885   0.67855   0.00000  Uiso   1.00
C331   C     0.65496   0.11634   0.62217   0.00000  Uiso   1.00
C332   C     0.81925   0.34405   0.85535   0.00000  Uiso   1.00
C333   C     0.89160   0.37587   0.86496   0.00000  Uiso   1.00
C334   C     0.91493   0.34500   0.92209   0.00000  Uiso   1.00
C335   C     0.97946   0.31553   0.00667   0.00000  Uiso   1.00
C336   C     0.69515   0.25751   0.88074   0.00000  Uiso   1.00
C337   C     0.67802   0.32889   0.87286   0.00000  Uiso   1.00
C338   C     0.62231   0.33612   0.90619   0.00000  Uiso   1.00
C339   C     0.61563   0.40611   0.89206   0.00000  Uiso   1.00
C340   C     0.69528   0.23649   0.81038   0.00000  Uiso   1.00
C341   C     0.65410   0.16602   0.79117   0.00000  Uiso   1.00
C342   C     0.66195   0.15821   0.72445   0.00000  Uiso   1.00
C343   C     0.77190   0.28352   0.90117   0.00000  Uiso   1.00
C344   C     0.79513   0.25259   0.95829   0.00000  Uiso   1.00
C345   C     0.86749   0.28436   0.96799   0.00000  Uiso   1.00
H346   H     0.81921   0.41607   0.76072   0.00000  Uiso   1.00
H347   H     0.75543   0.50624   0.77740   0.00000  Uiso   1.00
H348   H     0.78722   0.33615   0.66241   0.00000  Uiso   1.00
H349   H     0.92823   0.42271   0.82950   0.00000  Uiso   1.00
H350   H     0.66382   0.57950   0.81608   0.00000  Uiso   1.00
H351   H     0.73086   0.22087   0.57362   0.00000  Uiso   1.00
H352   H     0.02821   0.40339   0.92596   0.00000  Uiso   1.00
H353   H     0.65828   0.21039   0.91641   0.00000  Uiso   1.00
H354   H     0.58567   0.28927   0.94164   0.00000  Uiso   1.00
H355   H     0.61746   0.11919   0.82664   0.00000  Uiso   1.00
H356   H     0.75847   0.20575   0.99373   0.00000  Uiso   1.00
H357   H     0.52604   0.40340   0.94938   0.00000  Uiso   1.00
H358   H     0.59308   0.04477   0.70692   0.00000  Uiso   1.00
H359   H     0.89043   0.22729   0.05926   0.00000  Uiso   1.00
O360   O     0.55006   0.54705   0.89650   0.00000  Uiso   1.00
O361   O     0.63801   0.07653   0.57841   0.00000  Uiso   1.00
O362   O     0.02813   0.31600   0.04067   0.00000  Uiso   1.00
N363   N     0.64137   0.52724   0.84400   0.00000  Uiso   1.00
N364   N     0.70403   0.19194   0.61731   0.00000  Uiso   1.00
N365   N     0.98204   0.36257   0.94671   0.00000  Uiso   1.00
N366   N     0.56723   0.43248   0.91573   0.00000  Uiso   1.00
N367   N     0.62989   0.09718   0.68904   0.00000  Uiso   1.00
N368   N     0.90790   0.26781   0.01844   0.00000  Uiso   1.00
C369   C     0.03046   0.84204   0.06481   0.00000  Uiso   1.00
C370   C     0.04556   0.77947   0.10951   0.00000  Uiso   1.00
C371   C     0.01667   0.74702   0.17422   0.00000  Uiso   1.00
C372   C     0.03716   0.69056   0.20676   0.00000  Uiso   1.00
C373   C     0.05332   0.59690   0.28088   0.00000  Uiso   1.00
C374   C     0.00344   0.80966   0.00027   0.00000  Uiso   1.00
C375   C     0.93914   0.80261   0.97313   0.00000  Uiso   1.00
C376   C     0.92419   0.77156   0.91370   0.00000  Uiso   1.00
C377   C     0.87498   0.72482   0.81820   0.00000  Uiso   1.00
C378   C     0.10254   0.90781   0.04539   0.00000  Uiso   1.00
C379   C     0.12156   0.98328   0.05619   0.00000  Uiso   1.00
C380   C     0.19003   0.03488   0.03474   0.00000  Uiso   1.00
C381   C     0.29469   0.14052   0.00930   0.00000  Uiso   1.00
C382   C     0.11824   0.79947   0.00751   0.00000  Uiso   1.00
C383   C     0.09324   0.75635   0.07838   0.00000  Uiso   1.00
C384   C     0.11378   0.69992   0.11083   0.00000  Uiso   1.00
C385   C     0.08492   0.66739   0.17558   0.00000  Uiso   1.00
C386   C     0.05112   0.78654   0.96914   0.00000  Uiso   1.00
C387   C     0.03626   0.75550   0.90974   0.00000  Uiso   1.00
C388   C     0.97195   0.74840   0.88252   0.00000  Uiso   1.00
C389   C     0.15022   0.88468   0.01427   0.00000  Uiso   1.00
C390   C     0.21867   0.93618   0.99279   0.00000  Uiso   1.00
C391   C     0.23779   0.01171   0.00355   0.00000  Uiso   1.00
H392   H     0.99334   0.86004   0.08904   0.00000  Uiso   1.00
H393   H     0.97976   0.76493   0.19829   0.00000  Uiso   1.00
H394   H     0.90226   0.82051   0.99722   0.00000  Uiso   1.00
H395   H     0.08465   0.00116   0.08027   0.00000  Uiso   1.00
H396   H     0.98572   0.64926   0.30568   0.00000  Uiso   1.00
H397   H     0.82230   0.76648   0.88171   0.00000  Uiso   1.00
H398   H     0.20690   0.14741   0.05683   0.00000  Uiso   1.00
H399   H     0.15536   0.78146   0.98328   0.00000  Uiso   1.00
H400   H     0.15068   0.68204   0.08673   0.00000  Uiso   1.00
H401   H     0.07317   0.73762   0.88566   0.00000  Uiso   1.00
H402   H     0.25556   0.91826   0.96871   0.00000  Uiso   1.00
H403   H     0.12443   0.58198   0.21513   0.00000  Uiso   1.00
H404   H     0.96102   0.69921   0.79116   0.00000  Uiso   1.00
H405   H     0.34562   0.08013   0.96628   0.00000  Uiso   1.00
O406   O     0.04905   0.55161   0.33036   0.00000  Uiso   1.00
O407   O     0.83466   0.70542   0.77412   0.00000  Uiso   1.00
O408   O     0.33925   0.20518   0.00388   0.00000  Uiso   1.00
N409   N     0.01902   0.64708   0.27018   0.00000  Uiso   1.00
N410   N     0.86623   0.75667   0.87380   0.00000  Uiso   1.00
N411   N     0.22579   0.11281   0.03750   0.00000  Uiso   1.00
N412   N     0.09366   0.61088   0.22146   0.00000  Uiso   1.00
N413   N     0.94087   0.72046   0.82507   0.00000  Uiso   1.00
N414   N     0.30043   0.07660   0.98878   0.00000  Uiso   1.00
C415   C     0.80644   0.33236   0.31206   0.00000  Uiso   1.00
C416   C     0.80462   0.26627   0.36504   0.00000  Uiso   1.00
C417   C     0.86133   0.24543   0.38008   0.00000  Uiso   1.00
C418   C     0.84887   0.18327   0.43021   0.00000  Uiso   1.00
C419   C     0.85619   0.08668   0.50732   0.00000  Uiso   1.00
C420   C     0.74786   0.29691   0.26503   0.00000  Uiso   1.00
C421   C     0.75686   0.30185   0.19598   0.00000  Uiso   1.00
C422   C     0.69662   0.26549   0.16192   0.00000  Uiso   1.00
C423   C     0.61582   0.21652   0.08374   0.00000  Uiso   1.00
C424   C     0.78257   0.38364   0.34877   0.00000  Uiso   1.00
C425   C     0.82073   0.46151   0.35012   0.00000  Uiso   1.00
C426   C     0.78971   0.49817   0.38656   0.00000  Uiso   1.00
C427   C     0.76280   0.58386   0.43841   0.00000  Uiso   1.00
C428   C     0.68348   0.25902   0.37434   0.00000  Uiso   1.00
C429   C     0.73783   0.22643   0.39887   0.00000  Uiso   1.00
C430   C     0.72528   0.16428   0.44899   0.00000  Uiso   1.00
C431   C     0.78197   0.14336   0.46411   0.00000  Uiso   1.00
C432   C     0.68108   0.25708   0.29885   0.00000  Uiso   1.00
C433   C     0.62081   0.22070   0.26488   0.00000  Uiso   1.00
C434   C     0.62971   0.22558   0.19580   0.00000  Uiso   1.00
C435   C     0.71578   0.34380   0.38260   0.00000  Uiso   1.00
C436   C     0.68469   0.38036   0.41903   0.00000  Uiso   1.00
C437   C     0.72280   0.45826   0.42045   0.00000  Uiso   1.00
H438   H     0.85844   0.36338   0.28571   0.00000  Uiso   1.00
H439   H     0.91301   0.27627   0.35389   0.00000  Uiso   1.00
H440   H     0.80855   0.33269   0.16981   0.00000  Uiso   1.00
H441   H     0.87242   0.49232   0.32394   0.00000  Uiso   1.00
H442   H     0.94404   0.16211   0.44437   0.00000  Uiso   1.00
H443   H     0.72379   0.28109   0.05624   0.00000  Uiso   1.00
H444   H     0.85847   0.61770   0.38124   0.00000  Uiso   1.00
H445   H     0.63148   0.22800   0.40067   0.00000  Uiso   1.00
H446   H     0.67359   0.13347   0.47516   0.00000  Uiso   1.00
H447   H     0.56914   0.18988   0.29108   0.00000  Uiso   1.00
H448   H     0.63301   0.34951   0.44521   0.00000  Uiso   1.00
H449   H     0.74973   0.04620   0.54280   0.00000  Uiso   1.00
H450   H     0.52947   0.16519   0.15466   0.00000  Uiso   1.00
H451   H     0.66415   0.50180   0.47967   0.00000  Uiso   1.00
O452   O     0.87868   0.04440   0.54050   0.00000  Uiso   1.00
O453   O     0.58971   0.20051   0.03127   0.00000  Uiso   1.00
O454   O     0.76641   0.64213   0.45767   0.00000  Uiso   1.00
N455   N     0.89254   0.14782   0.45733   0.00000  Uiso   1.00
N456   N     0.68661   0.25905   0.09444   0.00000  Uiso   1.00
N457   N     0.81252   0.57375   0.39828   0.00000  Uiso   1.00
N458   N     0.78798   0.08545   0.51029   0.00000  Uiso   1.00
N459   N     0.58205   0.19668   0.14740   0.00000  Uiso   1.00
N460   N     0.70796   0.51139   0.45124   0.00000  Uiso   1.00
C461   C     0.28163   0.55152   0.63563   0.00000  Uiso   1.00
C462   C     0.22519   0.58029   0.65354   0.00000  Uiso   1.00
C463   C     0.18295   0.55657   0.71277   0.00000  Uiso   1.00
C464   C     0.13444   0.58976   0.71956   0.00000  Uiso   1.00
C465   C     0.04769   0.62605   0.75505   0.00000  Uiso   1.00
C466   C     0.26150   0.52080   0.56920   0.00000  Uiso   1.00
C467   C     0.24981   0.44706   0.55753   0.00000  Uiso   1.00
C468   C     0.23189   0.43018   0.49332   0.00000  Uiso   1.00
C469   C     0.20157   0.37413   0.39787   0.00000  Uiso   1.00
C470   C     0.35063   0.62276   0.62023   0.00000  Uiso   1.00
C471   C     0.41389   0.63475   0.65144   0.00000  Uiso   1.00
C472   C     0.47101   0.70372   0.63018   0.00000  Uiso   1.00
C473   C     0.57908   0.80598   0.61396   0.00000  Uiso   1.00
C474   C     0.27060   0.65265   0.54235   0.00000  Uiso   1.00
C475   C     0.21920   0.63522   0.60287   0.00000  Uiso   1.00
C476   C     0.17075   0.66846   0.60957   0.00000  Uiso   1.00
C477   C     0.12844   0.64480   0.66880   0.00000  Uiso   1.00
C478   C     0.25551   0.57573   0.51854   0.00000  Uiso   1.00
C479   C     0.23761   0.55895   0.45433   0.00000  Uiso   1.00
C480   C     0.22589   0.48521   0.44256   0.00000  Uiso   1.00
C481   C     0.34464   0.67770   0.56956   0.00000  Uiso   1.00
C482   C     0.40168   0.74665   0.54824   0.00000  Uiso   1.00
C483   C     0.46501   0.75875   0.57942   0.00000  Uiso   1.00
H484   H     0.28629   0.50875   0.67507   0.00000  Uiso   1.00
H485   H     0.18759   0.51405   0.75196   0.00000  Uiso   1.00
H486   H     0.25446   0.40456   0.59674   0.00000  Uiso   1.00
H487   H     0.41850   0.59223   0.69065   0.00000  Uiso   1.00
H488   H     0.07551   0.54413   0.81486   0.00000  Uiso   1.00
H489   H     0.21652   0.31328   0.48757   0.00000  Uiso   1.00
H490   H     0.56244   0.70902   0.68557   0.00000  Uiso   1.00
H491   H     0.26594   0.69542   0.50291   0.00000  Uiso   1.00
H492   H     0.16612   0.71097   0.57035   0.00000  Uiso   1.00
H493   H     0.23299   0.60148   0.41513   0.00000  Uiso   1.00
H494   H     0.39703   0.78915   0.50904   0.00000  Uiso   1.00
H495   H     0.05808   0.70396   0.66746   0.00000  Uiso   1.00
H496   H     0.19909   0.47311   0.34016   0.00000  Uiso   1.00
H497   H     0.54501   0.86884   0.53817   0.00000  Uiso   1.00
O498   O     0.00148   0.63089   0.78862   0.00000  Uiso   1.00
O499   O     0.18650   0.32803   0.35923   0.00000  Uiso   1.00
O500   O     0.64033   0.84722   0.61901   0.00000  Uiso   1.00
N501   N     0.08512   0.57963   0.77092   0.00000  Uiso   1.00
N502   N     0.21694   0.36379   0.46492   0.00000  Uiso   1.00
N503   N     0.54035   0.73376   0.65003   0.00000  Uiso   1.00
N504   N     0.07574   0.66563   0.69160   0.00000  Uiso   1.00
N505   N     0.20756   0.44979   0.38561   0.00000  Uiso   1.00
N506   N     0.53098   0.81976   0.57072   0.00000  Uiso   1.00
C507   C     0.47970   0.71391   0.11554   0.00000  Uiso   1.00
C508   C     0.53955   0.77186   0.06710   0.00000  Uiso   1.00
C509   C     0.55193   0.84884   0.04845   0.00000  Uiso   1.00
C510   C     0.60942   0.89232   0.00352   0.00000  Uiso   1.00
C511   C     0.69572   0.98721   0.93213   0.00000  Uiso   1.00
C512   C     0.43892   0.64806   0.07698   0.00000  Uiso   1.00
C513   C     0.36670   0.62094   0.06665   0.00000  Uiso   1.00
C514   C     0.33948   0.56020   0.03005   0.00000  Uiso   1.00
C515   C     0.26954   0.46286   0.97404   0.00000  Uiso   1.00
C516   C     0.51550   0.68093   0.17058   0.00000  Uiso   1.00
C517   C     0.50765   0.68144   0.23895   0.00000  Uiso   1.00
C518   C     0.54490   0.64836   0.28115   0.00000  Uiso   1.00
C519   C     0.59386   0.60206   0.37047   0.00000  Uiso   1.00
C520   C     0.55979   0.65425   0.06892   0.00000  Uiso   1.00
C521   C     0.58305   0.73945   0.04178   0.00000  Uiso   1.00
C522   C     0.64054   0.78283   0.99687   0.00000  Uiso   1.00
C523   C     0.65301   0.85986   0.97815   0.00000  Uiso   1.00
C524   C     0.48242   0.61565   0.05166   0.00000  Uiso   1.00
C525   C     0.45531   0.55493   0.01507   0.00000  Uiso   1.00
C526   C     0.38306   0.52773   0.00468   0.00000  Uiso   1.00
C527   C     0.55901   0.64853   0.14526   0.00000  Uiso   1.00
C528   C     0.59627   0.61543   0.18736   0.00000  Uiso   1.00
C529   C     0.58848   0.61589   0.25578   0.00000  Uiso   1.00
H530   H     0.44583   0.73914   0.13526   0.00000  Uiso   1.00
H531   H     0.51825   0.87389   0.06806   0.00000  Uiso   1.00
H532   H     0.33304   0.64603   0.08626   0.00000  Uiso   1.00
H533   H     0.47398   0.70652   0.25853   0.00000  Uiso   1.00
H534   H     0.61771   0.00899   0.98237   0.00000  Uiso   1.00
H535   H     0.22719   0.52851   0.02077   0.00000  Uiso   1.00
H536   H     0.52439   0.65607   0.38404   0.00000  Uiso   1.00
H537   H     0.59366   0.62902   0.04920   0.00000  Uiso   1.00
H538   H     0.67420   0.75773   0.97728   0.00000  Uiso   1.00
H539   H     0.48899   0.52987   0.99548   0.00000  Uiso   1.00
H540   H     0.62993   0.59036   0.16775   0.00000  Uiso   1.00
H541   H     0.74428   0.91471   0.90868   0.00000  Uiso   1.00
H542   H     0.35376   0.43423   0.94709   0.00000  Uiso   1.00
H543   H     0.65096   0.56179   0.31035   0.00000  Uiso   1.00
O544   O     0.73130   0.04850   0.89975   0.00000  Uiso   1.00
O545   O     0.21894   0.41812   0.95014   0.00000  Uiso   1.00
O546   O     0.60886   0.58548   0.42674   0.00000  Uiso   1.00
N547   N     0.63646   0.96914   0.97491   0.00000  Uiso   1.00
N548   N     0.27134   0.51993   0.01080   0.00000  Uiso   1.00
N549   N     0.54918   0.63917   0.35043   0.00000  Uiso   1.00
N550   N     0.70456   0.91841   0.93526   0.00000  Uiso   1.00
N551   N     0.33945   0.46920   0.97115   0.00000  Uiso   1.00
N552   N     0.61729   0.58844   0.31078   0.00000  Uiso   1.00
