data_job_05344
_audit_creation_date              2018-12-19
_audit_creation_method            'Materials Studio'
_symmetry_space_group_name_H-M    'P1'
_symmetry_Int_Tables_number       1
_symmetry_cell_setting            triclinic
loop_
_symmetry_equiv_pos_as_xyz
  x,y,z
_cell_length_a                    26.1657
_cell_length_b                    26.1657
_cell_length_c                    7.6544
_cell_angle_alpha                 90.0000
_cell_angle_beta                  90.0000
_cell_angle_gamma                 90.0000
loop_
_atom_site_label
_atom_site_type_symbol
_atom_site_fract_x
_atom_site_fract_y
_atom_site_fract_z
_atom_site_U_iso_or_equiv
_atom_site_adp_type
_atom_site_occupancy
C1     C     0.48874   0.74657   0.96947   0.00000  Uiso   1.00
C2     C     0.50190   0.69882   0.07444   0.00000  Uiso   1.00
C3     C     0.52121   0.65358   0.00662   0.00000  Uiso   1.00
C4     C     0.53074   0.61433   0.12425   0.00000  Uiso   1.00
C5     C     0.55260   0.53929   0.26001   0.00000  Uiso   1.00
C6     C     0.43284   0.75827   0.00918   0.00000  Uiso   1.00
C7     C     0.39408   0.76302   0.88648   0.00000  Uiso   1.00
C8     C     0.34547   0.77383   0.94918   0.00000  Uiso   1.00
C9     C     0.26011   0.79113   0.98361   0.00000  Uiso   1.00
C10    C     0.51954   0.78998   0.05058   0.00000  Uiso   1.00
C11    C     0.55366   0.82140   0.96270   0.00000  Uiso   1.00
C12    C     0.57805   0.85891   0.06025   0.00000  Uiso   1.00
C13    C     0.62730   0.92544   0.15896   0.00000  Uiso   1.00
C14    C     0.47134   0.75731   0.29897   0.00000  Uiso   1.00
C15    C     0.49245   0.70465   0.25341   0.00000  Uiso   1.00
C16    C     0.50196   0.66546   0.37118   0.00000  Uiso   1.00
C17    C     0.52128   0.62017   0.30355   0.00000  Uiso   1.00
C18    C     0.42339   0.76411   0.18815   0.00000  Uiso   1.00
C19    C     0.37483   0.77491   0.25104   0.00000  Uiso   1.00
C20    C     0.33600   0.77968   0.12848   0.00000  Uiso   1.00
C21    C     0.51009   0.79581   0.22956   0.00000  Uiso   1.00
C22    C     0.53442   0.83329   0.32726   0.00000  Uiso   1.00
C23    C     0.56858   0.86476   0.23954   0.00000  Uiso   1.00
H24    H     0.49609   0.74202   0.83013   0.00000  Uiso   1.00
H25    H     0.52851   0.64907   0.86811   0.00000  Uiso   1.00
H26    H     0.40140   0.75851   0.74799   0.00000  Uiso   1.00
H27    H     0.56097   0.81687   0.82420   0.00000  Uiso   1.00
H28    H     0.56028   0.54859   0.98913   0.00000  Uiso   1.00
H29    H     0.29226   0.77936   0.73586   0.00000  Uiso   1.00
H30    H     0.62873   0.90243   0.89655   0.00000  Uiso   1.00
H31    H     0.46398   0.76186   0.43831   0.00000  Uiso   1.00
H32    H     0.49464   0.66999   0.50967   0.00000  Uiso   1.00
H33    H     0.36753   0.77943   0.38955   0.00000  Uiso   1.00
H34    H     0.52710   0.83779   0.46575   0.00000  Uiso   1.00
H35    H     0.53278   0.56556   0.50985   0.00000  Uiso   1.00
H36    H     0.26476   0.79634   0.25657   0.00000  Uiso   1.00
H37    H     0.60124   0.91941   0.41726   0.00000  Uiso   1.00
O38    O     0.56726   0.49628   0.28545   0.00000  Uiso   1.00
O39    O     0.21564   0.79905   0.95316   0.00000  Uiso   1.00
O40    O     0.65709   0.96052   0.16398   0.00000  Uiso   1.00
N41    N     0.54961   0.56519   0.10190   0.00000  Uiso   1.00
N42    N     0.29902   0.78094   0.86510   0.00000  Uiso   1.00
N43    N     0.61359   0.89602   0.01532   0.00000  Uiso   1.00
N44    N     0.53481   0.57433   0.38209   0.00000  Uiso   1.00
N45    N     0.28423   0.79008   0.14529   0.00000  Uiso   1.00
N46    N     0.59880   0.90515   0.29551   0.00000  Uiso   1.00
C47    C     0.51126   0.25343   0.96947   0.00000  Uiso   1.00
C48    C     0.49810   0.30118   0.07444   0.00000  Uiso   1.00
C49    C     0.47879   0.34642   0.00662   0.00000  Uiso   1.00
C50    C     0.46926   0.38567   0.12425   0.00000  Uiso   1.00
C51    C     0.44740   0.46071   0.26001   0.00000  Uiso   1.00
C52    C     0.56716   0.24173   0.00918   0.00000  Uiso   1.00
C53    C     0.60592   0.23698   0.88648   0.00000  Uiso   1.00
C54    C     0.65453   0.22617   0.94918   0.00000  Uiso   1.00
C55    C     0.73989   0.20887   0.98361   0.00000  Uiso   1.00
C56    C     0.48046   0.21002   0.05058   0.00000  Uiso   1.00
C57    C     0.44634   0.17860   0.96270   0.00000  Uiso   1.00
C58    C     0.42195   0.14109   0.06025   0.00000  Uiso   1.00
C59    C     0.37270   0.07456   0.15896   0.00000  Uiso   1.00
C60    C     0.52866   0.24269   0.29897   0.00000  Uiso   1.00
C61    C     0.50755   0.29535   0.25341   0.00000  Uiso   1.00
C62    C     0.49804   0.33454   0.37118   0.00000  Uiso   1.00
C63    C     0.47872   0.37983   0.30355   0.00000  Uiso   1.00
C64    C     0.57661   0.23589   0.18815   0.00000  Uiso   1.00
C65    C     0.62517   0.22509   0.25104   0.00000  Uiso   1.00
C66    C     0.66400   0.22032   0.12848   0.00000  Uiso   1.00
C67    C     0.48991   0.20419   0.22956   0.00000  Uiso   1.00
C68    C     0.46558   0.16671   0.32726   0.00000  Uiso   1.00
C69    C     0.43142   0.13524   0.23954   0.00000  Uiso   1.00
H70    H     0.50391   0.25798   0.83013   0.00000  Uiso   1.00
H71    H     0.47149   0.35093   0.86811   0.00000  Uiso   1.00
H72    H     0.59860   0.24149   0.74799   0.00000  Uiso   1.00
H73    H     0.43903   0.18313   0.82420   0.00000  Uiso   1.00
H74    H     0.43972   0.45141   0.98913   0.00000  Uiso   1.00
H75    H     0.70774   0.22064   0.73586   0.00000  Uiso   1.00
H76    H     0.37127   0.09757   0.89655   0.00000  Uiso   1.00
H77    H     0.53602   0.23814   0.43831   0.00000  Uiso   1.00
H78    H     0.50536   0.33001   0.50967   0.00000  Uiso   1.00
H79    H     0.63247   0.22057   0.38955   0.00000  Uiso   1.00
H80    H     0.47290   0.16221   0.46575   0.00000  Uiso   1.00
H81    H     0.46722   0.43444   0.50985   0.00000  Uiso   1.00
H82    H     0.73524   0.20366   0.25657   0.00000  Uiso   1.00
H83    H     0.39876   0.08059   0.41726   0.00000  Uiso   1.00
O84    O     0.43274   0.50372   0.28545   0.00000  Uiso   1.00
O85    O     0.78436   0.20095   0.95316   0.00000  Uiso   1.00
O86    O     0.34291   0.03948   0.16398   0.00000  Uiso   1.00
N87    N     0.45039   0.43481   0.10190   0.00000  Uiso   1.00
N88    N     0.70098   0.21906   0.86510   0.00000  Uiso   1.00
N89    N     0.38641   0.10398   0.01532   0.00000  Uiso   1.00
N90    N     0.46519   0.42567   0.38209   0.00000  Uiso   1.00
N91    N     0.71577   0.20992   0.14529   0.00000  Uiso   1.00
N92    N     0.40120   0.09485   0.29551   0.00000  Uiso   1.00
C93    C     0.75343   0.98874   0.46947   0.00000  Uiso   1.00
C94    C     0.80118   0.00190   0.57444   0.00000  Uiso   1.00
C95    C     0.84642   0.02121   0.50662   0.00000  Uiso   1.00
C96    C     0.88567   0.03074   0.62425   0.00000  Uiso   1.00
C97    C     0.96071   0.05260   0.76001   0.00000  Uiso   1.00
C98    C     0.74173   0.93284   0.50918   0.00000  Uiso   1.00
C99    C     0.73698   0.89408   0.38648   0.00000  Uiso   1.00
C100   C     0.72617   0.84547   0.44918   0.00000  Uiso   1.00
C101   C     0.70887   0.76011   0.48361   0.00000  Uiso   1.00
C102   C     0.71002   0.01954   0.55058   0.00000  Uiso   1.00
C103   C     0.67860   0.05366   0.46270   0.00000  Uiso   1.00
C104   C     0.64109   0.07805   0.56025   0.00000  Uiso   1.00
C105   C     0.57456   0.12730   0.65896   0.00000  Uiso   1.00
C106   C     0.74269   0.97134   0.79897   0.00000  Uiso   1.00
C107   C     0.79535   0.99245   0.75341   0.00000  Uiso   1.00
C108   C     0.83454   0.00196   0.87118   0.00000  Uiso   1.00
C109   C     0.87983   0.02128   0.80355   0.00000  Uiso   1.00
C110   C     0.73589   0.92339   0.68815   0.00000  Uiso   1.00
C111   C     0.72509   0.87483   0.75104   0.00000  Uiso   1.00
C112   C     0.72032   0.83600   0.62848   0.00000  Uiso   1.00
C113   C     0.70419   0.01009   0.72956   0.00000  Uiso   1.00
C114   C     0.66671   0.03442   0.82726   0.00000  Uiso   1.00
C115   C     0.63524   0.06858   0.73954   0.00000  Uiso   1.00
H116   H     0.75798   0.99609   0.33013   0.00000  Uiso   1.00
H117   H     0.85093   0.02851   0.36811   0.00000  Uiso   1.00
H118   H     0.74149   0.90140   0.24799   0.00000  Uiso   1.00
H119   H     0.68313   0.06097   0.32420   0.00000  Uiso   1.00
H120   H     0.95141   0.06028   0.48913   0.00000  Uiso   1.00
H121   H     0.72064   0.79226   0.23586   0.00000  Uiso   1.00
H122   H     0.59757   0.12873   0.39655   0.00000  Uiso   1.00
H123   H     0.73814   0.96398   0.93831   0.00000  Uiso   1.00
H124   H     0.83001   0.99464   0.00967   0.00000  Uiso   1.00
H125   H     0.72057   0.86753   0.88955   0.00000  Uiso   1.00
H126   H     0.66221   0.02710   0.96575   0.00000  Uiso   1.00
H127   H     0.93444   0.03278   0.00985   0.00000  Uiso   1.00
H128   H     0.70366   0.76476   0.75657   0.00000  Uiso   1.00
H129   H     0.58059   0.10124   0.91726   0.00000  Uiso   1.00
O130   O     0.00372   0.06726   0.78545   0.00000  Uiso   1.00
O131   O     0.70095   0.71564   0.45316   0.00000  Uiso   1.00
O132   O     0.53948   0.15709   0.66398   0.00000  Uiso   1.00
N133   N     0.93481   0.04961   0.60190   0.00000  Uiso   1.00
N134   N     0.71906   0.79902   0.36510   0.00000  Uiso   1.00
N135   N     0.60398   0.11359   0.51532   0.00000  Uiso   1.00
N136   N     0.92567   0.03481   0.88209   0.00000  Uiso   1.00
N137   N     0.70992   0.78423   0.64529   0.00000  Uiso   1.00
N138   N     0.59485   0.09880   0.79551   0.00000  Uiso   1.00
C139   C     0.24657   0.01126   0.46947   0.00000  Uiso   1.00
C140   C     0.19882   0.99810   0.57444   0.00000  Uiso   1.00
C141   C     0.15358   0.97879   0.50662   0.00000  Uiso   1.00
C142   C     0.11433   0.96926   0.62425   0.00000  Uiso   1.00
C143   C     0.03929   0.94740   0.76001   0.00000  Uiso   1.00
C144   C     0.25827   0.06716   0.50918   0.00000  Uiso   1.00
C145   C     0.26302   0.10592   0.38648   0.00000  Uiso   1.00
C146   C     0.27383   0.15453   0.44918   0.00000  Uiso   1.00
C147   C     0.29113   0.23989   0.48361   0.00000  Uiso   1.00
C148   C     0.28998   0.98046   0.55058   0.00000  Uiso   1.00
C149   C     0.32140   0.94634   0.46270   0.00000  Uiso   1.00
C150   C     0.35891   0.92195   0.56025   0.00000  Uiso   1.00
C151   C     0.42544   0.87270   0.65896   0.00000  Uiso   1.00
C152   C     0.25731   0.02866   0.79897   0.00000  Uiso   1.00
C153   C     0.20465   0.00755   0.75341   0.00000  Uiso   1.00
C154   C     0.16546   0.99804   0.87118   0.00000  Uiso   1.00
C155   C     0.12017   0.97872   0.80355   0.00000  Uiso   1.00
C156   C     0.26411   0.07661   0.68815   0.00000  Uiso   1.00
C157   C     0.27491   0.12517   0.75104   0.00000  Uiso   1.00
C158   C     0.27968   0.16400   0.62848   0.00000  Uiso   1.00
C159   C     0.29581   0.98991   0.72956   0.00000  Uiso   1.00
C160   C     0.33329   0.96558   0.82726   0.00000  Uiso   1.00
C161   C     0.36476   0.93142   0.73954   0.00000  Uiso   1.00
H162   H     0.24202   0.00391   0.33013   0.00000  Uiso   1.00
H163   H     0.14907   0.97149   0.36811   0.00000  Uiso   1.00
H164   H     0.25851   0.09860   0.24799   0.00000  Uiso   1.00
H165   H     0.31687   0.93903   0.32420   0.00000  Uiso   1.00
H166   H     0.04859   0.93972   0.48913   0.00000  Uiso   1.00
H167   H     0.27936   0.20774   0.23586   0.00000  Uiso   1.00
H168   H     0.40243   0.87127   0.39655   0.00000  Uiso   1.00
H169   H     0.26186   0.03602   0.93831   0.00000  Uiso   1.00
H170   H     0.16999   0.00536   0.00967   0.00000  Uiso   1.00
H171   H     0.27943   0.13247   0.88955   0.00000  Uiso   1.00
H172   H     0.33779   0.97290   0.96575   0.00000  Uiso   1.00
H173   H     0.06556   0.96722   0.00985   0.00000  Uiso   1.00
H174   H     0.29634   0.23524   0.75657   0.00000  Uiso   1.00
H175   H     0.41941   0.89876   0.91726   0.00000  Uiso   1.00
O176   O     0.99628   0.93274   0.78545   0.00000  Uiso   1.00
O177   O     0.29905   0.28436   0.45316   0.00000  Uiso   1.00
O178   O     0.46052   0.84291   0.66398   0.00000  Uiso   1.00
N179   N     0.06519   0.95039   0.60190   0.00000  Uiso   1.00
N180   N     0.28094   0.20098   0.36510   0.00000  Uiso   1.00
N181   N     0.39602   0.88641   0.51532   0.00000  Uiso   1.00
N182   N     0.07433   0.96519   0.88209   0.00000  Uiso   1.00
N183   N     0.29008   0.21577   0.64529   0.00000  Uiso   1.00
N184   N     0.40515   0.90120   0.79551   0.00000  Uiso   1.00
C185   C     0.01126   0.75343   0.53053   0.00000  Uiso   1.00
C186   C     0.99810   0.80118   0.42556   0.00000  Uiso   1.00
C187   C     0.97879   0.84642   0.49338   0.00000  Uiso   1.00
C188   C     0.96926   0.88567   0.37575   0.00000  Uiso   1.00
C189   C     0.94740   0.96071   0.23999   0.00000  Uiso   1.00
C190   C     0.06716   0.74173   0.49082   0.00000  Uiso   1.00
C191   C     0.10592   0.73698   0.61352   0.00000  Uiso   1.00
C192   C     0.15453   0.72617   0.55082   0.00000  Uiso   1.00
C193   C     0.23989   0.70887   0.51639   0.00000  Uiso   1.00
C194   C     0.98046   0.71002   0.44942   0.00000  Uiso   1.00
C195   C     0.94634   0.67860   0.53730   0.00000  Uiso   1.00
C196   C     0.92195   0.64109   0.43975   0.00000  Uiso   1.00
C197   C     0.87270   0.57456   0.34104   0.00000  Uiso   1.00
C198   C     0.02866   0.74269   0.20103   0.00000  Uiso   1.00
C199   C     0.00755   0.79535   0.24659   0.00000  Uiso   1.00
C200   C     0.99804   0.83454   0.12882   0.00000  Uiso   1.00
C201   C     0.97872   0.87983   0.19645   0.00000  Uiso   1.00
C202   C     0.07661   0.73589   0.31185   0.00000  Uiso   1.00
C203   C     0.12517   0.72509   0.24896   0.00000  Uiso   1.00
C204   C     0.16400   0.72032   0.37152   0.00000  Uiso   1.00
C205   C     0.98991   0.70419   0.27044   0.00000  Uiso   1.00
C206   C     0.96558   0.66671   0.17274   0.00000  Uiso   1.00
C207   C     0.93142   0.63524   0.26046   0.00000  Uiso   1.00
H208   H     0.00391   0.75798   0.66987   0.00000  Uiso   1.00
H209   H     0.97149   0.85093   0.63189   0.00000  Uiso   1.00
H210   H     0.09860   0.74149   0.75201   0.00000  Uiso   1.00
H211   H     0.93903   0.68313   0.67580   0.00000  Uiso   1.00
H212   H     0.93972   0.95141   0.51087   0.00000  Uiso   1.00
H213   H     0.20774   0.72064   0.76414   0.00000  Uiso   1.00
H214   H     0.87127   0.59757   0.60345   0.00000  Uiso   1.00
H215   H     0.03602   0.73814   0.06169   0.00000  Uiso   1.00
H216   H     0.00536   0.83001   0.99033   0.00000  Uiso   1.00
H217   H     0.13247   0.72057   0.11045   0.00000  Uiso   1.00
H218   H     0.97290   0.66221   0.03425   0.00000  Uiso   1.00
H219   H     0.96722   0.93444   0.99015   0.00000  Uiso   1.00
H220   H     0.23524   0.70366   0.24343   0.00000  Uiso   1.00
H221   H     0.89876   0.58059   0.08274   0.00000  Uiso   1.00
O222   O     0.93274   0.00372   0.21455   0.00000  Uiso   1.00
O223   O     0.28436   0.70095   0.54684   0.00000  Uiso   1.00
O224   O     0.84291   0.53948   0.33602   0.00000  Uiso   1.00
N225   N     0.95039   0.93481   0.39810   0.00000  Uiso   1.00
N226   N     0.20098   0.71906   0.63490   0.00000  Uiso   1.00
N227   N     0.88641   0.60398   0.48468   0.00000  Uiso   1.00
N228   N     0.96519   0.92567   0.11791   0.00000  Uiso   1.00
N229   N     0.21577   0.70992   0.35471   0.00000  Uiso   1.00
N230   N     0.90120   0.59485   0.20449   0.00000  Uiso   1.00
C231   C     0.98874   0.24657   0.53053   0.00000  Uiso   1.00
C232   C     0.00190   0.19882   0.42556   0.00000  Uiso   1.00
C233   C     0.02121   0.15358   0.49338   0.00000  Uiso   1.00
C234   C     0.03074   0.11433   0.37575   0.00000  Uiso   1.00
C235   C     0.05260   0.03929   0.23999   0.00000  Uiso   1.00
C236   C     0.93284   0.25827   0.49082   0.00000  Uiso   1.00
C237   C     0.89408   0.26302   0.61352   0.00000  Uiso   1.00
C238   C     0.84547   0.27383   0.55082   0.00000  Uiso   1.00
C239   C     0.76011   0.29113   0.51639   0.00000  Uiso   1.00
C240   C     0.01954   0.28998   0.44942   0.00000  Uiso   1.00
C241   C     0.05366   0.32140   0.53730   0.00000  Uiso   1.00
C242   C     0.07805   0.35891   0.43975   0.00000  Uiso   1.00
C243   C     0.12730   0.42544   0.34104   0.00000  Uiso   1.00
C244   C     0.97134   0.25731   0.20103   0.00000  Uiso   1.00
C245   C     0.99245   0.20465   0.24659   0.00000  Uiso   1.00
C246   C     0.00196   0.16546   0.12882   0.00000  Uiso   1.00
C247   C     0.02128   0.12017   0.19645   0.00000  Uiso   1.00
C248   C     0.92339   0.26411   0.31185   0.00000  Uiso   1.00
C249   C     0.87483   0.27491   0.24896   0.00000  Uiso   1.00
C250   C     0.83600   0.27968   0.37152   0.00000  Uiso   1.00
C251   C     0.01009   0.29581   0.27044   0.00000  Uiso   1.00
C252   C     0.03442   0.33329   0.17274   0.00000  Uiso   1.00
C253   C     0.06858   0.36476   0.26046   0.00000  Uiso   1.00
H254   H     0.99609   0.24202   0.66987   0.00000  Uiso   1.00
H255   H     0.02851   0.14907   0.63189   0.00000  Uiso   1.00
H256   H     0.90140   0.25851   0.75201   0.00000  Uiso   1.00
H257   H     0.06097   0.31687   0.67580   0.00000  Uiso   1.00
H258   H     0.06028   0.04859   0.51087   0.00000  Uiso   1.00
H259   H     0.79226   0.27936   0.76414   0.00000  Uiso   1.00
H260   H     0.12873   0.40243   0.60345   0.00000  Uiso   1.00
H261   H     0.96398   0.26186   0.06169   0.00000  Uiso   1.00
H262   H     0.99464   0.16999   0.99033   0.00000  Uiso   1.00
H263   H     0.86753   0.27943   0.11045   0.00000  Uiso   1.00
H264   H     0.02710   0.33779   0.03425   0.00000  Uiso   1.00
H265   H     0.03278   0.06556   0.99015   0.00000  Uiso   1.00
H266   H     0.76476   0.29634   0.24343   0.00000  Uiso   1.00
H267   H     0.10124   0.41941   0.08274   0.00000  Uiso   1.00
O268   O     0.06726   0.99628   0.21455   0.00000  Uiso   1.00
O269   O     0.71564   0.29905   0.54684   0.00000  Uiso   1.00
O270   O     0.15709   0.46052   0.33602   0.00000  Uiso   1.00
N271   N     0.04961   0.06519   0.39810   0.00000  Uiso   1.00
N272   N     0.79902   0.28094   0.63490   0.00000  Uiso   1.00
N273   N     0.11359   0.39602   0.48468   0.00000  Uiso   1.00
N274   N     0.03481   0.07433   0.11791   0.00000  Uiso   1.00
N275   N     0.78423   0.29008   0.35471   0.00000  Uiso   1.00
N276   N     0.09880   0.40515   0.20449   0.00000  Uiso   1.00
C277   C     0.74657   0.51126   0.03053   0.00000  Uiso   1.00
C278   C     0.69882   0.49810   0.92556   0.00000  Uiso   1.00
C279   C     0.65358   0.47879   0.99338   0.00000  Uiso   1.00
C280   C     0.61433   0.46926   0.87575   0.00000  Uiso   1.00
C281   C     0.53929   0.44740   0.73999   0.00000  Uiso   1.00
C282   C     0.75827   0.56716   0.99082   0.00000  Uiso   1.00
C283   C     0.76302   0.60592   0.11352   0.00000  Uiso   1.00
C284   C     0.77383   0.65453   0.05082   0.00000  Uiso   1.00
C285   C     0.79113   0.73989   0.01639   0.00000  Uiso   1.00
C286   C     0.78998   0.48046   0.94942   0.00000  Uiso   1.00
C287   C     0.82140   0.44634   0.03730   0.00000  Uiso   1.00
C288   C     0.85891   0.42195   0.93975   0.00000  Uiso   1.00
C289   C     0.92544   0.37270   0.84104   0.00000  Uiso   1.00
C290   C     0.75731   0.52866   0.70103   0.00000  Uiso   1.00
C291   C     0.70465   0.50755   0.74659   0.00000  Uiso   1.00
C292   C     0.66546   0.49804   0.62882   0.00000  Uiso   1.00
C293   C     0.62017   0.47872   0.69645   0.00000  Uiso   1.00
C294   C     0.76411   0.57661   0.81185   0.00000  Uiso   1.00
C295   C     0.77491   0.62517   0.74896   0.00000  Uiso   1.00
C296   C     0.77968   0.66400   0.87152   0.00000  Uiso   1.00
C297   C     0.79581   0.48991   0.77044   0.00000  Uiso   1.00
C298   C     0.83329   0.46558   0.67274   0.00000  Uiso   1.00
C299   C     0.86476   0.43142   0.76046   0.00000  Uiso   1.00
H300   H     0.74202   0.50391   0.16987   0.00000  Uiso   1.00
H301   H     0.64907   0.47149   0.13189   0.00000  Uiso   1.00
H302   H     0.75851   0.59860   0.25201   0.00000  Uiso   1.00
H303   H     0.81687   0.43903   0.17580   0.00000  Uiso   1.00
H304   H     0.54859   0.43972   0.01087   0.00000  Uiso   1.00
H305   H     0.77936   0.70774   0.26414   0.00000  Uiso   1.00
H306   H     0.90243   0.37127   0.10345   0.00000  Uiso   1.00
H307   H     0.76186   0.53602   0.56169   0.00000  Uiso   1.00
H308   H     0.66999   0.50536   0.49033   0.00000  Uiso   1.00
H309   H     0.77943   0.63247   0.61045   0.00000  Uiso   1.00
H310   H     0.83779   0.47290   0.53425   0.00000  Uiso   1.00
H311   H     0.56556   0.46722   0.49015   0.00000  Uiso   1.00
H312   H     0.79634   0.73524   0.74343   0.00000  Uiso   1.00
H313   H     0.91941   0.39876   0.58274   0.00000  Uiso   1.00
O314   O     0.49628   0.43274   0.71455   0.00000  Uiso   1.00
O315   O     0.79905   0.78436   0.04684   0.00000  Uiso   1.00
O316   O     0.96052   0.34291   0.83602   0.00000  Uiso   1.00
N317   N     0.56519   0.45039   0.89810   0.00000  Uiso   1.00
N318   N     0.78094   0.70098   0.13490   0.00000  Uiso   1.00
N319   N     0.89602   0.38641   0.98468   0.00000  Uiso   1.00
N320   N     0.57433   0.46519   0.61791   0.00000  Uiso   1.00
N321   N     0.79008   0.71577   0.85471   0.00000  Uiso   1.00
N322   N     0.90515   0.40120   0.70449   0.00000  Uiso   1.00
C323   C     0.25343   0.48874   0.03053   0.00000  Uiso   1.00
C324   C     0.30118   0.50190   0.92556   0.00000  Uiso   1.00
C325   C     0.34642   0.52121   0.99338   0.00000  Uiso   1.00
C326   C     0.38567   0.53074   0.87575   0.00000  Uiso   1.00
C327   C     0.46071   0.55260   0.73999   0.00000  Uiso   1.00
C328   C     0.24173   0.43284   0.99082   0.00000  Uiso   1.00
C329   C     0.23698   0.39408   0.11352   0.00000  Uiso   1.00
C330   C     0.22617   0.34547   0.05082   0.00000  Uiso   1.00
C331   C     0.20887   0.26011   0.01639   0.00000  Uiso   1.00
C332   C     0.21002   0.51954   0.94942   0.00000  Uiso   1.00
C333   C     0.17860   0.55366   0.03730   0.00000  Uiso   1.00
C334   C     0.14109   0.57805   0.93975   0.00000  Uiso   1.00
C335   C     0.07456   0.62730   0.84104   0.00000  Uiso   1.00
C336   C     0.24269   0.47134   0.70103   0.00000  Uiso   1.00
C337   C     0.29535   0.49245   0.74659   0.00000  Uiso   1.00
C338   C     0.33454   0.50196   0.62882   0.00000  Uiso   1.00
C339   C     0.37983   0.52128   0.69645   0.00000  Uiso   1.00
C340   C     0.23589   0.42339   0.81185   0.00000  Uiso   1.00
C341   C     0.22509   0.37483   0.74896   0.00000  Uiso   1.00
C342   C     0.22032   0.33600   0.87152   0.00000  Uiso   1.00
C343   C     0.20419   0.51009   0.77044   0.00000  Uiso   1.00
C344   C     0.16671   0.53442   0.67274   0.00000  Uiso   1.00
C345   C     0.13524   0.56858   0.76046   0.00000  Uiso   1.00
H346   H     0.25798   0.49609   0.16987   0.00000  Uiso   1.00
H347   H     0.35093   0.52851   0.13189   0.00000  Uiso   1.00
H348   H     0.24149   0.40140   0.25201   0.00000  Uiso   1.00
H349   H     0.18313   0.56097   0.17580   0.00000  Uiso   1.00
H350   H     0.45141   0.56028   0.01087   0.00000  Uiso   1.00
H351   H     0.22064   0.29226   0.26414   0.00000  Uiso   1.00
H352   H     0.09757   0.62873   0.10345   0.00000  Uiso   1.00
H353   H     0.23814   0.46398   0.56169   0.00000  Uiso   1.00
H354   H     0.33001   0.49464   0.49033   0.00000  Uiso   1.00
H355   H     0.22057   0.36753   0.61045   0.00000  Uiso   1.00
H356   H     0.16221   0.52710   0.53425   0.00000  Uiso   1.00
H357   H     0.43444   0.53278   0.49015   0.00000  Uiso   1.00
H358   H     0.20366   0.26476   0.74343   0.00000  Uiso   1.00
H359   H     0.08059   0.60124   0.58274   0.00000  Uiso   1.00
O360   O     0.50372   0.56726   0.71455   0.00000  Uiso   1.00
O361   O     0.20095   0.21564   0.04684   0.00000  Uiso   1.00
O362   O     0.03948   0.65709   0.83602   0.00000  Uiso   1.00
N363   N     0.43481   0.54961   0.89810   0.00000  Uiso   1.00
N364   N     0.21906   0.29902   0.13490   0.00000  Uiso   1.00
N365   N     0.10398   0.61359   0.98468   0.00000  Uiso   1.00
N366   N     0.42567   0.53481   0.61791   0.00000  Uiso   1.00
N367   N     0.20992   0.28423   0.85471   0.00000  Uiso   1.00
N368   N     0.09485   0.59880   0.70449   0.00000  Uiso   1.00
