data_job_06911
_audit_creation_date              2018-12-19
_audit_creation_method            'Materials Studio'
_symmetry_space_group_name_H-M    'P1'
_symmetry_Int_Tables_number       1
_symmetry_cell_setting            triclinic
loop_
_symmetry_equiv_pos_as_xyz
  x,y,z
_cell_length_a                    20.2659
_cell_length_b                    20.4121
_cell_length_c                    22.5025
_cell_angle_alpha                 79.7888
_cell_angle_beta                  103.0955
_cell_angle_gamma                 67.4029
loop_
_atom_site_label
_atom_site_type_symbol
_atom_site_fract_x
_atom_site_fract_y
_atom_site_fract_z
_atom_site_U_iso_or_equiv
_atom_site_adp_type
_atom_site_occupancy
C1     C     0.32102   0.13523   0.14673   0.00000  Uiso   1.00
C2     C     0.26388   0.10540   0.12611   0.00000  Uiso   1.00
C3     C     0.19164   0.13197   0.13069   0.00000  Uiso   1.00
C4     C     0.14808   0.09717   0.10924   0.00000  Uiso   1.00
C5     C     0.05514   0.05984   0.08108   0.00000  Uiso   1.00
C6     C     0.39166   0.06917   0.19437   0.00000  Uiso   1.00
C7     C     0.42687   0.06529   0.25634   0.00000  Uiso   1.00
C8     C     0.49087  -0.00000   0.29234   0.00000  Uiso   1.00
C9     C     0.59636   0.90645   0.37014   0.00000  Uiso   1.00
C10    C     0.34254   0.15637   0.08802   0.00000  Uiso   1.00
C11    C     0.33645   0.22580   0.06056   0.00000  Uiso   1.00
C12    C     0.35912   0.23391   0.00703   0.00000  Uiso   1.00
C13    C     0.38832   0.27575   0.91970   0.00000  Uiso   1.00
C14    C     0.37211   0.02618   0.10049   0.00000  Uiso   1.00
C15    C     0.29163   0.04617   0.10100   0.00000  Uiso   1.00
C16    C     0.24816   0.01132   0.07953   0.00000  Uiso   1.00
C17    C     0.17587   0.03783   0.08408   0.00000  Uiso   1.00
C18    C     0.41941   0.00994   0.16926   0.00000  Uiso   1.00
C19    C     0.48338   0.94464   0.20518   0.00000  Uiso   1.00
C20    C     0.51867   0.94065   0.26719   0.00000  Uiso   1.00
C21    C     0.37028   0.09714   0.06290   0.00000  Uiso   1.00
C22    C     0.39297   0.10514   0.00941   0.00000  Uiso   1.00
C23    C     0.38692   0.17457   0.98187   0.00000  Uiso   1.00
H24    H     0.29942   0.18134   0.16628   0.00000  Uiso   1.00
H25    H     0.17019   0.17781   0.15014   0.00000  Uiso   1.00
H26    H     0.40538   0.11114   0.27576   0.00000  Uiso   1.00
H27    H     0.31498   0.27162   0.08001   0.00000  Uiso   1.00
H28    H     0.03916   0.14775   0.12118   0.00000  Uiso   1.00
H29    H     0.53509   0.00719   0.38605   0.00000  Uiso   1.00
H30    H     0.34446   0.34560   0.97329   0.00000  Uiso   1.00
H31    H     0.39371   0.98006   0.08094   0.00000  Uiso   1.00
H32    H     0.26965   0.96548   0.06010   0.00000  Uiso   1.00
H33    H     0.50484   0.89881   0.18573   0.00000  Uiso   1.00
H34    H     0.41444   0.05930   0.98998   0.00000  Uiso   1.00
H35    H     0.11989   0.97541   0.04811   0.00000  Uiso   1.00
H36    H     0.61582   0.83486   0.31299   0.00000  Uiso   1.00
H37    H     0.42518   0.17326   0.90022   0.00000  Uiso   1.00
O38    O     0.99622   0.05561   0.07250   0.00000  Uiso   1.00
O39    O     0.64687   0.87121   0.42000   0.00000  Uiso   1.00
O40    O     0.39676   0.31519   0.87846   0.00000  Uiso   1.00
N41    N     0.07518   0.10920   0.10683   0.00000  Uiso   1.00
N42    N     0.53884   0.97778   0.35448   0.00000  Uiso   1.00
N43    N     0.36063   0.29416   0.96858   0.00000  Uiso   1.00
N44    N     0.11862   0.01647   0.06751   0.00000  Uiso   1.00
N45    N     0.58227   0.88505   0.31516   0.00000  Uiso   1.00
N46    N     0.40407   0.20143   0.92926   0.00000  Uiso   1.00
C47    C     0.92162   0.62673   0.78314   0.00000  Uiso   1.00
C48    C     0.87804   0.58036   0.78576   0.00000  Uiso   1.00
C49    C     0.87430   0.53362   0.74858   0.00000  Uiso   1.00
C50    C     0.83144   0.49605   0.75816   0.00000  Uiso   1.00
C51    C     0.76948   0.42272   0.75533   0.00000  Uiso   1.00
C52    C     0.86407   0.70681   0.76984   0.00000  Uiso   1.00
C53    C     0.84859   0.76639   0.71929   0.00000  Uiso   1.00
C54    C     0.79396   0.83527   0.71548   0.00000  Uiso   1.00
C55    C     0.71035   0.95828   0.68797   0.00000  Uiso   1.00
C56    C     0.97513   0.60425   0.85078   0.00000  Uiso   1.00
C57    C     0.05304   0.57761   0.86827   0.00000  Uiso   1.00
C58    C     0.09192   0.56016   0.93260   0.00000  Uiso   1.00
C59    C     0.18075   0.52392   0.03076   0.00000  Uiso   1.00
C60    C     0.85214   0.64312   0.86627   0.00000  Uiso   1.00
C61    C     0.84030   0.58927   0.83091   0.00000  Uiso   1.00
C62    C     0.79743   0.55176   0.84055   0.00000  Uiso   1.00
C63    C     0.79363   0.50496   0.80339   0.00000  Uiso   1.00
C64    C     0.82633   0.71572   0.81500   0.00000  Uiso   1.00
C65    C     0.77171   0.78453   0.81126   0.00000  Uiso   1.00
C66    C     0.75615   0.84419   0.76071   0.00000  Uiso   1.00
C67    C     0.93739   0.61315   0.89593   0.00000  Uiso   1.00
C68    C     0.97616   0.59575   0.96025   0.00000  Uiso   1.00
C69    C     0.05411   0.56908   0.97784   0.00000  Uiso   1.00
H70    H     0.95100   0.61980   0.74798   0.00000  Uiso   1.00
H71    H     0.90351   0.52675   0.71363   0.00000  Uiso   1.00
H72    H     0.87781   0.75948   0.68436   0.00000  Uiso   1.00
H73    H     0.08222   0.57073   0.83332   0.00000  Uiso   1.00
H74    H     0.83420   0.42753   0.69545   0.00000  Uiso   1.00
H75    H     0.78002   0.91827   0.63372   0.00000  Uiso   1.00
H76    H     0.21106   0.52025   0.94784   0.00000  Uiso   1.00
H77    H     0.82275   0.65006   0.90143   0.00000  Uiso   1.00
H78    H     0.76823   0.55866   0.87550   0.00000  Uiso   1.00
H79    H     0.74252   0.79140   0.84622   0.00000  Uiso   1.00
H80    H     0.94694   0.60264   0.99518   0.00000  Uiso   1.00
H81    H     0.72439   0.45343   0.82682   0.00000  Uiso   1.00
H82    H     0.67022   0.94418   0.76510   0.00000  Uiso   1.00
H83    H     0.10126   0.54615   0.07921   0.00000  Uiso   1.00
O84    O     0.74572   0.37983   0.74130   0.00000  Uiso   1.00
O85    O     0.67465   0.02367   0.66032   0.00000  Uiso   1.00
O86    O     0.24017   0.50147   0.07243   0.00000  Uiso   1.00
N87    N     0.81585   0.44616   0.72994   0.00000  Uiso   1.00
N88    N     0.76519   0.90497   0.67222   0.00000  Uiso   1.00
N89    N     0.16818   0.53287   0.96589   0.00000  Uiso   1.00
N90    N     0.75677   0.46009   0.80063   0.00000  Uiso   1.00
N91    N     0.70610   0.91891   0.74291   0.00000  Uiso   1.00
N92    N     0.10909   0.54681   0.03658   0.00000  Uiso   1.00
C93    C     0.18280   0.37471   0.77610   0.00000  Uiso   1.00
C94    C     0.13264   0.35025   0.80625   0.00000  Uiso   1.00
C95    C     0.15059   0.31553   0.87051   0.00000  Uiso   1.00
C96    C     0.09710   0.29757   0.88860   0.00000  Uiso   1.00
C97    C     0.02971   0.25709   0.94219   0.00000  Uiso   1.00
C98    C     0.19276   0.33682   0.72395   0.00000  Uiso   1.00
C99    C     0.26126   0.29083   0.71901   0.00000  Uiso   1.00
C100   C     0.25838   0.26158   0.66781   0.00000  Uiso   1.00
C101   C     0.28434   0.20030   0.59360   0.00000  Uiso   1.00
C102   C     0.13602   0.45750   0.74180   0.00000  Uiso   1.00
C103   C     0.15681   0.51299   0.75186   0.00000  Uiso   1.00
C104   C     0.10616   0.58534   0.71567   0.00000  Uiso   1.00
C105   C     0.04402   0.71144   0.66918   0.00000  Uiso   1.00
C106   C     0.05587   0.40455   0.69393   0.00000  Uiso   1.00
C107   C     0.06370   0.36645   0.76162   0.00000  Uiso   1.00
C108   C     0.01016   0.34854   0.77961   0.00000  Uiso   1.00
C109   C     0.02803   0.31381   0.84389   0.00000  Uiso   1.00
C110   C     0.12382   0.35302   0.67932   0.00000  Uiso   1.00
C111   C     0.12084   0.32384   0.62810   0.00000  Uiso   1.00
C112   C     0.18932   0.27782   0.62309   0.00000  Uiso   1.00
C113   C     0.06707   0.47371   0.69717   0.00000  Uiso   1.00
C114   C     0.01638   0.54599   0.66095   0.00000  Uiso   1.00
C115   C     0.03710   0.60158   0.67096   0.00000  Uiso   1.00
H116   H     0.23647   0.36209   0.81084   0.00000  Uiso   1.00
H117   H     0.20395   0.30300   0.90504   0.00000  Uiso   1.00
H118   H     0.31460   0.27831   0.75355   0.00000  Uiso   1.00
H119   H     0.21017   0.50043   0.78640   0.00000  Uiso   1.00
H120   H     0.13750   0.24460   0.98978   0.00000  Uiso   1.00
H121   H     0.37082   0.19256   0.67036   0.00000  Uiso   1.00
H122   H     0.15060   0.66094   0.73961   0.00000  Uiso   1.00
H123   H     0.00220   0.41716   0.65918   0.00000  Uiso   1.00
H124   H     0.95682   0.36109   0.74506   0.00000  Uiso   1.00
H125   H     0.06748   0.33640   0.59357   0.00000  Uiso   1.00
H126   H     0.96304   0.55851   0.62642   0.00000  Uiso   1.00
H127   H     0.93692   0.29174   0.85994   0.00000  Uiso   1.00
H128   H     0.17025   0.23971   0.54051   0.00000  Uiso   1.00
H129   H     0.95002   0.70809   0.60977   0.00000  Uiso   1.00
O130   O     0.01160   0.23027   0.98408   0.00000  Uiso   1.00
O131   O     0.31771   0.16201   0.56501   0.00000  Uiso   1.00
O132   O     0.02878   0.77651   0.65587   0.00000  Uiso   1.00
N133   N     0.09652   0.26340   0.94744   0.00000  Uiso   1.00
N134   N     0.31466   0.21474   0.64880   0.00000  Uiso   1.00
N135   N     0.10878   0.65264   0.71354   0.00000  Uiso   1.00
N136   N     0.98859   0.28877   0.87757   0.00000  Uiso   1.00
N137   N     0.20673   0.24011   0.57894   0.00000  Uiso   1.00
N138   N     0.00085   0.67801   0.64367   0.00000  Uiso   1.00
C139   C     0.60901   0.30487   0.60539   0.00000  Uiso   1.00
C140   C     0.57658   0.25829   0.57454   0.00000  Uiso   1.00
C141   C     0.61767   0.19428   0.56062   0.00000  Uiso   1.00
C142   C     0.57755   0.15971   0.53241   0.00000  Uiso   1.00
C143   C     0.53913   0.08303   0.48664   0.00000  Uiso   1.00
C144   C     0.58511   0.30887   0.66473   0.00000  Uiso   1.00
C145   C     0.63338   0.28740   0.72663   0.00000  Uiso   1.00
C146   C     0.60044   0.29542   0.77434   0.00000  Uiso   1.00
C147   C     0.57526   0.29732   0.86857   0.00000  Uiso   1.00
C148   C     0.56643   0.38338   0.55953   0.00000  Uiso   1.00
C149   C     0.59900   0.42457   0.53300   0.00000  Uiso   1.00
C150   C     0.55033   0.49534   0.49215   0.00000  Uiso   1.00
C151   C     0.49615   0.61293   0.42305   0.00000  Uiso   1.00
C152   C     0.46468   0.35731   0.58004   0.00000  Uiso   1.00
C153   C     0.49818   0.28677   0.56077   0.00000  Uiso   1.00
C154   C     0.45799   0.25229   0.53257   0.00000  Uiso   1.00
C155   C     0.49902   0.18825   0.51861   0.00000  Uiso   1.00
C156   C     0.50672   0.33735   0.65096   0.00000  Uiso   1.00
C157   C     0.47370   0.34541   0.69858   0.00000  Uiso   1.00
C158   C     0.52191   0.32395   0.76054   0.00000  Uiso   1.00
C159   C     0.48804   0.41187   0.54576   0.00000  Uiso   1.00
C160   C     0.43932   0.48259   0.50495   0.00000  Uiso   1.00
C161   C     0.47180   0.52388   0.47835   0.00000  Uiso   1.00
H162   H     0.67004   0.28270   0.61612   0.00000  Uiso   1.00
H163   H     0.67834   0.17225   0.57129   0.00000  Uiso   1.00
H164   H     0.69404   0.26536   0.73728   0.00000  Uiso   1.00
H165   H     0.65966   0.40252   0.54367   0.00000  Uiso   1.00
H166   H     0.65298   0.06235   0.51555   0.00000  Uiso   1.00
H167   H     0.68609   0.25870   0.86553   0.00000  Uiso   1.00
H168   H     0.61359   0.54792   0.45727   0.00000  Uiso   1.00
H169   H     0.40364   0.37948   0.56932   0.00000  Uiso   1.00
H170   H     0.39733   0.27435   0.52192   0.00000  Uiso   1.00
H171   H     0.41303   0.36746   0.68791   0.00000  Uiso   1.00
H172   H     0.37865   0.50461   0.49430   0.00000  Uiso   1.00
H173   H     0.42490   0.14521   0.47548   0.00000  Uiso   1.00
H174   H     0.45801   0.34157   0.82546   0.00000  Uiso   1.00
H175   H     0.38551   0.63078   0.41720   0.00000  Uiso   1.00
O176   O     0.53959   0.03286   0.46520   0.00000  Uiso   1.00
O177   O     0.58303   0.29048   0.92436   0.00000  Uiso   1.00
O178   O     0.48792   0.66992   0.38873   0.00000  Uiso   1.00
N179   N     0.60016   0.09629   0.51261   0.00000  Uiso   1.00
N180   N     0.63112   0.27986   0.83982   0.00000  Uiso   1.00
N181   N     0.56335   0.55025   0.45815   0.00000  Uiso   1.00
N182   N     0.47743   0.14087   0.49105   0.00000  Uiso   1.00
N183   N     0.50839   0.32445   0.81826   0.00000  Uiso   1.00
N184   N     0.44062   0.59484   0.43659   0.00000  Uiso   1.00
C185   C     0.76672   0.22265   0.34124   0.00000  Uiso   1.00
C186   C     0.69525   0.21145   0.33122   0.00000  Uiso   1.00
C187   C     0.62785   0.25438   0.28148   0.00000  Uiso   1.00
C188   C     0.56906   0.23513   0.28079   0.00000  Uiso   1.00
C189   C     0.45683   0.22686   0.25801   0.00000  Uiso   1.00
C190   C     0.82933   0.14915   0.34433   0.00000  Uiso   1.00
C191   C     0.87466   0.13970   0.30563   0.00000  Uiso   1.00
C192   C     0.92874   0.06801   0.31598   0.00000  Uiso   1.00
C193   C     0.02470   0.96301   0.31359   0.00000  Uiso   1.00
C194   C     0.78616   0.23160   0.40792   0.00000  Uiso   1.00
C195   C     0.79523   0.29147   0.42269   0.00000  Uiso   1.00
C196   C     0.81298   0.28919   0.48658   0.00000  Uiso   1.00
C197   C     0.84192   0.31222   0.58293   0.00000  Uiso   1.00
C198   C     0.78216   0.11214   0.42846   0.00000  Uiso   1.00
C199   C     0.70364   0.15143   0.37860   0.00000  Uiso   1.00
C200   C     0.64493   0.13212   0.37798   0.00000  Uiso   1.00
C201   C     0.57746   0.17500   0.32825   0.00000  Uiso   1.00
C202   C     0.83771   0.08913   0.39171   0.00000  Uiso   1.00
C203   C     0.89174   0.01744   0.40212   0.00000  Uiso   1.00
C204   C     0.93714   0.00787   0.36344   0.00000  Uiso   1.00
C205   C     0.79455   0.17158   0.45530   0.00000  Uiso   1.00
C206   C     0.81230   0.16921   0.51919   0.00000  Uiso   1.00
C207   C     0.82138   0.22906   0.53404   0.00000  Uiso   1.00
H208   H     0.76019   0.26937   0.30436   0.00000  Uiso   1.00
H209   H     0.62139   0.30082   0.24483   0.00000  Uiso   1.00
H210   H     0.86816   0.18616   0.26897   0.00000  Uiso   1.00
H211   H     0.78873   0.33791   0.38601   0.00000  Uiso   1.00
H212   H     0.47120   0.30919   0.19971   0.00000  Uiso   1.00
H213   H     0.99156   0.06743   0.25063   0.00000  Uiso   1.00
H214   H     0.82407   0.38742   0.49744   0.00000  Uiso   1.00
H215   H     0.78869   0.06541   0.46534   0.00000  Uiso   1.00
H216   H     0.65144   0.08566   0.41465   0.00000  Uiso   1.00
H217   H     0.89822   0.97100   0.43879   0.00000  Uiso   1.00
H218   H     0.81879   0.12275   0.55583   0.00000  Uiso   1.00
H219   H     0.49559   0.13456   0.33754   0.00000  Uiso   1.00
H220   H     0.01595   0.89280   0.38847   0.00000  Uiso   1.00
H221   H     0.84846   0.21279   0.63527   0.00000  Uiso   1.00
O222   O     0.39261   0.23887   0.23236   0.00000  Uiso   1.00
O223   O     0.07530   0.92169   0.29918   0.00000  Uiso   1.00
O224   O     0.85555   0.34151   0.62298   0.00000  Uiso   1.00
N225   N     0.49577   0.26533   0.23911   0.00000  Uiso   1.00
N226   N     0.98227   0.03929   0.28671   0.00000  Uiso   1.00
N227   N     0.82570   0.33845   0.51746   0.00000  Uiso   1.00
N228   N     0.50890   0.17136   0.31328   0.00000  Uiso   1.00
N229   N     0.99539   0.94532   0.36088   0.00000  Uiso   1.00
N230   N     0.83882   0.24448   0.59163   0.00000  Uiso   1.00
C231   C     0.44353   0.54416   0.26784   0.00000  Uiso   1.00
C232   C     0.41358   0.48729   0.28288   0.00000  Uiso   1.00
C233   C     0.40491   0.46210   0.34074   0.00000  Uiso   1.00
C234   C     0.37659   0.41000   0.34492   0.00000  Uiso   1.00
C235   C     0.33293   0.32567   0.37614   0.00000  Uiso   1.00
C236   C     0.38249   0.60604   0.20948   0.00000  Uiso   1.00
C237   C     0.34770   0.68069   0.20562   0.00000  Uiso   1.00
C238   C     0.29321   0.72854   0.14800   0.00000  Uiso   1.00
C239   C     0.20132   0.82858   0.06526   0.00000  Uiso   1.00
C240   C     0.51060   0.50643   0.24575   0.00000  Uiso   1.00
C241   C     0.58352   0.49735   0.27238   0.00000  Uiso   1.00
C242   C     0.63689   0.46136   0.24529   0.00000  Uiso   1.00
C243   C     0.74391   0.40675   0.21886   0.00000  Uiso   1.00
C244   C     0.40864   0.49642   0.17238   0.00000  Uiso   1.00
C245   C     0.39463   0.46137   0.23103   0.00000  Uiso   1.00
C246   C     0.36631   0.40928   0.23512   0.00000  Uiso   1.00
C247   C     0.35761   0.38402   0.29297   0.00000  Uiso   1.00
C248   C     0.36354   0.58011   0.15763   0.00000  Uiso   1.00
C249   C     0.30909   0.62787   0.10000   0.00000  Uiso   1.00
C250   C     0.27422   0.70257   0.09606   0.00000  Uiso   1.00
C251   C     0.49165   0.48050   0.19390   0.00000  Uiso   1.00
C252   C     0.54491   0.44453   0.16676   0.00000  Uiso   1.00
C253   C     0.61790   0.43539   0.19334   0.00000  Uiso   1.00
H254   H     0.45828   0.56435   0.30821   0.00000  Uiso   1.00
H255   H     0.41958   0.48219   0.38085   0.00000  Uiso   1.00
H256   H     0.36238   0.70073   0.24575   0.00000  Uiso   1.00
H257   H     0.59816   0.51743   0.31250   0.00000  Uiso   1.00
H258   H     0.36829   0.37968   0.43852   0.00000  Uiso   1.00
H259   H     0.24769   0.84050   0.15364   0.00000  Uiso   1.00
H260   H     0.74490   0.45396   0.29440   0.00000  Uiso   1.00
H261   H     0.39388   0.47623   0.13201   0.00000  Uiso   1.00
H262   H     0.35165   0.38923   0.19498   0.00000  Uiso   1.00
H263   H     0.29444   0.60778   0.05988   0.00000  Uiso   1.00
H264   H     0.53023   0.42447   0.12663   0.00000  Uiso   1.00
H265   H     0.31315   0.30423   0.28766   0.00000  Uiso   1.00
H266   H     0.19256   0.76506   0.00278   0.00000  Uiso   1.00
H267   H     0.68975   0.37852   0.14354   0.00000  Uiso   1.00
O268   O     0.31408   0.28633   0.40768   0.00000  Uiso   1.00
O269   O     0.15587   0.89092   0.03394   0.00000  Uiso   1.00
O270   O     0.80818   0.38378   0.21861   0.00000  Uiso   1.00
N271   N     0.36112   0.37385   0.39437   0.00000  Uiso   1.00
N272   N     0.24836   0.80470   0.12804   0.00000  Uiso   1.00
N273   N     0.71320   0.44333   0.25962   0.00000  Uiso   1.00
N274   N     0.33145   0.33325   0.31320   0.00000  Uiso   1.00
N275   N     0.21870   0.76410   0.04686   0.00000  Uiso   1.00
N276   N     0.68353   0.40273   0.17844   0.00000  Uiso   1.00
C277   C     0.73233   0.86042   0.96433   0.00000  Uiso   1.00
C278   C     0.81141   0.85258   0.96899   0.00000  Uiso   1.00
C279   C     0.86436   0.80015   0.95107   0.00000  Uiso   1.00
C280   C     0.93346   0.80214   0.95908   0.00000  Uiso   1.00
C281   C     0.05387   0.78199   0.96248   0.00000  Uiso   1.00
C282   C     0.67794   0.94005   0.92411   0.00000  Uiso   1.00
C283   C     0.61867   0.96116   0.86846   0.00000  Uiso   1.00
C284   C     0.57541   0.03679   0.83869   0.00000  Uiso   1.00
C285   C     0.48858   0.15244   0.77244   0.00000  Uiso   1.00
C286   C     0.72723   0.85497   0.03146   0.00000  Uiso   1.00
C287   C     0.70937   0.80456   0.06607   0.00000  Uiso   1.00
C288   C     0.70760   0.80858   0.12668   0.00000  Uiso   1.00
C289   C     0.69729   0.79213   0.22711   0.00000  Uiso   1.00
C290   C     0.76091   0.95721   0.01042   0.00000  Uiso   1.00
C291   C     0.82693   0.90515   0.99402   0.00000  Uiso   1.00
C292   C     0.89597   0.90723   0.00207   0.00000  Uiso   1.00
C293   C     0.94901   0.85480   0.98416   0.00000  Uiso   1.00
C294   C     0.69346   0.99262   0.94914   0.00000  Uiso   1.00
C295   C     0.65028   0.06824   0.91945   0.00000  Uiso   1.00
C296   C     0.59096   0.08946   0.86377   0.00000  Uiso   1.00
C297   C     0.74275   0.90754   0.05649   0.00000  Uiso   1.00
C298   C     0.74100   0.91164   0.11706   0.00000  Uiso   1.00
C299   C     0.72314   0.86124   0.15176   0.00000  Uiso   1.00
H300   H     0.72025   0.81950   0.94483   0.00000  Uiso   1.00
H301   H     0.85232   0.75948   0.93169   0.00000  Uiso   1.00
H302   H     0.60666   0.92046   0.84910   0.00000  Uiso   1.00
H303   H     0.69736   0.76389   0.04668   0.00000  Uiso   1.00
H304   H     0.00558   0.71613   0.92814   0.00000  Uiso   1.00
H305   H     0.48759   0.05558   0.75400   0.00000  Uiso   1.00
H306   H     0.67884   0.72541   0.17063   0.00000  Uiso   1.00
H307   H     0.77299   0.99814   0.02991   0.00000  Uiso   1.00
H308   H     0.90797   0.94792   0.02144   0.00000  Uiso   1.00
H309   H     0.66231   0.10890   0.93884   0.00000  Uiso   1.00
H310   H     0.75301   0.95233   0.13642   0.00000  Uiso   1.00
H311   H     0.05075   0.86908   0.00098   0.00000  Uiso   1.00
H312   H     0.53275   0.20853   0.82684   0.00000  Uiso   1.00
H313   H     0.72401   0.87836   0.24347   0.00000  Uiso   1.00
O314   O     0.11599   0.75636   0.95744   0.00000  Uiso   1.00
O315   O     0.43640   0.20170   0.72898   0.00000  Uiso   1.00
O316   O     0.68732   0.76853   0.27559   0.00000  Uiso   1.00
N317   N     0.99770   0.75901   0.94646   0.00000  Uiso   1.00
N318   N     0.51341   0.07638   0.78364   0.00000  Uiso   1.00
N319   N     0.69220   0.76771   0.17315   0.00000  Uiso   1.00
N320   N     0.02200   0.84131   0.98566   0.00000  Uiso   1.00
N321   N     0.53771   0.15868   0.82284   0.00000  Uiso   1.00
N322   N     0.71650   0.85001   0.21235   0.00000  Uiso   1.00
C323   C     0.07905   0.43778   0.30379   0.00000  Uiso   1.00
C324   C     0.12406   0.48171   0.29479   0.00000  Uiso   1.00
C325   C     0.14673   0.51706   0.33681   0.00000  Uiso   1.00
C326   C     0.18749   0.55433   0.31994   0.00000  Uiso   1.00
C327   C     0.25477   0.62224   0.31463   0.00000  Uiso   1.00
C328   C     0.12620   0.36062   0.30013   0.00000  Uiso   1.00
C329   C     0.15066   0.29417   0.34665   0.00000  Uiso   1.00
C330   C     0.19320   0.22950   0.33428   0.00000  Uiso   1.00
C331   C     0.26376   0.10941   0.33724   0.00000  Uiso   1.00
C332   C     0.00886   0.47328   0.24471   0.00000  Uiso   1.00
C333   C     0.93465   0.50153   0.24462   0.00000  Uiso   1.00
C334   C     0.87840   0.53169   0.18558   0.00000  Uiso   1.00
C335   C     0.76677   0.58652   0.10249   0.00000  Uiso   1.00
C336   C     0.11112   0.44110   0.19910   0.00000  Uiso   1.00
C337   C     0.14148   0.48351   0.23792   0.00000  Uiso   1.00
C338   C     0.18221   0.52074   0.22098   0.00000  Uiso   1.00
C339   C     0.20494   0.55614   0.26298   0.00000  Uiso   1.00
C340   C     0.14362   0.36242   0.24327   0.00000  Uiso   1.00
C341   C     0.18614   0.29784   0.23082   0.00000  Uiso   1.00
C342   C     0.21066   0.23131   0.27731   0.00000  Uiso   1.00
C343   C     0.02628   0.47508   0.18784   0.00000  Uiso   1.00
C344   C     0.97013   0.50520   0.12879   0.00000  Uiso   1.00
C345   C     0.89585   0.53350   0.12861   0.00000  Uiso   1.00
H346   H     0.06549   0.43637   0.34806   0.00000  Uiso   1.00
H347   H     0.13325   0.51565   0.38082   0.00000  Uiso   1.00
H348   H     0.13716   0.29279   0.39065   0.00000  Uiso   1.00
H349   H     0.92119   0.50012   0.28863   0.00000  Uiso   1.00
H350   H     0.21607   0.60432   0.39206   0.00000  Uiso   1.00
H351   H     0.22431   0.13440   0.41279   0.00000  Uiso   1.00
H352   H     0.76889   0.57160   0.19767   0.00000  Uiso   1.00
H353   H     0.12468   0.44250   0.15483   0.00000  Uiso   1.00
H354   H     0.19568   0.52212   0.17698   0.00000  Uiso   1.00
H355   H     0.19960   0.29926   0.18681   0.00000  Uiso   1.00
H356   H     0.98363   0.50659   0.08480   0.00000  Uiso   1.00
H357   H     0.26675   0.60957   0.22662   0.00000  Uiso   1.00
H358   H     0.27499   0.13965   0.24735   0.00000  Uiso   1.00
H359   H     0.81958   0.57685   0.03223   0.00000  Uiso   1.00
O360   O     0.28708   0.65919   0.32741   0.00000  Uiso   1.00
O361   O     0.29787   0.04268   0.35460   0.00000  Uiso   1.00
O362   O     0.70038   0.61627   0.07237   0.00000  Uiso   1.00
N363   N     0.21824   0.59464   0.35008   0.00000  Uiso   1.00
N364   N     0.22596   0.15530   0.36946   0.00000  Uiso   1.00
N365   N     0.80018   0.56402   0.16835   0.00000  Uiso   1.00
N366   N     0.24551   0.59747   0.26106   0.00000  Uiso   1.00
N367   N     0.25323   0.15812   0.28044   0.00000  Uiso   1.00
N368   N     0.82745   0.56685   0.07932   0.00000  Uiso   1.00
C369   C     0.90379   0.71730   0.34898   0.00000  Uiso   1.00
C370   C     0.95141   0.74074   0.31449   0.00000  Uiso   1.00
C371   C     0.93038   0.77271   0.24925   0.00000  Uiso   1.00
C372   C     0.98191   0.79016   0.22701   0.00000  Uiso   1.00
C373   C     0.04519   0.82874   0.16713   0.00000  Uiso   1.00
C374   C     0.89621   0.75819   0.39943   0.00000  Uiso   1.00
C375   C     0.82878   0.80482   0.40561   0.00000  Uiso   1.00
C376   C     0.83386   0.83694   0.45488   0.00000  Uiso   1.00
C377   C     0.81145   0.90256   0.52691   0.00000  Uiso   1.00
C378   C     0.95207   0.63525   0.38546   0.00000  Uiso   1.00
C379   C     0.93160   0.57852   0.37991   0.00000  Uiso   1.00
C380   C     0.98370   0.50714   0.41743   0.00000  Uiso   1.00
C381   C     0.04801   0.38188   0.46776   0.00000  Uiso   1.00
C382   C     0.03269   0.69144   0.42550   0.00000  Uiso   1.00
C383   C     0.02142   0.72670   0.35605   0.00000  Uiso   1.00
C384   C     0.07300   0.74410   0.33390   0.00000  Uiso   1.00
C385   C     0.05206   0.77609   0.26864   0.00000  Uiso   1.00
C386   C     0.96623   0.74414   0.44099   0.00000  Uiso   1.00
C387   C     0.97140   0.77621   0.49027   0.00000  Uiso   1.00
C388   C     0.90400   0.82287   0.49652   0.00000  Uiso   1.00
C389   C     0.02209   0.62121   0.42702   0.00000  Uiso   1.00
C390   C     0.07422   0.54991   0.46456   0.00000  Uiso   1.00
C391   C     0.05384   0.49307   0.45906   0.00000  Uiso   1.00
H392   H     0.84927   0.72824   0.31663   0.00000  Uiso   1.00
H393   H     0.87619   0.78358   0.21710   0.00000  Uiso   1.00
H394   H     0.77461   0.81567   0.37345   0.00000  Uiso   1.00
H395   H     0.87741   0.58941   0.34774   0.00000  Uiso   1.00
H396   H     0.93690   0.83877   0.12509   0.00000  Uiso   1.00
H397   H     0.72271   0.90641   0.45476   0.00000  Uiso   1.00
H398   H     0.93949   0.42929   0.40056   0.00000  Uiso   1.00
H399   H     0.08720   0.68051   0.45786   0.00000  Uiso   1.00
H400   H     0.12718   0.73323   0.36608   0.00000  Uiso   1.00
H401   H     0.02560   0.76532   0.52242   0.00000  Uiso   1.00
H402   H     0.12840   0.53906   0.49672   0.00000  Uiso   1.00
H403   H     0.14061   0.79790   0.24600   0.00000  Uiso   1.00
H404   H     0.92642   0.86555   0.57568   0.00000  Uiso   1.00
H405   H     0.14320   0.38843   0.52147   0.00000  Uiso   1.00
O406   O     0.06074   0.85390   0.12262   0.00000  Uiso   1.00
O407   O     0.77974   0.94264   0.55515   0.00000  Uiso   1.00
O408   O     0.06415   0.31667   0.48404   0.00000  Uiso   1.00
N409   N     0.97936   0.82190   0.16614   0.00000  Uiso   1.00
N410   N     0.77911   0.88515   0.47436   0.00000  Uiso   1.00
N411   N     0.98177   0.43909   0.42370   0.00000  Uiso   1.00
N412   N     0.08898   0.79991   0.23120   0.00000  Uiso   1.00
N413   N     0.88872   0.86317   0.53942   0.00000  Uiso   1.00
N414   N     0.09139   0.41710   0.48876   0.00000  Uiso   1.00
C415   C     0.26287   0.82242   0.55827   0.00000  Uiso   1.00
C416   C     0.30741   0.85792   0.59273   0.00000  Uiso   1.00
C417   C     0.27712   0.92038   0.61256   0.00000  Uiso   1.00
C418   C     0.32732   0.94415   0.64327   0.00000  Uiso   1.00
C419   C     0.38466   0.00497   0.69515   0.00000  Uiso   1.00
C420   C     0.28149   0.82044   0.49645   0.00000  Uiso   1.00
C421   C     0.22940   0.85137   0.43534   0.00000  Uiso   1.00
C422   C     0.25778   0.84358   0.38501   0.00000  Uiso   1.00
C423   C     0.27488   0.84617   0.28742   0.00000  Uiso   1.00
C424   C     0.29771   0.74174   0.59884   0.00000  Uiso   1.00
C425   C     0.25925   0.70651   0.62380   0.00000  Uiso   1.00
C426   C     0.30129   0.63246   0.65965   0.00000  Uiso   1.00
C427   C     0.34356   0.51286   0.72103   0.00000  Uiso   1.00
C428   C     0.40588   0.75358   0.57754   0.00000  Uiso   1.00
C429   C     0.38509   0.82052   0.60319   0.00000  Uiso   1.00
C430   C     0.43535   0.84420   0.63388   0.00000  Uiso   1.00
C431   C     0.40514   0.90669   0.65376   0.00000  Uiso   1.00
C432   C     0.35917   0.78304   0.50692   0.00000  Uiso   1.00
C433   C     0.38763   0.77520   0.45666   0.00000  Uiso   1.00
C434   C     0.33560   0.80612   0.39549   0.00000  Uiso   1.00
C435   C     0.37539   0.70435   0.60931   0.00000  Uiso   1.00
C436   C     0.41749   0.63034   0.64512   0.00000  Uiso   1.00
C437   C     0.37911   0.59499   0.67014   0.00000  Uiso   1.00
H438   H     0.20239   0.85154   0.55012   0.00000  Uiso   1.00
H439   H     0.21700   0.94931   0.60445   0.00000  Uiso   1.00
H440   H     0.16929   0.88030   0.42726   0.00000  Uiso   1.00
H441   H     0.19914   0.73546   0.61569   0.00000  Uiso   1.00
H442   H     0.26745   0.04122   0.66927   0.00000  Uiso   1.00
H443   H     0.16686   0.89571   0.29566   0.00000  Uiso   1.00
H444   H     0.22979   0.59028   0.69300   0.00000  Uiso   1.00
H445   H     0.46636   0.72446   0.58569   0.00000  Uiso   1.00
H446   H     0.49546   0.81525   0.64197   0.00000  Uiso   1.00
H447   H     0.44775   0.74625   0.46478   0.00000  Uiso   1.00
H448   H     0.47760   0.60141   0.65321   0.00000  Uiso   1.00
H449   H     0.49346   0.93242   0.69973   0.00000  Uiso   1.00
H450   H     0.39286   0.78691   0.32611   0.00000  Uiso   1.00
H451   H     0.45580   0.48148   0.72346   0.00000  Uiso   1.00
O452   O     0.39483   0.04886   0.72086   0.00000  Uiso   1.00
O453   O     0.26285   0.85793   0.23070   0.00000  Uiso   1.00
O454   O     0.34543   0.45723   0.75201   0.00000  Uiso   1.00
N455   N     0.31665   0.00315   0.66873   0.00000  Uiso   1.00
N456   N     0.22260   0.86711   0.31942   0.00000  Uiso   1.00
N457   N     0.28144   0.58156   0.69089   0.00000  Uiso   1.00
N458   N     0.43826   0.94460   0.68512   0.00000  Uiso   1.00
N459   N     0.34421   0.80856   0.33581   0.00000  Uiso   1.00
N460   N     0.40305   0.52301   0.70728   0.00000  Uiso   1.00
C461   C     0.10560   0.00299   0.80464   0.00000  Uiso   1.00
C462   C     0.16336   0.03412   0.80874   0.00000  Uiso   1.00
C463   C     0.23568   0.00089   0.85262   0.00000  Uiso   1.00
C464   C     0.27984   0.03823   0.84849   0.00000  Uiso   1.00
C465   C     0.37365   0.07622   0.86193   0.00000  Uiso   1.00
C466   C     0.03540   0.06294   0.80992   0.00000  Uiso   1.00
C467   C     0.00014   0.05393   0.85478   0.00000  Uiso   1.00
C468   C     0.93658   0.11554   0.85164   0.00000  Uiso   1.00
C469   C     0.83171   0.19824   0.86688   0.00000  Uiso   1.00
C470   C     0.08366   0.99787   0.73678   0.00000  Uiso   1.00
C471   C     0.08895   0.93416   0.72015   0.00000  Uiso   1.00
C472   C     0.06601   0.94099   0.65543   0.00000  Uiso   1.00
C473   C     0.03607   0.92268   0.55711   0.00000  Uiso   1.00
C474   C     0.05543   0.12840   0.71928   0.00000  Uiso   1.00
C475   C     0.13610   0.10224   0.76237   0.00000  Uiso   1.00
C476   C     0.18017   0.13964   0.75818   0.00000  Uiso   1.00
C477   C     0.25254   0.10647   0.80204   0.00000  Uiso   1.00
C478   C     0.00815   0.13105   0.76355   0.00000  Uiso   1.00
C479   C     0.94463   0.19268   0.76034   0.00000  Uiso   1.00
C480   C     0.90928   0.18378   0.80520   0.00000  Uiso   1.00
C481   C     0.05641   0.06599   0.69041   0.00000  Uiso   1.00
C482   C     0.03345   0.07292   0.62571   0.00000  Uiso   1.00
C483   C     0.03871   0.00923   0.60898   0.00000  Uiso   1.00
H484   H     0.12681   0.94996   0.84074   0.00000  Uiso   1.00
H485   H     0.25674   0.94818   0.88850   0.00000  Uiso   1.00
H486   H     0.02123   0.00121   0.89065   0.00000  Uiso   1.00
H487   H     0.11004   0.88146   0.75604   0.00000  Uiso   1.00
H488   H     0.38876   0.97625   0.92101   0.00000  Uiso   1.00
H489   H     0.89217   0.08807   0.92555   0.00000  Uiso   1.00
H490   H     0.07944   0.83555   0.64169   0.00000  Uiso   1.00
H491   H     0.03422   0.18144   0.68318   0.00000  Uiso   1.00
H492   H     0.15907   0.19235   0.72229   0.00000  Uiso   1.00
H493   H     0.92356   0.24538   0.72445   0.00000  Uiso   1.00
H494   H     0.01237   0.12564   0.58984   0.00000  Uiso   1.00
H495   H     0.30949   0.17443   0.78612   0.00000  Uiso   1.00
H496   H     0.81289   0.28625   0.79066   0.00000  Uiso   1.00
H497   H     0.00016   0.03374   0.50680   0.00000  Uiso   1.00
O498   O     0.43292   0.07836   0.88215   0.00000  Uiso   1.00
O499   O     0.78140   0.22505   0.88810   0.00000  Uiso   1.00
O500   O     0.02709   0.89376   0.51568   0.00000  Uiso   1.00
N501   N     0.35298   0.02139   0.88389   0.00000  Uiso   1.00
N502   N     0.88870   0.12593   0.88814   0.00000  Uiso   1.00
N503   N     0.06376   0.88986   0.62276   0.00000  Uiso   1.00
N504   N     0.31032   0.12803   0.81130   0.00000  Uiso   1.00
N505   N     0.84604   0.23257   0.81555   0.00000  Uiso   1.00
N506   N     0.02110   0.99650   0.55017   0.00000  Uiso   1.00
C507   C     0.62102   0.49404   0.88982   0.00000  Uiso   1.00
C508   C     0.61297   0.57312   0.87583   0.00000  Uiso   1.00
C509   C     0.61213   0.61424   0.81925   0.00000  Uiso   1.00
C510   C     0.60425   0.68557   0.81587   0.00000  Uiso   1.00
C511   C     0.59282   0.80392   0.78634   0.00000  Uiso   1.00
C512   C     0.68919   0.44872   0.95003   0.00000  Uiso   1.00
C513   C     0.75244   0.38525   0.95585   0.00000  Uiso   1.00
C514   C     0.80872   0.35186   0.01494   0.00000  Uiso   1.00
C515   C     0.91560   0.27705   0.10063   0.00000  Uiso   1.00
C516   C     0.55235   0.49696   0.90844   0.00000  Uiso   1.00
C517   C     0.50054   0.47403   0.87929   0.00000  Uiso   1.00
C518   C     0.44162   0.48124   0.90338   0.00000  Uiso   1.00
C519   C     0.33602   0.48134   0.92448   0.00000  Uiso   1.00
C520   C     0.60852   0.54758   0.98443   0.00000  Uiso   1.00
C521   C     0.60618   0.60220   0.92721   0.00000  Uiso   1.00
C522   C     0.59830   0.67348   0.92392   0.00000  Uiso   1.00
C523   C     0.59745   0.71471   0.86735   0.00000  Uiso   1.00
C524   C     0.68241   0.47780   0.00142   0.00000  Uiso   1.00
C525   C     0.73861   0.44449   0.06052   0.00000  Uiso   1.00
C526   C     0.80192   0.38099   0.06642   0.00000  Uiso   1.00
C527   C     0.54556   0.52605   0.95982   0.00000  Uiso   1.00
C528   C     0.48671   0.53328   0.98396   0.00000  Uiso   1.00
C529   C     0.43482   0.51038   0.95486   0.00000  Uiso   1.00
H530   H     0.62631   0.47139   0.84982   0.00000  Uiso   1.00
H531   H     0.61739   0.59171   0.77950   0.00000  Uiso   1.00
H532   H     0.75767   0.36275   0.91608   0.00000  Uiso   1.00
H533   H     0.50581   0.45153   0.83953   0.00000  Uiso   1.00
H534   H     0.60454   0.73792   0.72420   0.00000  Uiso   1.00
H535   H     0.90031   0.25514   0.01220   0.00000  Uiso   1.00
H536   H     0.36922   0.44234   0.85078   0.00000  Uiso   1.00
H537   H     0.60324   0.57023   0.02444   0.00000  Uiso   1.00
H538   H     0.59305   0.69598   0.96370   0.00000  Uiso   1.00
H539   H     0.73333   0.46702   0.10028   0.00000  Uiso   1.00
H540   H     0.48147   0.55579   0.02373   0.00000  Uiso   1.00
H541   H     0.58478   0.82255   0.87371   0.00000  Uiso   1.00
H542   H     0.88056   0.33976   0.16170   0.00000  Uiso   1.00
H543   H     0.34946   0.52697   0.00029   0.00000  Uiso   1.00
O544   O     0.58840   0.86116   0.75585   0.00000  Uiso   1.00
O545   O     0.97643   0.22776   0.13369   0.00000  Uiso   1.00
O546   O     0.27965   0.47337   0.92192   0.00000  Uiso   1.00
N547   N     0.60127   0.74059   0.76772   0.00000  Uiso   1.00
N548   N     0.87781   0.28922   0.03697   0.00000  Uiso   1.00
N549   N     0.38129   0.46422   0.88608   0.00000  Uiso   1.00
N550   N     0.59064   0.78612   0.84817   0.00000  Uiso   1.00
N551   N     0.86718   0.33476   0.11742   0.00000  Uiso   1.00
N552   N     0.37066   0.50976   0.96652   0.00000  Uiso   1.00
