data_job_00458
_audit_creation_date              2018-12-19
_audit_creation_method            'Materials Studio'
_symmetry_space_group_name_H-M    'P1'
_symmetry_Int_Tables_number       1
_symmetry_cell_setting            triclinic
loop_
_symmetry_equiv_pos_as_xyz
  x,y,z
_cell_length_a                    23.8091
_cell_length_b                    42.6587
_cell_length_c                    7.0597
_cell_angle_alpha                 90.0000
_cell_angle_beta                  90.0000
_cell_angle_gamma                 90.0000
loop_
_atom_site_label
_atom_site_type_symbol
_atom_site_fract_x
_atom_site_fract_y
_atom_site_fract_z
_atom_site_U_iso_or_equiv
_atom_site_adp_type
_atom_site_occupancy
C1     C     0.05347   0.40352   0.64820   0.00000  Uiso   1.00
C2     C     0.04846   0.37375   0.76661   0.00000  Uiso   1.00
C3     C     0.04322   0.34353   0.69608   0.00000  Uiso   1.00
C4     C     0.03918   0.31944   0.82765   0.00000  Uiso   1.00
C5     C     0.03119   0.27232   0.98184   0.00000  Uiso   1.00
C6     C     0.00579   0.42488   0.71247   0.00000  Uiso   1.00
C7     C     0.96467   0.43765   0.59642   0.00000  Uiso   1.00
C8     C     0.92471   0.45661   0.68242   0.00000  Uiso   1.00
C9     C     0.85049   0.48888   0.75253   0.00000  Uiso   1.00
C10    C     0.10764   0.41945   0.71159   0.00000  Uiso   1.00
C11    C     0.15217   0.42765   0.59480   0.00000  Uiso   1.00
C12    C     0.19796   0.44204   0.68006   0.00000  Uiso   1.00
C13    C     0.28189   0.46587   0.74881   0.00000  Uiso   1.00
C14    C     0.05562   0.41449   0.00727   0.00000  Uiso   1.00
C15    C     0.04963   0.37972   0.96164   0.00000  Uiso   1.00
C16    C     0.04560   0.35567   0.09336   0.00000  Uiso   1.00
C17    C     0.04035   0.32541   0.02304   0.00000  Uiso   1.00
C18    C     0.00695   0.43084   0.90750   0.00000  Uiso   1.00
C19    C     0.96705   0.44979   0.99369   0.00000  Uiso   1.00
C20    C     0.92588   0.46258   0.87780   0.00000  Uiso   1.00
C21    C     0.10881   0.42541   0.90663   0.00000  Uiso   1.00
C22    C     0.15454   0.43979   0.99208   0.00000  Uiso   1.00
C23    C     0.19913   0.44801   0.87544   0.00000  Uiso   1.00
H24    H     0.05256   0.39888   0.49636   0.00000  Uiso   1.00
H25    H     0.04231   0.33893   0.54514   0.00000  Uiso   1.00
H26    H     0.96378   0.43303   0.44549   0.00000  Uiso   1.00
H27    H     0.15125   0.42304   0.44388   0.00000  Uiso   1.00
H28    H     0.03144   0.27508   0.68523   0.00000  Uiso   1.00
H29    H     0.86586   0.47352   0.47510   0.00000  Uiso   1.00
H30    H     0.26118   0.45244   0.47170   0.00000  Uiso   1.00
H31    H     0.05653   0.41914   0.15912   0.00000  Uiso   1.00
H32    H     0.04650   0.36029   0.24428   0.00000  Uiso   1.00
H33    H     0.96797   0.45440   0.14462   0.00000  Uiso   1.00
H34    H     0.15543   0.44440   0.14301   0.00000  Uiso   1.00
H35    H     0.03484   0.29242   0.25267   0.00000  Uiso   1.00
H36    H     0.86926   0.49086   0.04254   0.00000  Uiso   1.00
H37    H     0.26457   0.46978   0.03914   0.00000  Uiso   1.00
O38    O     0.02645   0.24468   0.01301   0.00000  Uiso   1.00
O39    O     0.80923   0.50503   0.73732   0.00000  Uiso   1.00
O40    O     0.32787   0.47737   0.73286   0.00000  Uiso   1.00
N41    N     0.03363   0.28724   0.80709   0.00000  Uiso   1.00
N42    N     0.87882   0.47276   0.61064   0.00000  Uiso   1.00
N43    N     0.24840   0.45306   0.60745   0.00000  Uiso   1.00
N44    N     0.03546   0.29657   0.11243   0.00000  Uiso   1.00
N45    N     0.88065   0.48209   0.91598   0.00000  Uiso   1.00
N46    N     0.25022   0.46239   0.91279   0.00000  Uiso   1.00
C47    C     0.44653   0.59648   0.64820   0.00000  Uiso   1.00
C48    C     0.45154   0.62625   0.76661   0.00000  Uiso   1.00
C49    C     0.45678   0.65647   0.69608   0.00000  Uiso   1.00
C50    C     0.46082   0.68056   0.82765   0.00000  Uiso   1.00
C51    C     0.46881   0.72768   0.98184   0.00000  Uiso   1.00
C52    C     0.49421   0.57512   0.71247   0.00000  Uiso   1.00
C53    C     0.53533   0.56235   0.59642   0.00000  Uiso   1.00
C54    C     0.57529   0.54339   0.68242   0.00000  Uiso   1.00
C55    C     0.64951   0.51112   0.75253   0.00000  Uiso   1.00
C56    C     0.39236   0.58055   0.71159   0.00000  Uiso   1.00
C57    C     0.34783   0.57235   0.59480   0.00000  Uiso   1.00
C58    C     0.30204   0.55796   0.68006   0.00000  Uiso   1.00
C59    C     0.21811   0.53413   0.74881   0.00000  Uiso   1.00
C60    C     0.44438   0.58551   0.00727   0.00000  Uiso   1.00
C61    C     0.45037   0.62028   0.96164   0.00000  Uiso   1.00
C62    C     0.45440   0.64433   0.09336   0.00000  Uiso   1.00
C63    C     0.45965   0.67459   0.02304   0.00000  Uiso   1.00
C64    C     0.49305   0.56916   0.90750   0.00000  Uiso   1.00
C65    C     0.53295   0.55021   0.99369   0.00000  Uiso   1.00
C66    C     0.57412   0.53742   0.87780   0.00000  Uiso   1.00
C67    C     0.39119   0.57459   0.90663   0.00000  Uiso   1.00
C68    C     0.34546   0.56021   0.99208   0.00000  Uiso   1.00
C69    C     0.30087   0.55199   0.87544   0.00000  Uiso   1.00
H70    H     0.44744   0.60112   0.49636   0.00000  Uiso   1.00
H71    H     0.45769   0.66107   0.54514   0.00000  Uiso   1.00
H72    H     0.53622   0.56697   0.44549   0.00000  Uiso   1.00
H73    H     0.34875   0.57696   0.44388   0.00000  Uiso   1.00
H74    H     0.46856   0.72492   0.68523   0.00000  Uiso   1.00
H75    H     0.63414   0.52648   0.47510   0.00000  Uiso   1.00
H76    H     0.23882   0.54756   0.47170   0.00000  Uiso   1.00
H77    H     0.44347   0.58086   0.15912   0.00000  Uiso   1.00
H78    H     0.45350   0.63971   0.24428   0.00000  Uiso   1.00
H79    H     0.53203   0.54560   0.14462   0.00000  Uiso   1.00
H80    H     0.34457   0.55560   0.14301   0.00000  Uiso   1.00
H81    H     0.46516   0.70758   0.25267   0.00000  Uiso   1.00
H82    H     0.63074   0.50914   0.04254   0.00000  Uiso   1.00
H83    H     0.23543   0.53022   0.03914   0.00000  Uiso   1.00
O84    O     0.47355   0.75532   0.01301   0.00000  Uiso   1.00
O85    O     0.69077   0.49497   0.73732   0.00000  Uiso   1.00
O86    O     0.17213   0.52263   0.73286   0.00000  Uiso   1.00
N87    N     0.46637   0.71276   0.80709   0.00000  Uiso   1.00
N88    N     0.62118   0.52724   0.61064   0.00000  Uiso   1.00
N89    N     0.25160   0.54694   0.60745   0.00000  Uiso   1.00
N90    N     0.46454   0.70343   0.11243   0.00000  Uiso   1.00
N91    N     0.61935   0.51791   0.91598   0.00000  Uiso   1.00
N92    N     0.24978   0.53761   0.91279   0.00000  Uiso   1.00
C93    C     0.44653   0.90352   0.85180   0.00000  Uiso   1.00
C94    C     0.45154   0.87375   0.73339   0.00000  Uiso   1.00
C95    C     0.45678   0.84353   0.80392   0.00000  Uiso   1.00
C96    C     0.46082   0.81944   0.67235   0.00000  Uiso   1.00
C97    C     0.46881   0.77232   0.51816   0.00000  Uiso   1.00
C98    C     0.49421   0.92488   0.78753   0.00000  Uiso   1.00
C99    C     0.53533   0.93765   0.90358   0.00000  Uiso   1.00
C100   C     0.57529   0.95661   0.81758   0.00000  Uiso   1.00
C101   C     0.64951   0.98888   0.74747   0.00000  Uiso   1.00
C102   C     0.39236   0.91945   0.78841   0.00000  Uiso   1.00
C103   C     0.34783   0.92765   0.90520   0.00000  Uiso   1.00
C104   C     0.30204   0.94204   0.81994   0.00000  Uiso   1.00
C105   C     0.21811   0.96587   0.75119   0.00000  Uiso   1.00
C106   C     0.44438   0.91449   0.49273   0.00000  Uiso   1.00
C107   C     0.45037   0.87972   0.53836   0.00000  Uiso   1.00
C108   C     0.45440   0.85567   0.40664   0.00000  Uiso   1.00
C109   C     0.45965   0.82541   0.47696   0.00000  Uiso   1.00
C110   C     0.49305   0.93084   0.59250   0.00000  Uiso   1.00
C111   C     0.53295   0.94979   0.50631   0.00000  Uiso   1.00
C112   C     0.57412   0.96258   0.62220   0.00000  Uiso   1.00
C113   C     0.39119   0.92541   0.59337   0.00000  Uiso   1.00
C114   C     0.34546   0.93979   0.50792   0.00000  Uiso   1.00
C115   C     0.30087   0.94801   0.62456   0.00000  Uiso   1.00
H116   H     0.44744   0.89888   0.00364   0.00000  Uiso   1.00
H117   H     0.45769   0.83893   0.95486   0.00000  Uiso   1.00
H118   H     0.53622   0.93303   0.05451   0.00000  Uiso   1.00
H119   H     0.34875   0.92304   0.05612   0.00000  Uiso   1.00
H120   H     0.46856   0.77508   0.81477   0.00000  Uiso   1.00
H121   H     0.63414   0.97352   0.02490   0.00000  Uiso   1.00
H122   H     0.23882   0.95244   0.02830   0.00000  Uiso   1.00
H123   H     0.44347   0.91914   0.34088   0.00000  Uiso   1.00
H124   H     0.45350   0.86029   0.25572   0.00000  Uiso   1.00
H125   H     0.53203   0.95440   0.35538   0.00000  Uiso   1.00
H126   H     0.34457   0.94440   0.35699   0.00000  Uiso   1.00
H127   H     0.46516   0.79242   0.24733   0.00000  Uiso   1.00
H128   H     0.63074   0.99086   0.45746   0.00000  Uiso   1.00
H129   H     0.23543   0.96978   0.46086   0.00000  Uiso   1.00
O130   O     0.47355   0.74468   0.48699   0.00000  Uiso   1.00
O131   O     0.69077   0.00503   0.76268   0.00000  Uiso   1.00
O132   O     0.17213   0.97737   0.76714   0.00000  Uiso   1.00
N133   N     0.46637   0.78724   0.69291   0.00000  Uiso   1.00
N134   N     0.62118   0.97276   0.88936   0.00000  Uiso   1.00
N135   N     0.25160   0.95306   0.89255   0.00000  Uiso   1.00
N136   N     0.46454   0.79657   0.38757   0.00000  Uiso   1.00
N137   N     0.61935   0.98209   0.58402   0.00000  Uiso   1.00
N138   N     0.24978   0.96239   0.58721   0.00000  Uiso   1.00
C139   C     0.05347   0.09648   0.85180   0.00000  Uiso   1.00
C140   C     0.04846   0.12625   0.73339   0.00000  Uiso   1.00
C141   C     0.04322   0.15647   0.80392   0.00000  Uiso   1.00
C142   C     0.03918   0.18056   0.67235   0.00000  Uiso   1.00
C143   C     0.03119   0.22768   0.51816   0.00000  Uiso   1.00
C144   C     0.00579   0.07512   0.78753   0.00000  Uiso   1.00
C145   C     0.96467   0.06235   0.90358   0.00000  Uiso   1.00
C146   C     0.92471   0.04339   0.81758   0.00000  Uiso   1.00
C147   C     0.85049   0.01112   0.74747   0.00000  Uiso   1.00
C148   C     0.10764   0.08055   0.78841   0.00000  Uiso   1.00
C149   C     0.15217   0.07235   0.90520   0.00000  Uiso   1.00
C150   C     0.19796   0.05796   0.81994   0.00000  Uiso   1.00
C151   C     0.28189   0.03413   0.75119   0.00000  Uiso   1.00
C152   C     0.05562   0.08551   0.49273   0.00000  Uiso   1.00
C153   C     0.04963   0.12028   0.53836   0.00000  Uiso   1.00
C154   C     0.04560   0.14433   0.40664   0.00000  Uiso   1.00
C155   C     0.04035   0.17459   0.47696   0.00000  Uiso   1.00
C156   C     0.00695   0.06916   0.59250   0.00000  Uiso   1.00
C157   C     0.96705   0.05021   0.50631   0.00000  Uiso   1.00
C158   C     0.92588   0.03742   0.62220   0.00000  Uiso   1.00
C159   C     0.10881   0.07459   0.59337   0.00000  Uiso   1.00
C160   C     0.15454   0.06021   0.50792   0.00000  Uiso   1.00
C161   C     0.19913   0.05199   0.62456   0.00000  Uiso   1.00
H162   H     0.05256   0.10112   0.00364   0.00000  Uiso   1.00
H163   H     0.04231   0.16107   0.95486   0.00000  Uiso   1.00
H164   H     0.96378   0.06697   0.05451   0.00000  Uiso   1.00
H165   H     0.15125   0.07696   0.05612   0.00000  Uiso   1.00
H166   H     0.03144   0.22492   0.81477   0.00000  Uiso   1.00
H167   H     0.86586   0.02648   0.02490   0.00000  Uiso   1.00
H168   H     0.26118   0.04756   0.02830   0.00000  Uiso   1.00
H169   H     0.05653   0.08086   0.34088   0.00000  Uiso   1.00
H170   H     0.04650   0.13971   0.25572   0.00000  Uiso   1.00
H171   H     0.96797   0.04560   0.35538   0.00000  Uiso   1.00
H172   H     0.15543   0.05560   0.35699   0.00000  Uiso   1.00
H173   H     0.03484   0.20758   0.24733   0.00000  Uiso   1.00
H174   H     0.86926   0.00914   0.45746   0.00000  Uiso   1.00
H175   H     0.26457   0.03022   0.46086   0.00000  Uiso   1.00
O176   O     0.02645   0.25532   0.48699   0.00000  Uiso   1.00
O177   O     0.80923   0.99497   0.76268   0.00000  Uiso   1.00
O178   O     0.32787   0.02263   0.76714   0.00000  Uiso   1.00
N179   N     0.03363   0.21276   0.69291   0.00000  Uiso   1.00
N180   N     0.87882   0.02724   0.88936   0.00000  Uiso   1.00
N181   N     0.24840   0.04694   0.89255   0.00000  Uiso   1.00
N182   N     0.03546   0.20343   0.38757   0.00000  Uiso   1.00
N183   N     0.88065   0.01791   0.58402   0.00000  Uiso   1.00
N184   N     0.25022   0.03761   0.58721   0.00000  Uiso   1.00
C185   C     0.94653   0.59648   0.35180   0.00000  Uiso   1.00
C186   C     0.95154   0.62625   0.23339   0.00000  Uiso   1.00
C187   C     0.95678   0.65647   0.30392   0.00000  Uiso   1.00
C188   C     0.96082   0.68056   0.17235   0.00000  Uiso   1.00
C189   C     0.96881   0.72768   0.01816   0.00000  Uiso   1.00
C190   C     0.99421   0.57512   0.28753   0.00000  Uiso   1.00
C191   C     0.03533   0.56235   0.40358   0.00000  Uiso   1.00
C192   C     0.07529   0.54339   0.31758   0.00000  Uiso   1.00
C193   C     0.14951   0.51112   0.24747   0.00000  Uiso   1.00
C194   C     0.89236   0.58055   0.28841   0.00000  Uiso   1.00
C195   C     0.84783   0.57235   0.40520   0.00000  Uiso   1.00
C196   C     0.80204   0.55796   0.31994   0.00000  Uiso   1.00
C197   C     0.71811   0.53413   0.25119   0.00000  Uiso   1.00
C198   C     0.94438   0.58551   0.99273   0.00000  Uiso   1.00
C199   C     0.95037   0.62028   0.03836   0.00000  Uiso   1.00
C200   C     0.95440   0.64433   0.90664   0.00000  Uiso   1.00
C201   C     0.95965   0.67459   0.97696   0.00000  Uiso   1.00
C202   C     0.99305   0.56916   0.09250   0.00000  Uiso   1.00
C203   C     0.03295   0.55021   0.00631   0.00000  Uiso   1.00
C204   C     0.07412   0.53742   0.12220   0.00000  Uiso   1.00
C205   C     0.89119   0.57459   0.09337   0.00000  Uiso   1.00
C206   C     0.84546   0.56021   0.00792   0.00000  Uiso   1.00
C207   C     0.80087   0.55199   0.12456   0.00000  Uiso   1.00
H208   H     0.94744   0.60112   0.50364   0.00000  Uiso   1.00
H209   H     0.95769   0.66107   0.45486   0.00000  Uiso   1.00
H210   H     0.03622   0.56697   0.55451   0.00000  Uiso   1.00
H211   H     0.84875   0.57696   0.55612   0.00000  Uiso   1.00
H212   H     0.96856   0.72492   0.31477   0.00000  Uiso   1.00
H213   H     0.13414   0.52648   0.52490   0.00000  Uiso   1.00
H214   H     0.73882   0.54756   0.52830   0.00000  Uiso   1.00
H215   H     0.94347   0.58086   0.84088   0.00000  Uiso   1.00
H216   H     0.95350   0.63971   0.75572   0.00000  Uiso   1.00
H217   H     0.03203   0.54560   0.85538   0.00000  Uiso   1.00
H218   H     0.84457   0.55560   0.85699   0.00000  Uiso   1.00
H219   H     0.96516   0.70758   0.74733   0.00000  Uiso   1.00
H220   H     0.13074   0.50914   0.95746   0.00000  Uiso   1.00
H221   H     0.73543   0.53022   0.96086   0.00000  Uiso   1.00
O222   O     0.97355   0.75532   0.98699   0.00000  Uiso   1.00
O223   O     0.19077   0.49497   0.26268   0.00000  Uiso   1.00
O224   O     0.67213   0.52263   0.26714   0.00000  Uiso   1.00
N225   N     0.96637   0.71276   0.19291   0.00000  Uiso   1.00
N226   N     0.12118   0.52724   0.38936   0.00000  Uiso   1.00
N227   N     0.75160   0.54694   0.39255   0.00000  Uiso   1.00
N228   N     0.96454   0.70343   0.88757   0.00000  Uiso   1.00
N229   N     0.11935   0.51791   0.08402   0.00000  Uiso   1.00
N230   N     0.74978   0.53761   0.08721   0.00000  Uiso   1.00
C231   C     0.55347   0.40352   0.35180   0.00000  Uiso   1.00
C232   C     0.54846   0.37375   0.23339   0.00000  Uiso   1.00
C233   C     0.54322   0.34353   0.30392   0.00000  Uiso   1.00
C234   C     0.53918   0.31944   0.17235   0.00000  Uiso   1.00
C235   C     0.53119   0.27232   0.01816   0.00000  Uiso   1.00
C236   C     0.50579   0.42488   0.28753   0.00000  Uiso   1.00
C237   C     0.46467   0.43765   0.40358   0.00000  Uiso   1.00
C238   C     0.42471   0.45661   0.31758   0.00000  Uiso   1.00
C239   C     0.35049   0.48888   0.24747   0.00000  Uiso   1.00
C240   C     0.60764   0.41945   0.28841   0.00000  Uiso   1.00
C241   C     0.65217   0.42765   0.40520   0.00000  Uiso   1.00
C242   C     0.69796   0.44204   0.31994   0.00000  Uiso   1.00
C243   C     0.78189   0.46587   0.25119   0.00000  Uiso   1.00
C244   C     0.55562   0.41449   0.99273   0.00000  Uiso   1.00
C245   C     0.54963   0.37972   0.03836   0.00000  Uiso   1.00
C246   C     0.54560   0.35567   0.90664   0.00000  Uiso   1.00
C247   C     0.54035   0.32541   0.97696   0.00000  Uiso   1.00
C248   C     0.50695   0.43084   0.09250   0.00000  Uiso   1.00
C249   C     0.46705   0.44979   0.00631   0.00000  Uiso   1.00
C250   C     0.42588   0.46258   0.12220   0.00000  Uiso   1.00
C251   C     0.60881   0.42541   0.09337   0.00000  Uiso   1.00
C252   C     0.65454   0.43979   0.00792   0.00000  Uiso   1.00
C253   C     0.69913   0.44801   0.12456   0.00000  Uiso   1.00
H254   H     0.55256   0.39888   0.50364   0.00000  Uiso   1.00
H255   H     0.54231   0.33893   0.45486   0.00000  Uiso   1.00
H256   H     0.46378   0.43303   0.55451   0.00000  Uiso   1.00
H257   H     0.65125   0.42304   0.55612   0.00000  Uiso   1.00
H258   H     0.53144   0.27508   0.31477   0.00000  Uiso   1.00
H259   H     0.36586   0.47352   0.52490   0.00000  Uiso   1.00
H260   H     0.76118   0.45244   0.52830   0.00000  Uiso   1.00
H261   H     0.55653   0.41914   0.84088   0.00000  Uiso   1.00
H262   H     0.54650   0.36029   0.75572   0.00000  Uiso   1.00
H263   H     0.46797   0.45440   0.85538   0.00000  Uiso   1.00
H264   H     0.65543   0.44440   0.85699   0.00000  Uiso   1.00
H265   H     0.53484   0.29242   0.74733   0.00000  Uiso   1.00
H266   H     0.36926   0.49086   0.95746   0.00000  Uiso   1.00
H267   H     0.76457   0.46978   0.96086   0.00000  Uiso   1.00
O268   O     0.52645   0.24468   0.98699   0.00000  Uiso   1.00
O269   O     0.30923   0.50503   0.26268   0.00000  Uiso   1.00
O270   O     0.82787   0.47737   0.26714   0.00000  Uiso   1.00
N271   N     0.53363   0.28724   0.19291   0.00000  Uiso   1.00
N272   N     0.37882   0.47276   0.38936   0.00000  Uiso   1.00
N273   N     0.74840   0.45306   0.39255   0.00000  Uiso   1.00
N274   N     0.53546   0.29657   0.88757   0.00000  Uiso   1.00
N275   N     0.38065   0.48209   0.08402   0.00000  Uiso   1.00
N276   N     0.75022   0.46239   0.08721   0.00000  Uiso   1.00
C277   C     0.55347   0.09648   0.14820   0.00000  Uiso   1.00
C278   C     0.54846   0.12625   0.26661   0.00000  Uiso   1.00
C279   C     0.54322   0.15647   0.19608   0.00000  Uiso   1.00
C280   C     0.53918   0.18056   0.32765   0.00000  Uiso   1.00
C281   C     0.53119   0.22768   0.48184   0.00000  Uiso   1.00
C282   C     0.50579   0.07512   0.21247   0.00000  Uiso   1.00
C283   C     0.46467   0.06235   0.09642   0.00000  Uiso   1.00
C284   C     0.42471   0.04339   0.18242   0.00000  Uiso   1.00
C285   C     0.35049   0.01112   0.25253   0.00000  Uiso   1.00
C286   C     0.60764   0.08055   0.21159   0.00000  Uiso   1.00
C287   C     0.65217   0.07235   0.09480   0.00000  Uiso   1.00
C288   C     0.69796   0.05796   0.18006   0.00000  Uiso   1.00
C289   C     0.78189   0.03413   0.24881   0.00000  Uiso   1.00
C290   C     0.55562   0.08551   0.50727   0.00000  Uiso   1.00
C291   C     0.54963   0.12028   0.46164   0.00000  Uiso   1.00
C292   C     0.54560   0.14433   0.59336   0.00000  Uiso   1.00
C293   C     0.54035   0.17459   0.52304   0.00000  Uiso   1.00
C294   C     0.50695   0.06916   0.40750   0.00000  Uiso   1.00
C295   C     0.46705   0.05021   0.49369   0.00000  Uiso   1.00
C296   C     0.42588   0.03742   0.37780   0.00000  Uiso   1.00
C297   C     0.60881   0.07459   0.40663   0.00000  Uiso   1.00
C298   C     0.65454   0.06021   0.49208   0.00000  Uiso   1.00
C299   C     0.69913   0.05199   0.37544   0.00000  Uiso   1.00
H300   H     0.55256   0.10112   0.99636   0.00000  Uiso   1.00
H301   H     0.54231   0.16107   0.04514   0.00000  Uiso   1.00
H302   H     0.46378   0.06697   0.94549   0.00000  Uiso   1.00
H303   H     0.65125   0.07696   0.94388   0.00000  Uiso   1.00
H304   H     0.53144   0.22492   0.18523   0.00000  Uiso   1.00
H305   H     0.36586   0.02648   0.97510   0.00000  Uiso   1.00
H306   H     0.76118   0.04756   0.97170   0.00000  Uiso   1.00
H307   H     0.55653   0.08086   0.65912   0.00000  Uiso   1.00
H308   H     0.54650   0.13971   0.74428   0.00000  Uiso   1.00
H309   H     0.46797   0.04560   0.64462   0.00000  Uiso   1.00
H310   H     0.65543   0.05560   0.64301   0.00000  Uiso   1.00
H311   H     0.53484   0.20758   0.75267   0.00000  Uiso   1.00
H312   H     0.36926   0.00914   0.54254   0.00000  Uiso   1.00
H313   H     0.76457   0.03022   0.53914   0.00000  Uiso   1.00
O314   O     0.52645   0.25532   0.51301   0.00000  Uiso   1.00
O315   O     0.30923   0.99497   0.23732   0.00000  Uiso   1.00
O316   O     0.82787   0.02263   0.23286   0.00000  Uiso   1.00
N317   N     0.53363   0.21276   0.30709   0.00000  Uiso   1.00
N318   N     0.37882   0.02724   0.11064   0.00000  Uiso   1.00
N319   N     0.74840   0.04694   0.10745   0.00000  Uiso   1.00
N320   N     0.53546   0.20343   0.61243   0.00000  Uiso   1.00
N321   N     0.38065   0.01791   0.41598   0.00000  Uiso   1.00
N322   N     0.75022   0.03761   0.41279   0.00000  Uiso   1.00
C323   C     0.94653   0.90352   0.14820   0.00000  Uiso   1.00
C324   C     0.95154   0.87375   0.26661   0.00000  Uiso   1.00
C325   C     0.95678   0.84353   0.19608   0.00000  Uiso   1.00
C326   C     0.96082   0.81944   0.32765   0.00000  Uiso   1.00
C327   C     0.96881   0.77232   0.48184   0.00000  Uiso   1.00
C328   C     0.99421   0.92488   0.21247   0.00000  Uiso   1.00
C329   C     0.03533   0.93765   0.09642   0.00000  Uiso   1.00
C330   C     0.07529   0.95661   0.18242   0.00000  Uiso   1.00
C331   C     0.14951   0.98888   0.25253   0.00000  Uiso   1.00
C332   C     0.89236   0.91945   0.21159   0.00000  Uiso   1.00
C333   C     0.84783   0.92765   0.09480   0.00000  Uiso   1.00
C334   C     0.80204   0.94204   0.18006   0.00000  Uiso   1.00
C335   C     0.71811   0.96587   0.24881   0.00000  Uiso   1.00
C336   C     0.94438   0.91449   0.50727   0.00000  Uiso   1.00
C337   C     0.95037   0.87972   0.46164   0.00000  Uiso   1.00
C338   C     0.95440   0.85567   0.59336   0.00000  Uiso   1.00
C339   C     0.95965   0.82541   0.52304   0.00000  Uiso   1.00
C340   C     0.99305   0.93084   0.40750   0.00000  Uiso   1.00
C341   C     0.03295   0.94979   0.49369   0.00000  Uiso   1.00
C342   C     0.07412   0.96258   0.37780   0.00000  Uiso   1.00
C343   C     0.89119   0.92541   0.40663   0.00000  Uiso   1.00
C344   C     0.84546   0.93979   0.49208   0.00000  Uiso   1.00
C345   C     0.80087   0.94801   0.37544   0.00000  Uiso   1.00
H346   H     0.94744   0.89888   0.99636   0.00000  Uiso   1.00
H347   H     0.95769   0.83893   0.04514   0.00000  Uiso   1.00
H348   H     0.03622   0.93303   0.94549   0.00000  Uiso   1.00
H349   H     0.84875   0.92304   0.94388   0.00000  Uiso   1.00
H350   H     0.96856   0.77508   0.18523   0.00000  Uiso   1.00
H351   H     0.13414   0.97352   0.97510   0.00000  Uiso   1.00
H352   H     0.73882   0.95244   0.97170   0.00000  Uiso   1.00
H353   H     0.94347   0.91914   0.65912   0.00000  Uiso   1.00
H354   H     0.95350   0.86029   0.74428   0.00000  Uiso   1.00
H355   H     0.03203   0.95440   0.64462   0.00000  Uiso   1.00
H356   H     0.84457   0.94440   0.64301   0.00000  Uiso   1.00
H357   H     0.96516   0.79242   0.75267   0.00000  Uiso   1.00
H358   H     0.13074   0.99086   0.54254   0.00000  Uiso   1.00
H359   H     0.73543   0.96978   0.53914   0.00000  Uiso   1.00
O360   O     0.97355   0.74468   0.51301   0.00000  Uiso   1.00
O361   O     0.19077   0.00503   0.23732   0.00000  Uiso   1.00
O362   O     0.67213   0.97737   0.23286   0.00000  Uiso   1.00
N363   N     0.96637   0.78724   0.30709   0.00000  Uiso   1.00
N364   N     0.12118   0.97276   0.11064   0.00000  Uiso   1.00
N365   N     0.75160   0.95306   0.10745   0.00000  Uiso   1.00
N366   N     0.96454   0.79657   0.61243   0.00000  Uiso   1.00
N367   N     0.11935   0.98209   0.41598   0.00000  Uiso   1.00
N368   N     0.74978   0.96239   0.41279   0.00000  Uiso   1.00
