data_job_03228
_audit_creation_date              2018-12-19
_audit_creation_method            'Materials Studio'
_symmetry_space_group_name_H-M    'P1'
_symmetry_Int_Tables_number       1
_symmetry_cell_setting            triclinic
loop_
_symmetry_equiv_pos_as_xyz
  x,y,z
_cell_length_a                    12.6712
_cell_length_b                    22.0241
_cell_length_c                    10.1909
_cell_angle_alpha                 90.0000
_cell_angle_beta                  90.0000
_cell_angle_gamma                 90.0000
loop_
_atom_site_label
_atom_site_type_symbol
_atom_site_fract_x
_atom_site_fract_y
_atom_site_fract_z
_atom_site_U_iso_or_equiv
_atom_site_adp_type
_atom_site_occupancy
C1     C     0.76980   0.06164   0.11413   0.00000  Uiso   1.00
C2     C     0.84429   0.11516   0.13500   0.00000  Uiso   1.00
C3     C     0.91191   0.12278   0.24085   0.00000  Uiso   1.00
C4     C     0.97366   0.17485   0.24188   0.00000  Uiso   1.00
C5     C     0.09016   0.25144   0.28973   0.00000  Uiso   1.00
C6     C     0.65979   0.08883   0.09911   0.00000  Uiso   1.00
C7     C     0.57229   0.07431   0.17476   0.00000  Uiso   1.00
C8     C     0.47873   0.10421   0.14556   0.00000  Uiso   1.00
C9     C     0.30876   0.13991   0.13762   0.00000  Uiso   1.00
C10    C     0.79808   0.03502   0.98055   0.00000  Uiso   1.00
C11    C     0.82682   0.97524   0.95651   0.00000  Uiso   1.00
C12    C     0.84967   0.95983   0.82748   0.00000  Uiso   1.00
C13    C     0.89442   0.91196   0.63546   0.00000  Uiso   1.00
C14    C     0.75923   0.14057   0.92774   0.00000  Uiso   1.00
C15    C     0.83854   0.15803   0.03376   0.00000  Uiso   1.00
C16    C     0.90021   0.21010   0.03463   0.00000  Uiso   1.00
C17    C     0.96792   0.21779   0.14046   0.00000  Uiso   1.00
C18    C     0.65404   0.13170   0.99787   0.00000  Uiso   1.00
C19    C     0.56059   0.16163   0.96855   0.00000  Uiso   1.00
C20    C     0.47297   0.14716   0.04414   0.00000  Uiso   1.00
C21    C     0.79234   0.07789   0.87931   0.00000  Uiso   1.00
C22    C     0.81513   0.06257   0.75029   0.00000  Uiso   1.00
C23    C     0.84391   0.00278   0.72606   0.00000  Uiso   1.00
H24    H     0.77427   0.02826   0.19294   0.00000  Uiso   1.00
H25    H     0.91632   0.08959   0.31918   0.00000  Uiso   1.00
H26    H     0.57675   0.04113   0.25309   0.00000  Uiso   1.00
H27    H     0.83126   0.94208   0.03487   0.00000  Uiso   1.00
H28    H     0.07126   0.17650   0.41452   0.00000  Uiso   1.00
H29    H     0.35525   0.07430   0.27514   0.00000  Uiso   1.00
H30    H     0.89191   0.86543   0.81498   0.00000  Uiso   1.00
H31    H     0.75476   0.17394   0.84892   0.00000  Uiso   1.00
H32    H     0.89575   0.24327   0.95628   0.00000  Uiso   1.00
H33    H     0.55618   0.19480   0.89019   0.00000  Uiso   1.00
H34    H     0.81068   0.09575   0.67198   0.00000  Uiso   1.00
H35    H     0.05456   0.30123   0.11997   0.00000  Uiso   1.00
H36    H     0.33854   0.19903   0.98059   0.00000  Uiso   1.00
H37    H     0.87521   0.99016   0.52044   0.00000  Uiso   1.00
O38    O     0.15599   0.28185   0.34410   0.00000  Uiso   1.00
O39    O     0.21660   0.14775   0.16122   0.00000  Uiso   1.00
O40    O     0.92070   0.87372   0.55751   0.00000  Uiso   1.00
N41    N     0.04800   0.19634   0.33045   0.00000  Uiso   1.00
N42    N     0.37857   0.10079   0.20015   0.00000  Uiso   1.00
N43    N     0.88028   0.90551   0.76994   0.00000  Uiso   1.00
N44    N     0.03901   0.26345   0.17196   0.00000  Uiso   1.00
N45    N     0.36958   0.16791   0.04166   0.00000  Uiso   1.00
N46    N     0.87129   0.97263   0.61145   0.00000  Uiso   1.00
C47    C     0.23020   0.93836   0.11413   0.00000  Uiso   1.00
C48    C     0.15571   0.88484   0.13500   0.00000  Uiso   1.00
C49    C     0.08809   0.87722   0.24085   0.00000  Uiso   1.00
C50    C     0.02634   0.82515   0.24188   0.00000  Uiso   1.00
C51    C     0.90984   0.74856   0.28973   0.00000  Uiso   1.00
C52    C     0.34021   0.91117   0.09911   0.00000  Uiso   1.00
C53    C     0.42771   0.92569   0.17476   0.00000  Uiso   1.00
C54    C     0.52127   0.89579   0.14556   0.00000  Uiso   1.00
C55    C     0.69124   0.86009   0.13762   0.00000  Uiso   1.00
C56    C     0.20192   0.96498   0.98055   0.00000  Uiso   1.00
C57    C     0.17318   0.02476   0.95651   0.00000  Uiso   1.00
C58    C     0.15033   0.04017   0.82748   0.00000  Uiso   1.00
C59    C     0.10558   0.08804   0.63546   0.00000  Uiso   1.00
C60    C     0.24077   0.85943   0.92774   0.00000  Uiso   1.00
C61    C     0.16146   0.84197   0.03376   0.00000  Uiso   1.00
C62    C     0.09979   0.78990   0.03463   0.00000  Uiso   1.00
C63    C     0.03208   0.78221   0.14046   0.00000  Uiso   1.00
C64    C     0.34596   0.86830   0.99787   0.00000  Uiso   1.00
C65    C     0.43941   0.83837   0.96855   0.00000  Uiso   1.00
C66    C     0.52703   0.85284   0.04414   0.00000  Uiso   1.00
C67    C     0.20766   0.92211   0.87931   0.00000  Uiso   1.00
C68    C     0.18487   0.93743   0.75029   0.00000  Uiso   1.00
C69    C     0.15609   0.99722   0.72606   0.00000  Uiso   1.00
H70    H     0.22573   0.97174   0.19294   0.00000  Uiso   1.00
H71    H     0.08368   0.91041   0.31918   0.00000  Uiso   1.00
H72    H     0.42325   0.95887   0.25309   0.00000  Uiso   1.00
H73    H     0.16874   0.05792   0.03487   0.00000  Uiso   1.00
H74    H     0.92874   0.82350   0.41452   0.00000  Uiso   1.00
H75    H     0.64475   0.92570   0.27514   0.00000  Uiso   1.00
H76    H     0.10809   0.13457   0.81498   0.00000  Uiso   1.00
H77    H     0.24524   0.82606   0.84892   0.00000  Uiso   1.00
H78    H     0.10425   0.75673   0.95628   0.00000  Uiso   1.00
H79    H     0.44382   0.80520   0.89019   0.00000  Uiso   1.00
H80    H     0.18932   0.90425   0.67198   0.00000  Uiso   1.00
H81    H     0.94544   0.69877   0.11997   0.00000  Uiso   1.00
H82    H     0.66146   0.80097   0.98059   0.00000  Uiso   1.00
H83    H     0.12479   0.00984   0.52044   0.00000  Uiso   1.00
O84    O     0.84401   0.71815   0.34410   0.00000  Uiso   1.00
O85    O     0.78340   0.85225   0.16122   0.00000  Uiso   1.00
O86    O     0.07930   0.12628   0.55751   0.00000  Uiso   1.00
N87    N     0.95200   0.80366   0.33045   0.00000  Uiso   1.00
N88    N     0.62143   0.89921   0.20015   0.00000  Uiso   1.00
N89    N     0.11972   0.09449   0.76994   0.00000  Uiso   1.00
N90    N     0.96099   0.73655   0.17196   0.00000  Uiso   1.00
N91    N     0.63042   0.83209   0.04166   0.00000  Uiso   1.00
N92    N     0.12871   0.02737   0.61145   0.00000  Uiso   1.00
C93    C     0.76980   0.43836   0.61413   0.00000  Uiso   1.00
C94    C     0.84429   0.38484   0.63500   0.00000  Uiso   1.00
C95    C     0.91191   0.37722   0.74085   0.00000  Uiso   1.00
C96    C     0.97366   0.32515   0.74188   0.00000  Uiso   1.00
C97    C     0.09016   0.24856   0.78973   0.00000  Uiso   1.00
C98    C     0.65979   0.41117   0.59911   0.00000  Uiso   1.00
C99    C     0.57229   0.42569   0.67476   0.00000  Uiso   1.00
C100   C     0.47873   0.39579   0.64556   0.00000  Uiso   1.00
C101   C     0.30876   0.36009   0.63762   0.00000  Uiso   1.00
C102   C     0.79808   0.46498   0.48055   0.00000  Uiso   1.00
C103   C     0.82682   0.52476   0.45651   0.00000  Uiso   1.00
C104   C     0.84967   0.54017   0.32748   0.00000  Uiso   1.00
C105   C     0.89442   0.58804   0.13546   0.00000  Uiso   1.00
C106   C     0.75923   0.35943   0.42774   0.00000  Uiso   1.00
C107   C     0.83854   0.34197   0.53376   0.00000  Uiso   1.00
C108   C     0.90021   0.28990   0.53463   0.00000  Uiso   1.00
C109   C     0.96792   0.28221   0.64046   0.00000  Uiso   1.00
C110   C     0.65404   0.36830   0.49787   0.00000  Uiso   1.00
C111   C     0.56059   0.33837   0.46855   0.00000  Uiso   1.00
C112   C     0.47297   0.35284   0.54414   0.00000  Uiso   1.00
C113   C     0.79234   0.42211   0.37931   0.00000  Uiso   1.00
C114   C     0.81513   0.43743   0.25029   0.00000  Uiso   1.00
C115   C     0.84391   0.49722   0.22606   0.00000  Uiso   1.00
H116   H     0.77427   0.47174   0.69294   0.00000  Uiso   1.00
H117   H     0.91632   0.41041   0.81918   0.00000  Uiso   1.00
H118   H     0.57675   0.45887   0.75309   0.00000  Uiso   1.00
H119   H     0.83126   0.55792   0.53487   0.00000  Uiso   1.00
H120   H     0.07126   0.32350   0.91452   0.00000  Uiso   1.00
H121   H     0.35525   0.42570   0.77514   0.00000  Uiso   1.00
H122   H     0.89191   0.63457   0.31498   0.00000  Uiso   1.00
H123   H     0.75476   0.32606   0.34892   0.00000  Uiso   1.00
H124   H     0.89575   0.25673   0.45628   0.00000  Uiso   1.00
H125   H     0.55618   0.30520   0.39019   0.00000  Uiso   1.00
H126   H     0.81068   0.40425   0.17198   0.00000  Uiso   1.00
H127   H     0.05456   0.19877   0.61997   0.00000  Uiso   1.00
H128   H     0.33854   0.30097   0.48059   0.00000  Uiso   1.00
H129   H     0.87521   0.50984   0.02044   0.00000  Uiso   1.00
O130   O     0.15599   0.21815   0.84410   0.00000  Uiso   1.00
O131   O     0.21660   0.35225   0.66122   0.00000  Uiso   1.00
O132   O     0.92070   0.62628   0.05751   0.00000  Uiso   1.00
N133   N     0.04800   0.30366   0.83045   0.00000  Uiso   1.00
N134   N     0.37857   0.39921   0.70015   0.00000  Uiso   1.00
N135   N     0.88028   0.59449   0.26994   0.00000  Uiso   1.00
N136   N     0.03901   0.23655   0.67196   0.00000  Uiso   1.00
N137   N     0.36958   0.33209   0.54166   0.00000  Uiso   1.00
N138   N     0.87129   0.52737   0.11145   0.00000  Uiso   1.00
C139   C     0.23020   0.56164   0.61413   0.00000  Uiso   1.00
C140   C     0.15571   0.61516   0.63500   0.00000  Uiso   1.00
C141   C     0.08809   0.62278   0.74085   0.00000  Uiso   1.00
C142   C     0.02634   0.67485   0.74188   0.00000  Uiso   1.00
C143   C     0.90984   0.75144   0.78973   0.00000  Uiso   1.00
C144   C     0.34021   0.58883   0.59911   0.00000  Uiso   1.00
C145   C     0.42771   0.57431   0.67476   0.00000  Uiso   1.00
C146   C     0.52127   0.60421   0.64556   0.00000  Uiso   1.00
C147   C     0.69124   0.63991   0.63762   0.00000  Uiso   1.00
C148   C     0.20192   0.53502   0.48055   0.00000  Uiso   1.00
C149   C     0.17318   0.47524   0.45651   0.00000  Uiso   1.00
C150   C     0.15033   0.45983   0.32748   0.00000  Uiso   1.00
C151   C     0.10558   0.41196   0.13546   0.00000  Uiso   1.00
C152   C     0.24077   0.64057   0.42774   0.00000  Uiso   1.00
C153   C     0.16146   0.65803   0.53376   0.00000  Uiso   1.00
C154   C     0.09979   0.71010   0.53463   0.00000  Uiso   1.00
C155   C     0.03208   0.71779   0.64046   0.00000  Uiso   1.00
C156   C     0.34596   0.63170   0.49787   0.00000  Uiso   1.00
C157   C     0.43941   0.66163   0.46855   0.00000  Uiso   1.00
C158   C     0.52703   0.64716   0.54414   0.00000  Uiso   1.00
C159   C     0.20766   0.57789   0.37931   0.00000  Uiso   1.00
C160   C     0.18487   0.56257   0.25029   0.00000  Uiso   1.00
C161   C     0.15609   0.50278   0.22606   0.00000  Uiso   1.00
H162   H     0.22573   0.52826   0.69294   0.00000  Uiso   1.00
H163   H     0.08368   0.58959   0.81918   0.00000  Uiso   1.00
H164   H     0.42325   0.54113   0.75309   0.00000  Uiso   1.00
H165   H     0.16874   0.44208   0.53487   0.00000  Uiso   1.00
H166   H     0.92874   0.67650   0.91452   0.00000  Uiso   1.00
H167   H     0.64475   0.57430   0.77514   0.00000  Uiso   1.00
H168   H     0.10809   0.36543   0.31498   0.00000  Uiso   1.00
H169   H     0.24524   0.67394   0.34892   0.00000  Uiso   1.00
H170   H     0.10425   0.74327   0.45628   0.00000  Uiso   1.00
H171   H     0.44382   0.69480   0.39019   0.00000  Uiso   1.00
H172   H     0.18932   0.59575   0.17198   0.00000  Uiso   1.00
H173   H     0.94544   0.80123   0.61997   0.00000  Uiso   1.00
H174   H     0.66146   0.69903   0.48059   0.00000  Uiso   1.00
H175   H     0.12479   0.49016   0.02044   0.00000  Uiso   1.00
O176   O     0.84401   0.78185   0.84410   0.00000  Uiso   1.00
O177   O     0.78340   0.64775   0.66122   0.00000  Uiso   1.00
O178   O     0.07930   0.37372   0.05751   0.00000  Uiso   1.00
N179   N     0.95200   0.69634   0.83045   0.00000  Uiso   1.00
N180   N     0.62143   0.60079   0.70015   0.00000  Uiso   1.00
N181   N     0.11972   0.40551   0.26994   0.00000  Uiso   1.00
N182   N     0.96099   0.76345   0.67196   0.00000  Uiso   1.00
N183   N     0.63042   0.66791   0.54166   0.00000  Uiso   1.00
N184   N     0.12871   0.47263   0.11145   0.00000  Uiso   1.00
