data_job_06260
_audit_creation_date              2018-12-19
_audit_creation_method            'Materials Studio'
_symmetry_space_group_name_H-M    'P1'
_symmetry_Int_Tables_number       1
_symmetry_cell_setting            triclinic
loop_
_symmetry_equiv_pos_as_xyz
  x,y,z
_cell_length_a                    19.1087
_cell_length_b                    19.2302
_cell_length_c                    19.3378
_cell_angle_alpha                 107.5480
_cell_angle_beta                  107.5660
_cell_angle_gamma                 107.5470
loop_
_atom_site_label
_atom_site_type_symbol
_atom_site_fract_x
_atom_site_fract_y
_atom_site_fract_z
_atom_site_U_iso_or_equiv
_atom_site_adp_type
_atom_site_occupancy
C1     C     0.22722   0.43182   0.09200   0.00000  Uiso   1.00
C2     C     0.20321   0.34126   0.05443   0.00000  Uiso   1.00
C3     C     0.24773   0.30264   0.08305   0.00000  Uiso   1.00
C4     C     0.21540   0.21936   0.04012   0.00000  Uiso   1.00
C5     C     0.18943   0.08529   0.99226   0.00000  Uiso   1.00
C6     C     0.22839   0.45922   0.02595   0.00000  Uiso   1.00
C7     C     0.29406   0.51979   0.03064   0.00000  Uiso   1.00
C8     C     0.28292   0.53581   0.96374   0.00000  Uiso   1.00
C9     C     0.29601   0.58492   0.87169   0.00000  Uiso   1.00
C10    C     0.15647   0.44070   0.10849   0.00000  Uiso   1.00
C11    C     0.16168   0.48571   0.18258   0.00000  Uiso   1.00
C12    C     0.08998   0.48616   0.18517   0.00000  Uiso   1.00
C13    C     0.99141   0.50652   0.22128   0.00000  Uiso   1.00
C14    C     0.09064   0.35260   0.96486   0.00000  Uiso   1.00
C15    C     0.12903   0.29823   0.98537   0.00000  Uiso   1.00
C16    C     0.09662   0.21499   0.94238   0.00000  Uiso   1.00
C17    C     0.14108   0.17625   0.97094   0.00000  Uiso   1.00
C18    C     0.15421   0.41619   0.95689   0.00000  Uiso   1.00
C19    C     0.14296   0.43213   0.88997   0.00000  Uiso   1.00
C20    C     0.20860   0.49271   0.89455   0.00000  Uiso   1.00
C21    C     0.08228   0.39766   0.03944   0.00000  Uiso   1.00
C22    C     0.01057   0.39805   0.04191   0.00000  Uiso   1.00
C23    C     0.01566   0.44306   0.11599   0.00000  Uiso   1.00
H24    H     0.28497   0.46532   0.14576   0.00000  Uiso   1.00
H25    H     0.30514   0.33596   0.13649   0.00000  Uiso   1.00
H26    H     0.35146   0.55308   0.08409   0.00000  Uiso   1.00
H27    H     0.21909   0.51900   0.23601   0.00000  Uiso   1.00
H28    H     0.29479   0.17357   0.09574   0.00000  Uiso   1.00
H29    H     0.39246   0.63139   0.98526   0.00000  Uiso   1.00
H30    H     0.11333   0.55954   0.30561   0.00000  Uiso   1.00
H31    H     0.03289   0.31909   0.91109   0.00000  Uiso   1.00
H32    H     0.03921   0.18170   0.88894   0.00000  Uiso   1.00
H33    H     0.08554   0.39882   0.83654   0.00000  Uiso   1.00
H34    H     0.95317   0.36475   0.98846   0.00000  Uiso   1.00
H35    H     0.07896   0.04837   0.89482   0.00000  Uiso   1.00
H36    H     0.17663   0.50620   0.78434   0.00000  Uiso   1.00
H37    H     0.89751   0.43434   0.10469   0.00000  Uiso   1.00
O38    O     0.19560   0.02323   0.98493   0.00000  Uiso   1.00
O39    O     0.32373   0.62389   0.83999   0.00000  Uiso   1.00
O40    O     0.95753   0.52962   0.26028   0.00000  Uiso   1.00
N41    N     0.24312   0.16296   0.05150   0.00000  Uiso   1.00
N42    N     0.33444   0.59098   0.94821   0.00000  Uiso   1.00
N43    N     0.07348   0.52383   0.24770   0.00000  Uiso   1.00
N44    N     0.12698   0.09558   0.94339   0.00000  Uiso   1.00
N45    N     0.21830   0.52361   0.84009   0.00000  Uiso   1.00
N46    N     0.95735   0.45646   0.13959   0.00000  Uiso   1.00
C47    C     0.09261   0.22692   0.43188   0.00000  Uiso   1.00
C48    C     0.05472   0.20305   0.34180   0.00000  Uiso   1.00
C49    C     0.08371   0.24734   0.30346   0.00000  Uiso   1.00
C50    C     0.04040   0.21519   0.22062   0.00000  Uiso   1.00
C51    C     0.99216   0.18937   0.08728   0.00000  Uiso   1.00
C52    C     0.02561   0.22789   0.45892   0.00000  Uiso   1.00
C53    C     0.03012   0.29306   0.51906   0.00000  Uiso   1.00
C54    C     0.96231   0.28181   0.53481   0.00000  Uiso   1.00
C55    C     0.86889   0.29454   0.58334   0.00000  Uiso   1.00
C56    C     0.10946   0.15672   0.44082   0.00000  Uiso   1.00
C57    C     0.18448   0.16205   0.48575   0.00000  Uiso   1.00
C58    C     0.18726   0.09088   0.48628   0.00000  Uiso   1.00
C59    C     0.22404   0.99311   0.50670   0.00000  Uiso   1.00
C60    C     0.96416   0.09106   0.35293   0.00000  Uiso   1.00
C61    C     0.98495   0.12926   0.29892   0.00000  Uiso   1.00
C62    C     0.94159   0.09703   0.21611   0.00000  Uiso   1.00
C63    C     0.97050   0.14126   0.17765   0.00000  Uiso   1.00
C64    C     0.95584   0.15410   0.41604   0.00000  Uiso   1.00
C65    C     0.88801   0.14275   0.43171   0.00000  Uiso   1.00
C66    C     0.89241   0.20788   0.49185   0.00000  Uiso   1.00
C67    C     0.03970   0.08292   0.39793   0.00000  Uiso   1.00
C68    C     0.04236   0.01174   0.39839   0.00000  Uiso   1.00
C69    C     0.11736   0.01696   0.44332   0.00000  Uiso   1.00
H70    H     0.14693   0.28438   0.46527   0.00000  Uiso   1.00
H71    H     0.13770   0.30445   0.33668   0.00000  Uiso   1.00
H72    H     0.08412   0.35016   0.55224   0.00000  Uiso   1.00
H73    H     0.23845   0.21917   0.51893   0.00000  Uiso   1.00
H74    H     0.09668   0.29418   0.17519   0.00000  Uiso   1.00
H75    H     0.98373   0.39055   0.62975   0.00000  Uiso   1.00
H76    H     0.30916   0.11434   0.55951   0.00000  Uiso   1.00
H77    H     0.90984   0.03360   0.31954   0.00000  Uiso   1.00
H78    H     0.88760   0.03992   0.18294   0.00000  Uiso   1.00
H79    H     0.83403   0.08563   0.39851   0.00000  Uiso   1.00
H80    H     0.98836   0.95464   0.36520   0.00000  Uiso   1.00
H81    H     0.89369   0.07948   0.05041   0.00000  Uiso   1.00
H82    H     0.78074   0.17585   0.50498   0.00000  Uiso   1.00
H83    H     0.10618   0.89963   0.43473   0.00000  Uiso   1.00
O84    O     0.98482   0.19552   0.02558   0.00000  Uiso   1.00
O85    O     0.83664   0.32195   0.62195   0.00000  Uiso   1.00
O86    O     0.26360   0.95956   0.52979   0.00000  Uiso   1.00
N87    N     0.05197   0.24278   0.16457   0.00000  Uiso   1.00
N88    N     0.94636   0.33288   0.58955   0.00000  Uiso   1.00
N89    N     0.25061   0.07465   0.52390   0.00000  Uiso   1.00
N90    N     0.94274   0.12725   0.09743   0.00000  Uiso   1.00
N91    N     0.83713   0.21735   0.52240   0.00000  Uiso   1.00
N92    N     0.14139   0.95911   0.45675   0.00000  Uiso   1.00
C93    C     0.43176   0.09219   0.22651   0.00000  Uiso   1.00
C94    C     0.34057   0.05436   0.20258   0.00000  Uiso   1.00
C95    C     0.30158   0.08300   0.24645   0.00000  Uiso   1.00
C96    C     0.21775   0.03981   0.21431   0.00000  Uiso   1.00
C97    C     0.08273   0.99159   0.18832   0.00000  Uiso   1.00
C98    C     0.45931   0.02575   0.22762   0.00000  Uiso   1.00
C99    C     0.52015   0.03034   0.29254   0.00000  Uiso   1.00
C100   C     0.53628   0.96306   0.28147   0.00000  Uiso   1.00
C101   C     0.58565   0.87045   0.29434   0.00000  Uiso   1.00
C102   C     0.44089   0.10899   0.15676   0.00000  Uiso   1.00
C103   C     0.48628   0.18358   0.16212   0.00000  Uiso   1.00
C104   C     0.48692   0.18639   0.09139   0.00000  Uiso   1.00
C105   C     0.50770   0.22302   0.99425   0.00000  Uiso   1.00
C106   C     0.35223   0.96456   0.09140   0.00000  Uiso   1.00
C107   C     0.29738   0.98503   0.12919   0.00000  Uiso   1.00
C108   C     0.21358   0.94179   0.09697   0.00000  Uiso   1.00
C109   C     0.17447   0.97036   0.14079   0.00000  Uiso   1.00
C110   C     0.41611   0.95642   0.15423   0.00000  Uiso   1.00
C111   C     0.43216   0.88913   0.14306   0.00000  Uiso   1.00
C112   C     0.49301   0.89361   0.20795   0.00000  Uiso   1.00
C113   C     0.39770   0.03967   0.08337   0.00000  Uiso   1.00
C114   C     0.39828   0.04236   0.01263   0.00000  Uiso   1.00
C115   C     0.44364   0.11693   0.01787   0.00000  Uiso   1.00
H116   H     0.46539   0.14616   0.28365   0.00000  Uiso   1.00
H117   H     0.33503   0.13665   0.30325   0.00000  Uiso   1.00
H118   H     0.55358   0.08400   0.34933   0.00000  Uiso   1.00
H119   H     0.51970   0.23721   0.21892   0.00000  Uiso   1.00
H120   H     0.17145   0.09552   0.29263   0.00000  Uiso   1.00
H121   H     0.63229   0.98451   0.38978   0.00000  Uiso   1.00
H122   H     0.56085   0.30759   0.11478   0.00000  Uiso   1.00
H123   H     0.31860   0.91058   0.03426   0.00000  Uiso   1.00
H124   H     0.18017   0.88814   0.04017   0.00000  Uiso   1.00
H125   H     0.39872   0.83549   0.08625   0.00000  Uiso   1.00
H126   H     0.36484   0.98870   0.95584   0.00000  Uiso   1.00
H127   H     0.04576   0.89382   0.07911   0.00000  Uiso   1.00
H128   H     0.50660   0.78281   0.17626   0.00000  Uiso   1.00
H129   H     0.43516   0.10588   0.90126   0.00000  Uiso   1.00
O130   O     0.02020   0.98414   0.19427   0.00000  Uiso   1.00
O131   O     0.62481   0.83851   0.32172   0.00000  Uiso   1.00
O132   O     0.53108   0.26238   0.96094   0.00000  Uiso   1.00
N133   N     0.16086   0.05114   0.24156   0.00000  Uiso   1.00
N134   N     0.59171   0.94734   0.33239   0.00000  Uiso   1.00
N135   N     0.52494   0.24939   0.07530   0.00000  Uiso   1.00
N136   N     0.09323   0.94260   0.12666   0.00000  Uiso   1.00
N137   N     0.52408   0.83881   0.21750   0.00000  Uiso   1.00
N138   N     0.45731   0.14086   0.96040   0.00000  Uiso   1.00
C139   C     0.77278   0.56818   0.90800   0.00000  Uiso   1.00
C140   C     0.79679   0.65874   0.94557   0.00000  Uiso   1.00
C141   C     0.75227   0.69736   0.91695   0.00000  Uiso   1.00
C142   C     0.78460   0.78064   0.95988   0.00000  Uiso   1.00
C143   C     0.81057   0.91471   0.00774   0.00000  Uiso   1.00
C144   C     0.77161   0.54078   0.97405   0.00000  Uiso   1.00
C145   C     0.70594   0.48021   0.96936   0.00000  Uiso   1.00
C146   C     0.71708   0.46419   0.03626   0.00000  Uiso   1.00
C147   C     0.70399   0.41508   0.12831   0.00000  Uiso   1.00
C148   C     0.84353   0.55930   0.89151   0.00000  Uiso   1.00
C149   C     0.83832   0.51429   0.81742   0.00000  Uiso   1.00
C150   C     0.91002   0.51384   0.81483   0.00000  Uiso   1.00
C151   C     0.00859   0.49348   0.77871   0.00000  Uiso   1.00
C152   C     0.90936   0.64740   0.03514   0.00000  Uiso   1.00
C153   C     0.87097   0.70177   0.01463   0.00000  Uiso   1.00
C154   C     0.90338   0.78501   0.05762   0.00000  Uiso   1.00
C155   C     0.85892   0.82375   0.02906   0.00000  Uiso   1.00
C156   C     0.84579   0.58381   0.04311   0.00000  Uiso   1.00
C157   C     0.85704   0.56787   0.11003   0.00000  Uiso   1.00
C158   C     0.79140   0.50729   0.10545   0.00000  Uiso   1.00
C159   C     0.91772   0.60234   0.96056   0.00000  Uiso   1.00
C160   C     0.98943   0.60195   0.95809   0.00000  Uiso   1.00
C161   C     0.98434   0.55694   0.88401   0.00000  Uiso   1.00
H162   H     0.71503   0.53468   0.85424   0.00000  Uiso   1.00
H163   H     0.69486   0.66404   0.86351   0.00000  Uiso   1.00
H164   H     0.64854   0.44692   0.91591   0.00000  Uiso   1.00
H165   H     0.78091   0.48100   0.76399   0.00000  Uiso   1.00
H166   H     0.70521   0.82643   0.90426   0.00000  Uiso   1.00
H167   H     0.60754   0.36861   0.01474   0.00000  Uiso   1.00
H168   H     0.88667   0.44046   0.69439   0.00000  Uiso   1.00
H169   H     0.96711   0.68090   0.08891   0.00000  Uiso   1.00
H170   H     0.96079   0.81830   0.11106   0.00000  Uiso   1.00
H171   H     0.91446   0.60117   0.16346   0.00000  Uiso   1.00
H172   H     0.04683   0.63525   0.01154   0.00000  Uiso   1.00
H173   H     0.92104   0.95163   0.10518   0.00000  Uiso   1.00
H174   H     0.82337   0.49380   0.21566   0.00000  Uiso   1.00
H175   H     0.10249   0.56566   0.89531   0.00000  Uiso   1.00
O176   O     0.80440   0.97677   0.01507   0.00000  Uiso   1.00
O177   O     0.67627   0.37611   0.16001   0.00000  Uiso   1.00
O178   O     0.04247   0.47038   0.73972   0.00000  Uiso   1.00
N179   N     0.75688   0.83704   0.94850   0.00000  Uiso   1.00
N180   N     0.66556   0.40902   0.05179   0.00000  Uiso   1.00
N181   N     0.92652   0.47617   0.75230   0.00000  Uiso   1.00
N182   N     0.87302   0.90441   0.05661   0.00000  Uiso   1.00
N183   N     0.78170   0.47639   0.15991   0.00000  Uiso   1.00
N184   N     0.04265   0.54354   0.86041   0.00000  Uiso   1.00
C185   C     0.90739   0.77308   0.56812   0.00000  Uiso   1.00
C186   C     0.94528   0.79695   0.65820   0.00000  Uiso   1.00
C187   C     0.91629   0.75266   0.69654   0.00000  Uiso   1.00
C188   C     0.95960   0.78481   0.77938   0.00000  Uiso   1.00
C189   C     0.00784   0.81063   0.91272   0.00000  Uiso   1.00
C190   C     0.97439   0.77211   0.54108   0.00000  Uiso   1.00
C191   C     0.96988   0.70694   0.48094   0.00000  Uiso   1.00
C192   C     0.03769   0.71819   0.46519   0.00000  Uiso   1.00
C193   C     0.13111   0.70546   0.41666   0.00000  Uiso   1.00
C194   C     0.89054   0.84328   0.55918   0.00000  Uiso   1.00
C195   C     0.81552   0.83795   0.51425   0.00000  Uiso   1.00
C196   C     0.81274   0.90912   0.51372   0.00000  Uiso   1.00
C197   C     0.77596   0.00689   0.49330   0.00000  Uiso   1.00
C198   C     0.03584   0.90894   0.64707   0.00000  Uiso   1.00
C199   C     0.01505   0.87074   0.70108   0.00000  Uiso   1.00
C200   C     0.05841   0.90297   0.78389   0.00000  Uiso   1.00
C201   C     0.02950   0.85874   0.82235   0.00000  Uiso   1.00
C202   C     0.04416   0.84590   0.58396   0.00000  Uiso   1.00
C203   C     0.11199   0.85725   0.56829   0.00000  Uiso   1.00
C204   C     0.10759   0.79212   0.50815   0.00000  Uiso   1.00
C205   C     0.96030   0.91708   0.60207   0.00000  Uiso   1.00
C206   C     0.95764   0.98826   0.60161   0.00000  Uiso   1.00
C207   C     0.88264   0.98304   0.55668   0.00000  Uiso   1.00
H208   H     0.85307   0.71562   0.53473   0.00000  Uiso   1.00
H209   H     0.86230   0.69555   0.66332   0.00000  Uiso   1.00
H210   H     0.91588   0.64984   0.44776   0.00000  Uiso   1.00
H211   H     0.76155   0.78083   0.48107   0.00000  Uiso   1.00
H212   H     0.90332   0.70582   0.82481   0.00000  Uiso   1.00
H213   H     0.01627   0.60945   0.37025   0.00000  Uiso   1.00
H214   H     0.69083   0.88566   0.44049   0.00000  Uiso   1.00
H215   H     0.09016   0.96640   0.68046   0.00000  Uiso   1.00
H216   H     0.11240   0.96008   0.81706   0.00000  Uiso   1.00
H217   H     0.16597   0.91437   0.60149   0.00000  Uiso   1.00
H218   H     0.01164   0.04536   0.63480   0.00000  Uiso   1.00
H219   H     0.10631   0.92052   0.94959   0.00000  Uiso   1.00
H220   H     0.21926   0.82415   0.49502   0.00000  Uiso   1.00
H221   H     0.89382   0.10037   0.56527   0.00000  Uiso   1.00
O222   O     0.01518   0.80448   0.97442   0.00000  Uiso   1.00
O223   O     0.16336   0.67805   0.37805   0.00000  Uiso   1.00
O224   O     0.73640   0.04044   0.47021   0.00000  Uiso   1.00
N225   N     0.94803   0.75722   0.83543   0.00000  Uiso   1.00
N226   N     0.05364   0.66712   0.41045   0.00000  Uiso   1.00
N227   N     0.74939   0.92535   0.47610   0.00000  Uiso   1.00
N228   N     0.05726   0.87275   0.90257   0.00000  Uiso   1.00
N229   N     0.16287   0.78265   0.47760   0.00000  Uiso   1.00
N230   N     0.85861   0.04089   0.54325   0.00000  Uiso   1.00
C231   C     0.56824   0.90781   0.77349   0.00000  Uiso   1.00
C232   C     0.65943   0.94564   0.79742   0.00000  Uiso   1.00
C233   C     0.69842   0.91700   0.75355   0.00000  Uiso   1.00
C234   C     0.78225   0.96019   0.78569   0.00000  Uiso   1.00
C235   C     0.91727   0.00841   0.81168   0.00000  Uiso   1.00
C236   C     0.54069   0.97425   0.77238   0.00000  Uiso   1.00
C237   C     0.47985   0.96966   0.70746   0.00000  Uiso   1.00
C238   C     0.46372   0.03694   0.71853   0.00000  Uiso   1.00
C239   C     0.41435   0.12955   0.70566   0.00000  Uiso   1.00
C240   C     0.55910   0.89101   0.84324   0.00000  Uiso   1.00
C241   C     0.51372   0.81642   0.83788   0.00000  Uiso   1.00
C242   C     0.51308   0.81361   0.90861   0.00000  Uiso   1.00
C243   C     0.49230   0.77698   0.00575   0.00000  Uiso   1.00
C244   C     0.64777   0.03544   0.90860   0.00000  Uiso   1.00
C245   C     0.70262   0.01497   0.87081   0.00000  Uiso   1.00
C246   C     0.78642   0.05821   0.90303   0.00000  Uiso   1.00
C247   C     0.82553   0.02964   0.85921   0.00000  Uiso   1.00
C248   C     0.58389   0.04358   0.84577   0.00000  Uiso   1.00
C249   C     0.56784   0.11087   0.85694   0.00000  Uiso   1.00
C250   C     0.50699   0.10639   0.79205   0.00000  Uiso   1.00
C251   C     0.60230   0.96033   0.91663   0.00000  Uiso   1.00
C252   C     0.60172   0.95764   0.98737   0.00000  Uiso   1.00
C253   C     0.55636   0.88307   0.98213   0.00000  Uiso   1.00
H254   H     0.53461   0.85384   0.71635   0.00000  Uiso   1.00
H255   H     0.66497   0.86335   0.69675   0.00000  Uiso   1.00
H256   H     0.44642   0.91600   0.65067   0.00000  Uiso   1.00
H257   H     0.48030   0.76279   0.78108   0.00000  Uiso   1.00
H258   H     0.82855   0.90448   0.70737   0.00000  Uiso   1.00
H259   H     0.36771   0.01549   0.61022   0.00000  Uiso   1.00
H260   H     0.43915   0.69241   0.88522   0.00000  Uiso   1.00
H261   H     0.68140   0.08942   0.96574   0.00000  Uiso   1.00
H262   H     0.81983   0.11186   0.95983   0.00000  Uiso   1.00
H263   H     0.60128   0.16451   0.91375   0.00000  Uiso   1.00
H264   H     0.63516   0.01130   0.04416   0.00000  Uiso   1.00
H265   H     0.95424   0.10618   0.92089   0.00000  Uiso   1.00
H266   H     0.49340   0.21719   0.82374   0.00000  Uiso   1.00
H267   H     0.56484   0.89412   0.09874   0.00000  Uiso   1.00
O268   O     0.97980   0.01586   0.80573   0.00000  Uiso   1.00
O269   O     0.37519   0.16149   0.67828   0.00000  Uiso   1.00
O270   O     0.46892   0.73762   0.03906   0.00000  Uiso   1.00
N271   N     0.83914   0.94886   0.75844   0.00000  Uiso   1.00
N272   N     0.40829   0.05266   0.66761   0.00000  Uiso   1.00
N273   N     0.47506   0.75061   0.92470   0.00000  Uiso   1.00
N274   N     0.90677   0.05740   0.87334   0.00000  Uiso   1.00
N275   N     0.47592   0.16119   0.78250   0.00000  Uiso   1.00
N276   N     0.54269   0.85914   0.03960   0.00000  Uiso   1.00
