data_job_05760
_audit_creation_date              2018-12-19
_audit_creation_method            'Materials Studio'
_symmetry_space_group_name_H-M    'P1'
_symmetry_Int_Tables_number       1
_symmetry_cell_setting            triclinic
loop_
_symmetry_equiv_pos_as_xyz
  x,y,z
_cell_length_a                    25.0172
_cell_length_b                    7.8402
_cell_length_c                    30.7039
_cell_angle_alpha                 90.0000
_cell_angle_beta                  90.0000
_cell_angle_gamma                 90.0000
loop_
_atom_site_label
_atom_site_type_symbol
_atom_site_fract_x
_atom_site_fract_y
_atom_site_fract_z
_atom_site_U_iso_or_equiv
_atom_site_adp_type
_atom_site_occupancy
C1     C     0.14485   0.24205   0.40607   0.00000  Uiso   1.00
C2     C     0.20099   0.16630   0.40540   0.00000  Uiso   1.00
C3     C     0.24596   0.24267   0.38752   0.00000  Uiso   1.00
C4     C     0.29364   0.15262   0.39019   0.00000  Uiso   1.00
C5     C     0.38041   0.05939   0.38610   0.00000  Uiso   1.00
C6     C     0.10880   0.11101   0.38407   0.00000  Uiso   1.00
C7     C     0.07626   0.14091   0.34826   0.00000  Uiso   1.00
C8     C     0.04633   0.00432   0.33298   0.00000  Uiso   1.00
C9     C     0.98995   0.82529   0.29580   0.00000  Uiso   1.00
C10    C     0.12798   0.24618   0.45378   0.00000  Uiso   1.00
C11    C     0.11155   0.38972   0.47660   0.00000  Uiso   1.00
C12    C     0.09774   0.36692   0.52001   0.00000  Uiso   1.00
C13    C     0.07114   0.39776   0.59107   0.00000  Uiso   1.00
C14    C     0.14954   0.94632   0.44260   0.00000  Uiso   1.00
C15    C     0.20353   0.00566   0.42524   0.00000  Uiso   1.00
C16    C     0.25115   0.91548   0.42793   0.00000  Uiso   1.00
C17    C     0.29619   0.99171   0.41006   0.00000  Uiso   1.00
C18    C     0.11135   0.95038   0.40391   0.00000  Uiso   1.00
C19    C     0.08145   0.81372   0.38868   0.00000  Uiso   1.00
C20    C     0.04888   0.84340   0.35286   0.00000  Uiso   1.00
C21    C     0.13052   0.08555   0.47363   0.00000  Uiso   1.00
C22    C     0.11674   0.06252   0.51701   0.00000  Uiso   1.00
C23    C     0.10029   0.20600   0.53988   0.00000  Uiso   1.00
H24    H     0.14287   0.36710   0.39062   0.00000  Uiso   1.00
H25    H     0.24398   0.36697   0.37216   0.00000  Uiso   1.00
H26    H     0.07430   0.26523   0.33292   0.00000  Uiso   1.00
H27    H     0.10958   0.51400   0.46123   0.00000  Uiso   1.00
H28    H     0.35719   0.29597   0.36043   0.00000  Uiso   1.00
H29    H     0.99941   0.08145   0.27769   0.00000  Uiso   1.00
H30    H     0.07380   0.60603   0.54826   0.00000  Uiso   1.00
H31    H     0.15152   0.82126   0.45805   0.00000  Uiso   1.00
H32    H     0.25311   0.79118   0.44329   0.00000  Uiso   1.00
H33    H     0.08343   0.68944   0.40404   0.00000  Uiso   1.00
H34    H     0.11871   0.93820   0.53235   0.00000  Uiso   1.00
H35    H     0.36461   0.82863   0.41816   0.00000  Uiso   1.00
H36    H     0.00682   0.61412   0.33541   0.00000  Uiso   1.00
H37    H     0.08121   0.13869   0.60599   0.00000  Uiso   1.00
O38    O     0.42757   0.05233   0.37836   0.00000  Uiso   1.00
O39    O     0.95816   0.77091   0.26980   0.00000  Uiso   1.00
O40    O     0.05576   0.45915   0.62479   0.00000  Uiso   1.00
N41    N     0.34500   0.19012   0.37605   0.00000  Uiso   1.00
N42    N     0.01050   0.98956   0.29869   0.00000  Uiso   1.00
N43    N     0.08003   0.47999   0.55165   0.00000  Uiso   1.00
N44    N     0.34899   0.93865   0.40711   0.00000  Uiso   1.00
N45    N     0.01448   0.73809   0.32975   0.00000  Uiso   1.00
N46    N     0.08402   0.22852   0.58271   0.00000  Uiso   1.00
C47    C     0.91337   0.24091   0.59830   0.00000  Uiso   1.00
C48    C     0.85735   0.16428   0.59895   0.00000  Uiso   1.00
C49    C     0.81219   0.24034   0.61661   0.00000  Uiso   1.00
C50    C     0.76467   0.14948   0.61396   0.00000  Uiso   1.00
C51    C     0.67803   0.05496   0.61797   0.00000  Uiso   1.00
C52    C     0.94954   0.11094   0.62059   0.00000  Uiso   1.00
C53    C     0.98190   0.14216   0.65643   0.00000  Uiso   1.00
C54    C     0.01199   0.00640   0.67198   0.00000  Uiso   1.00
C55    C     0.06851   0.82911   0.70957   0.00000  Uiso   1.00
C56    C     0.93042   0.24422   0.55063   0.00000  Uiso   1.00
C57    C     0.94671   0.38751   0.52764   0.00000  Uiso   1.00
C58    C     0.96071   0.36395   0.48430   0.00000  Uiso   1.00
C59    C     0.98753   0.39361   0.41326   0.00000  Uiso   1.00
C60    C     0.90928   0.94429   0.56220   0.00000  Uiso   1.00
C61    C     0.85513   0.00316   0.57934   0.00000  Uiso   1.00
C62    C     0.80766   0.91216   0.57666   0.00000  Uiso   1.00
C63    C     0.76244   0.98808   0.59431   0.00000  Uiso   1.00
C64    C     0.94732   0.94983   0.60098   0.00000  Uiso   1.00
C65    C     0.97737   0.81399   0.61648   0.00000  Uiso   1.00
C66    C     0.00976   0.84499   0.65234   0.00000  Uiso   1.00
C67    C     0.92819   0.08311   0.53102   0.00000  Uiso   1.00
C68    C     0.94218   0.05933   0.48770   0.00000  Uiso   1.00
C69    C     0.95848   0.20255   0.46466   0.00000  Uiso   1.00
H70    H     0.91510   0.36633   0.61357   0.00000  Uiso   1.00
H71    H     0.81393   0.36502   0.63178   0.00000  Uiso   1.00
H72    H     0.98362   0.26686   0.67159   0.00000  Uiso   1.00
H73    H     0.94842   0.51216   0.54283   0.00000  Uiso   1.00
H74    H     0.70078   0.29248   0.64334   0.00000  Uiso   1.00
H75    H     0.05859   0.08552   0.72728   0.00000  Uiso   1.00
H76    H     0.98438   0.60280   0.45575   0.00000  Uiso   1.00
H77    H     0.90755   0.81885   0.54693   0.00000  Uiso   1.00
H78    H     0.80596   0.78749   0.56149   0.00000  Uiso   1.00
H79    H     0.97564   0.68933   0.60130   0.00000  Uiso   1.00
H80    H     0.94045   0.93463   0.47254   0.00000  Uiso   1.00
H81    H     0.69431   0.82373   0.58629   0.00000  Uiso   1.00
H82    H     0.05212   0.61678   0.67022   0.00000  Uiso   1.00
H83    H     0.97791   0.13405   0.39870   0.00000  Uiso   1.00
O84    O     0.63085   0.04733   0.62561   0.00000  Uiso   1.00
O85    O     0.10029   0.77583   0.73572   0.00000  Uiso   1.00
O86    O     0.00293   0.45448   0.37949   0.00000  Uiso   1.00
N87    N     0.71320   0.18648   0.62791   0.00000  Uiso   1.00
N88    N     0.04772   0.99298   0.70639   0.00000  Uiso   1.00
N89    N     0.97836   0.47658   0.45254   0.00000  Uiso   1.00
N90    N     0.70972   0.93425   0.59721   0.00000  Uiso   1.00
N91    N     0.04424   0.74075   0.67569   0.00000  Uiso   1.00
N92    N     0.97488   0.22435   0.42184   0.00000  Uiso   1.00
C93    C     0.85515   0.75795   0.90607   0.00000  Uiso   1.00
C94    C     0.79901   0.83370   0.90540   0.00000  Uiso   1.00
C95    C     0.75404   0.75733   0.88752   0.00000  Uiso   1.00
C96    C     0.70636   0.84738   0.89019   0.00000  Uiso   1.00
C97    C     0.61959   0.94061   0.88610   0.00000  Uiso   1.00
C98    C     0.89120   0.88899   0.88407   0.00000  Uiso   1.00
C99    C     0.92374   0.85909   0.84826   0.00000  Uiso   1.00
C100   C     0.95367   0.99568   0.83298   0.00000  Uiso   1.00
C101   C     0.01005   0.17471   0.79580   0.00000  Uiso   1.00
C102   C     0.87202   0.75382   0.95378   0.00000  Uiso   1.00
C103   C     0.88845   0.61028   0.97660   0.00000  Uiso   1.00
C104   C     0.90226   0.63308   0.02001   0.00000  Uiso   1.00
C105   C     0.92886   0.60224   0.09107   0.00000  Uiso   1.00
C106   C     0.85046   0.05368   0.94260   0.00000  Uiso   1.00
C107   C     0.79647   0.99434   0.92524   0.00000  Uiso   1.00
C108   C     0.74885   0.08452   0.92793   0.00000  Uiso   1.00
C109   C     0.70381   0.00829   0.91006   0.00000  Uiso   1.00
C110   C     0.88865   0.04962   0.90391   0.00000  Uiso   1.00
C111   C     0.91855   0.18628   0.88868   0.00000  Uiso   1.00
C112   C     0.95112   0.15660   0.85286   0.00000  Uiso   1.00
C113   C     0.86948   0.91445   0.97363   0.00000  Uiso   1.00
C114   C     0.88326   0.93748   0.01701   0.00000  Uiso   1.00
C115   C     0.89971   0.79400   0.03988   0.00000  Uiso   1.00
H116   H     0.85713   0.63290   0.89062   0.00000  Uiso   1.00
H117   H     0.75602   0.63303   0.87216   0.00000  Uiso   1.00
H118   H     0.92570   0.73477   0.83292   0.00000  Uiso   1.00
H119   H     0.89042   0.48600   0.96123   0.00000  Uiso   1.00
H120   H     0.64281   0.70403   0.86043   0.00000  Uiso   1.00
H121   H     0.00059   0.91855   0.77769   0.00000  Uiso   1.00
H122   H     0.92620   0.39397   0.04826   0.00000  Uiso   1.00
H123   H     0.84848   0.17874   0.95805   0.00000  Uiso   1.00
H124   H     0.74689   0.20882   0.94329   0.00000  Uiso   1.00
H125   H     0.91657   0.31056   0.90404   0.00000  Uiso   1.00
H126   H     0.88129   0.06180   0.03235   0.00000  Uiso   1.00
H127   H     0.63539   0.17137   0.91816   0.00000  Uiso   1.00
H128   H     0.99318   0.38588   0.83541   0.00000  Uiso   1.00
H129   H     0.91879   0.86131   0.10599   0.00000  Uiso   1.00
O130   O     0.57243   0.94767   0.87836   0.00000  Uiso   1.00
O131   O     0.04184   0.22909   0.76980   0.00000  Uiso   1.00
O132   O     0.94424   0.54085   0.12479   0.00000  Uiso   1.00
N133   N     0.65500   0.80988   0.87605   0.00000  Uiso   1.00
N134   N     0.98950   0.01044   0.79869   0.00000  Uiso   1.00
N135   N     0.91997   0.52001   0.05165   0.00000  Uiso   1.00
N136   N     0.65101   0.06135   0.90711   0.00000  Uiso   1.00
N137   N     0.98552   0.26191   0.82975   0.00000  Uiso   1.00
N138   N     0.91598   0.77148   0.08271   0.00000  Uiso   1.00
C139   C     0.08663   0.75909   0.09830   0.00000  Uiso   1.00
C140   C     0.14265   0.83572   0.09895   0.00000  Uiso   1.00
C141   C     0.18781   0.75966   0.11661   0.00000  Uiso   1.00
C142   C     0.23533   0.85052   0.11396   0.00000  Uiso   1.00
C143   C     0.32197   0.94504   0.11797   0.00000  Uiso   1.00
C144   C     0.05046   0.88906   0.12059   0.00000  Uiso   1.00
C145   C     0.01810   0.85784   0.15643   0.00000  Uiso   1.00
C146   C     0.98801   0.99360   0.17198   0.00000  Uiso   1.00
C147   C     0.93149   0.17089   0.20957   0.00000  Uiso   1.00
C148   C     0.06958   0.75578   0.05063   0.00000  Uiso   1.00
C149   C     0.05329   0.61249   0.02764   0.00000  Uiso   1.00
C150   C     0.03929   0.63605   0.98430   0.00000  Uiso   1.00
C151   C     0.01247   0.60639   0.91326   0.00000  Uiso   1.00
C152   C     0.09072   0.05571   0.06220   0.00000  Uiso   1.00
C153   C     0.14487   0.99684   0.07934   0.00000  Uiso   1.00
C154   C     0.19234   0.08784   0.07666   0.00000  Uiso   1.00
C155   C     0.23756   0.01192   0.09431   0.00000  Uiso   1.00
C156   C     0.05268   0.05017   0.10098   0.00000  Uiso   1.00
C157   C     0.02263   0.18601   0.11648   0.00000  Uiso   1.00
C158   C     0.99024   0.15501   0.15234   0.00000  Uiso   1.00
C159   C     0.07181   0.91689   0.03102   0.00000  Uiso   1.00
C160   C     0.05782   0.94067   0.98770   0.00000  Uiso   1.00
C161   C     0.04152   0.79745   0.96466   0.00000  Uiso   1.00
H162   H     0.08490   0.63367   0.11357   0.00000  Uiso   1.00
H163   H     0.18607   0.63498   0.13178   0.00000  Uiso   1.00
H164   H     0.01638   0.73314   0.17159   0.00000  Uiso   1.00
H165   H     0.05158   0.48784   0.04283   0.00000  Uiso   1.00
H166   H     0.29922   0.70752   0.14334   0.00000  Uiso   1.00
H167   H     0.94141   0.91448   0.22728   0.00000  Uiso   1.00
H168   H     0.01562   0.39720   0.95575   0.00000  Uiso   1.00
H169   H     0.09245   0.18115   0.04693   0.00000  Uiso   1.00
H170   H     0.19404   0.21251   0.06149   0.00000  Uiso   1.00
H171   H     0.02436   0.31067   0.10130   0.00000  Uiso   1.00
H172   H     0.05955   0.06537   0.97254   0.00000  Uiso   1.00
H173   H     0.30569   0.17627   0.08629   0.00000  Uiso   1.00
H174   H     0.94788   0.38322   0.17022   0.00000  Uiso   1.00
H175   H     0.02209   0.86595   0.89870   0.00000  Uiso   1.00
O176   O     0.36915   0.95267   0.12561   0.00000  Uiso   1.00
O177   O     0.89971   0.22417   0.23572   0.00000  Uiso   1.00
O178   O     0.99707   0.54552   0.87949   0.00000  Uiso   1.00
N179   N     0.28680   0.81352   0.12791   0.00000  Uiso   1.00
N180   N     0.95228   0.00702   0.20639   0.00000  Uiso   1.00
N181   N     0.02164   0.52342   0.95254   0.00000  Uiso   1.00
N182   N     0.29028   0.06575   0.09721   0.00000  Uiso   1.00
N183   N     0.95576   0.25925   0.17569   0.00000  Uiso   1.00
N184   N     0.02512   0.77565   0.92184   0.00000  Uiso   1.00
C185   C     0.64485   0.75795   0.40607   0.00000  Uiso   1.00
C186   C     0.70099   0.83370   0.40540   0.00000  Uiso   1.00
C187   C     0.74596   0.75733   0.38752   0.00000  Uiso   1.00
C188   C     0.79364   0.84738   0.39019   0.00000  Uiso   1.00
C189   C     0.88041   0.94061   0.38610   0.00000  Uiso   1.00
C190   C     0.60880   0.88899   0.38407   0.00000  Uiso   1.00
C191   C     0.57626   0.85909   0.34826   0.00000  Uiso   1.00
C192   C     0.54633   0.99568   0.33298   0.00000  Uiso   1.00
C193   C     0.48995   0.17471   0.29580   0.00000  Uiso   1.00
C194   C     0.62798   0.75382   0.45378   0.00000  Uiso   1.00
C195   C     0.61155   0.61028   0.47660   0.00000  Uiso   1.00
C196   C     0.59774   0.63308   0.52001   0.00000  Uiso   1.00
C197   C     0.57114   0.60224   0.59107   0.00000  Uiso   1.00
C198   C     0.64954   0.05368   0.44260   0.00000  Uiso   1.00
C199   C     0.70353   0.99434   0.42524   0.00000  Uiso   1.00
C200   C     0.75115   0.08452   0.42793   0.00000  Uiso   1.00
C201   C     0.79619   0.00829   0.41006   0.00000  Uiso   1.00
C202   C     0.61135   0.04962   0.40391   0.00000  Uiso   1.00
C203   C     0.58145   0.18628   0.38868   0.00000  Uiso   1.00
C204   C     0.54888   0.15660   0.35286   0.00000  Uiso   1.00
C205   C     0.63052   0.91445   0.47363   0.00000  Uiso   1.00
C206   C     0.61674   0.93748   0.51701   0.00000  Uiso   1.00
C207   C     0.60029   0.79400   0.53988   0.00000  Uiso   1.00
H208   H     0.64287   0.63290   0.39062   0.00000  Uiso   1.00
H209   H     0.74398   0.63303   0.37216   0.00000  Uiso   1.00
H210   H     0.57430   0.73477   0.33292   0.00000  Uiso   1.00
H211   H     0.60958   0.48600   0.46123   0.00000  Uiso   1.00
H212   H     0.85719   0.70403   0.36043   0.00000  Uiso   1.00
H213   H     0.49941   0.91855   0.27769   0.00000  Uiso   1.00
H214   H     0.57380   0.39397   0.54826   0.00000  Uiso   1.00
H215   H     0.65152   0.17874   0.45805   0.00000  Uiso   1.00
H216   H     0.75311   0.20882   0.44329   0.00000  Uiso   1.00
H217   H     0.58343   0.31056   0.40404   0.00000  Uiso   1.00
H218   H     0.61871   0.06180   0.53235   0.00000  Uiso   1.00
H219   H     0.86461   0.17137   0.41816   0.00000  Uiso   1.00
H220   H     0.50682   0.38588   0.33541   0.00000  Uiso   1.00
H221   H     0.58121   0.86131   0.60599   0.00000  Uiso   1.00
O222   O     0.92757   0.94767   0.37836   0.00000  Uiso   1.00
O223   O     0.45816   0.22909   0.26980   0.00000  Uiso   1.00
O224   O     0.55576   0.54085   0.62479   0.00000  Uiso   1.00
N225   N     0.84500   0.80988   0.37605   0.00000  Uiso   1.00
N226   N     0.51050   0.01044   0.29869   0.00000  Uiso   1.00
N227   N     0.58003   0.52001   0.55165   0.00000  Uiso   1.00
N228   N     0.84899   0.06135   0.40711   0.00000  Uiso   1.00
N229   N     0.51448   0.26191   0.32975   0.00000  Uiso   1.00
N230   N     0.58402   0.77148   0.58271   0.00000  Uiso   1.00
C231   C     0.41337   0.75909   0.59830   0.00000  Uiso   1.00
C232   C     0.35735   0.83572   0.59895   0.00000  Uiso   1.00
C233   C     0.31219   0.75966   0.61661   0.00000  Uiso   1.00
C234   C     0.26467   0.85052   0.61396   0.00000  Uiso   1.00
C235   C     0.17803   0.94504   0.61797   0.00000  Uiso   1.00
C236   C     0.44954   0.88906   0.62059   0.00000  Uiso   1.00
C237   C     0.48190   0.85784   0.65643   0.00000  Uiso   1.00
C238   C     0.51199   0.99360   0.67198   0.00000  Uiso   1.00
C239   C     0.56851   0.17089   0.70957   0.00000  Uiso   1.00
C240   C     0.43042   0.75578   0.55063   0.00000  Uiso   1.00
C241   C     0.44671   0.61249   0.52764   0.00000  Uiso   1.00
C242   C     0.46071   0.63605   0.48430   0.00000  Uiso   1.00
C243   C     0.48753   0.60639   0.41326   0.00000  Uiso   1.00
C244   C     0.40928   0.05571   0.56220   0.00000  Uiso   1.00
C245   C     0.35513   0.99684   0.57934   0.00000  Uiso   1.00
C246   C     0.30766   0.08784   0.57666   0.00000  Uiso   1.00
C247   C     0.26244   0.01192   0.59431   0.00000  Uiso   1.00
C248   C     0.44732   0.05017   0.60098   0.00000  Uiso   1.00
C249   C     0.47737   0.18601   0.61648   0.00000  Uiso   1.00
C250   C     0.50976   0.15501   0.65234   0.00000  Uiso   1.00
C251   C     0.42819   0.91689   0.53102   0.00000  Uiso   1.00
C252   C     0.44218   0.94067   0.48770   0.00000  Uiso   1.00
C253   C     0.45848   0.79745   0.46466   0.00000  Uiso   1.00
H254   H     0.41510   0.63367   0.61357   0.00000  Uiso   1.00
H255   H     0.31393   0.63498   0.63178   0.00000  Uiso   1.00
H256   H     0.48362   0.73314   0.67159   0.00000  Uiso   1.00
H257   H     0.44842   0.48784   0.54283   0.00000  Uiso   1.00
H258   H     0.20078   0.70752   0.64334   0.00000  Uiso   1.00
H259   H     0.55859   0.91448   0.72728   0.00000  Uiso   1.00
H260   H     0.48438   0.39720   0.45575   0.00000  Uiso   1.00
H261   H     0.40755   0.18115   0.54693   0.00000  Uiso   1.00
H262   H     0.30596   0.21251   0.56149   0.00000  Uiso   1.00
H263   H     0.47564   0.31067   0.60130   0.00000  Uiso   1.00
H264   H     0.44045   0.06537   0.47254   0.00000  Uiso   1.00
H265   H     0.19431   0.17627   0.58629   0.00000  Uiso   1.00
H266   H     0.55212   0.38322   0.67022   0.00000  Uiso   1.00
H267   H     0.47791   0.86595   0.39870   0.00000  Uiso   1.00
O268   O     0.13085   0.95267   0.62561   0.00000  Uiso   1.00
O269   O     0.60029   0.22417   0.73572   0.00000  Uiso   1.00
O270   O     0.50293   0.54552   0.37949   0.00000  Uiso   1.00
N271   N     0.21320   0.81352   0.62791   0.00000  Uiso   1.00
N272   N     0.54772   0.00702   0.70639   0.00000  Uiso   1.00
N273   N     0.47836   0.52342   0.45254   0.00000  Uiso   1.00
N274   N     0.20972   0.06575   0.59721   0.00000  Uiso   1.00
N275   N     0.54424   0.25925   0.67569   0.00000  Uiso   1.00
N276   N     0.47488   0.77565   0.42184   0.00000  Uiso   1.00
C277   C     0.35515   0.24205   0.90607   0.00000  Uiso   1.00
C278   C     0.29901   0.16630   0.90540   0.00000  Uiso   1.00
C279   C     0.25404   0.24267   0.88752   0.00000  Uiso   1.00
C280   C     0.20636   0.15262   0.89019   0.00000  Uiso   1.00
C281   C     0.11959   0.05939   0.88610   0.00000  Uiso   1.00
C282   C     0.39120   0.11101   0.88407   0.00000  Uiso   1.00
C283   C     0.42374   0.14091   0.84826   0.00000  Uiso   1.00
C284   C     0.45367   0.00432   0.83298   0.00000  Uiso   1.00
C285   C     0.51005   0.82529   0.79580   0.00000  Uiso   1.00
C286   C     0.37202   0.24618   0.95378   0.00000  Uiso   1.00
C287   C     0.38845   0.38972   0.97660   0.00000  Uiso   1.00
C288   C     0.40226   0.36692   0.02001   0.00000  Uiso   1.00
C289   C     0.42886   0.39776   0.09107   0.00000  Uiso   1.00
C290   C     0.35046   0.94632   0.94260   0.00000  Uiso   1.00
C291   C     0.29647   0.00566   0.92524   0.00000  Uiso   1.00
C292   C     0.24885   0.91548   0.92793   0.00000  Uiso   1.00
C293   C     0.20381   0.99171   0.91006   0.00000  Uiso   1.00
C294   C     0.38865   0.95038   0.90391   0.00000  Uiso   1.00
C295   C     0.41855   0.81372   0.88868   0.00000  Uiso   1.00
C296   C     0.45112   0.84340   0.85286   0.00000  Uiso   1.00
C297   C     0.36948   0.08555   0.97363   0.00000  Uiso   1.00
C298   C     0.38326   0.06252   0.01701   0.00000  Uiso   1.00
C299   C     0.39971   0.20600   0.03988   0.00000  Uiso   1.00
H300   H     0.35713   0.36710   0.89062   0.00000  Uiso   1.00
H301   H     0.25602   0.36697   0.87216   0.00000  Uiso   1.00
H302   H     0.42570   0.26523   0.83292   0.00000  Uiso   1.00
H303   H     0.39042   0.51400   0.96123   0.00000  Uiso   1.00
H304   H     0.14281   0.29597   0.86043   0.00000  Uiso   1.00
H305   H     0.50059   0.08145   0.77769   0.00000  Uiso   1.00
H306   H     0.42620   0.60603   0.04826   0.00000  Uiso   1.00
H307   H     0.34848   0.82126   0.95805   0.00000  Uiso   1.00
H308   H     0.24689   0.79118   0.94329   0.00000  Uiso   1.00
H309   H     0.41657   0.68944   0.90404   0.00000  Uiso   1.00
H310   H     0.38129   0.93820   0.03235   0.00000  Uiso   1.00
H311   H     0.13539   0.82863   0.91816   0.00000  Uiso   1.00
H312   H     0.49318   0.61412   0.83541   0.00000  Uiso   1.00
H313   H     0.41879   0.13869   0.10599   0.00000  Uiso   1.00
O314   O     0.07243   0.05233   0.87836   0.00000  Uiso   1.00
O315   O     0.54184   0.77091   0.76980   0.00000  Uiso   1.00
O316   O     0.44424   0.45915   0.12479   0.00000  Uiso   1.00
N317   N     0.15500   0.19012   0.87605   0.00000  Uiso   1.00
N318   N     0.48950   0.98956   0.79869   0.00000  Uiso   1.00
N319   N     0.41997   0.47999   0.05165   0.00000  Uiso   1.00
N320   N     0.15101   0.93865   0.90711   0.00000  Uiso   1.00
N321   N     0.48552   0.73809   0.82975   0.00000  Uiso   1.00
N322   N     0.41598   0.22852   0.08271   0.00000  Uiso   1.00
C323   C     0.58663   0.24091   0.09830   0.00000  Uiso   1.00
C324   C     0.64265   0.16428   0.09895   0.00000  Uiso   1.00
C325   C     0.68781   0.24034   0.11661   0.00000  Uiso   1.00
C326   C     0.73533   0.14948   0.11396   0.00000  Uiso   1.00
C327   C     0.82197   0.05496   0.11797   0.00000  Uiso   1.00
C328   C     0.55046   0.11094   0.12059   0.00000  Uiso   1.00
C329   C     0.51810   0.14216   0.15643   0.00000  Uiso   1.00
C330   C     0.48801   0.00640   0.17198   0.00000  Uiso   1.00
C331   C     0.43149   0.82911   0.20957   0.00000  Uiso   1.00
C332   C     0.56958   0.24422   0.05063   0.00000  Uiso   1.00
C333   C     0.55329   0.38751   0.02764   0.00000  Uiso   1.00
C334   C     0.53929   0.36395   0.98430   0.00000  Uiso   1.00
C335   C     0.51247   0.39361   0.91326   0.00000  Uiso   1.00
C336   C     0.59072   0.94429   0.06220   0.00000  Uiso   1.00
C337   C     0.64487   0.00316   0.07934   0.00000  Uiso   1.00
C338   C     0.69234   0.91216   0.07666   0.00000  Uiso   1.00
C339   C     0.73756   0.98808   0.09431   0.00000  Uiso   1.00
C340   C     0.55268   0.94983   0.10098   0.00000  Uiso   1.00
C341   C     0.52263   0.81399   0.11648   0.00000  Uiso   1.00
C342   C     0.49024   0.84499   0.15234   0.00000  Uiso   1.00
C343   C     0.57181   0.08311   0.03102   0.00000  Uiso   1.00
C344   C     0.55782   0.05933   0.98770   0.00000  Uiso   1.00
C345   C     0.54152   0.20255   0.96466   0.00000  Uiso   1.00
H346   H     0.58490   0.36633   0.11357   0.00000  Uiso   1.00
H347   H     0.68607   0.36502   0.13178   0.00000  Uiso   1.00
H348   H     0.51638   0.26686   0.17159   0.00000  Uiso   1.00
H349   H     0.55158   0.51216   0.04283   0.00000  Uiso   1.00
H350   H     0.79922   0.29248   0.14334   0.00000  Uiso   1.00
H351   H     0.44141   0.08552   0.22728   0.00000  Uiso   1.00
H352   H     0.51562   0.60280   0.95575   0.00000  Uiso   1.00
H353   H     0.59245   0.81885   0.04693   0.00000  Uiso   1.00
H354   H     0.69404   0.78749   0.06149   0.00000  Uiso   1.00
H355   H     0.52436   0.68933   0.10130   0.00000  Uiso   1.00
H356   H     0.55955   0.93463   0.97254   0.00000  Uiso   1.00
H357   H     0.80569   0.82373   0.08629   0.00000  Uiso   1.00
H358   H     0.44788   0.61678   0.17022   0.00000  Uiso   1.00
H359   H     0.52209   0.13405   0.89870   0.00000  Uiso   1.00
O360   O     0.86915   0.04733   0.12561   0.00000  Uiso   1.00
O361   O     0.39971   0.77583   0.23572   0.00000  Uiso   1.00
O362   O     0.49707   0.45448   0.87949   0.00000  Uiso   1.00
N363   N     0.78680   0.18648   0.12791   0.00000  Uiso   1.00
N364   N     0.45228   0.99298   0.20639   0.00000  Uiso   1.00
N365   N     0.52164   0.47658   0.95254   0.00000  Uiso   1.00
N366   N     0.79028   0.93425   0.09721   0.00000  Uiso   1.00
N367   N     0.45576   0.74075   0.17569   0.00000  Uiso   1.00
N368   N     0.52512   0.22435   0.92184   0.00000  Uiso   1.00
