data_job_05037
_audit_creation_date              2018-12-19
_audit_creation_method            'Materials Studio'
_symmetry_space_group_name_H-M    'P1'
_symmetry_Int_Tables_number       1
_symmetry_cell_setting            triclinic
loop_
_symmetry_equiv_pos_as_xyz
  x,y,z
_cell_length_a                    42.3464
_cell_length_b                    7.9125
_cell_length_c                    17.0278
_cell_angle_alpha                 90.0000
_cell_angle_beta                  112.8010
_cell_angle_gamma                 90.0000
loop_
_atom_site_label
_atom_site_type_symbol
_atom_site_fract_x
_atom_site_fract_y
_atom_site_fract_z
_atom_site_U_iso_or_equiv
_atom_site_adp_type
_atom_site_occupancy
C1     C     0.85454   0.87098   0.58863   0.00000  Uiso   1.00
C2     C     0.85460   0.02315   0.53373   0.00000  Uiso   1.00
C3     C     0.85549   0.01669   0.45317   0.00000  Uiso   1.00
C4     C     0.85539   0.16999   0.41341   0.00000  Uiso   1.00
C5     C     0.85565   0.38282   0.32218   0.00000  Uiso   1.00
C6     C     0.88510   0.89474   0.67277   0.00000  Uiso   1.00
C7     C     0.91163   0.78030   0.70911   0.00000  Uiso   1.00
C8     C     0.93720   0.82550   0.78640   0.00000  Uiso   1.00
C9     C     0.98479   0.83892   0.91105   0.00000  Uiso   1.00
C10    C     0.82272   0.88950   0.60918   0.00000  Uiso   1.00
C11    C     0.79680   0.77064   0.59208   0.00000  Uiso   1.00
C12    C     0.76985   0.81143   0.61584   0.00000  Uiso   1.00
C13    C     0.72059   0.81672   0.64177   0.00000  Uiso   1.00
C14    C     0.85278   0.15472   0.66127   0.00000  Uiso   1.00
C15    C     0.85364   0.17726   0.57319   0.00000  Uiso   1.00
C16    C     0.85354   0.33062   0.53354   0.00000  Uiso   1.00
C17    C     0.85443   0.32438   0.45293   0.00000  Uiso   1.00
C18    C     0.88414   0.04885   0.71222   0.00000  Uiso   1.00
C19    C     0.90967   0.09423   0.78948   0.00000  Uiso   1.00
C20    C     0.93624   0.97989   0.82592   0.00000  Uiso   1.00
C21    C     0.82176   0.04362   0.64863   0.00000  Uiso   1.00
C22    C     0.79485   0.08458   0.67244   0.00000  Uiso   1.00
C23    C     0.76889   0.96582   0.65537   0.00000  Uiso   1.00
H24    H     0.85529   0.75099   0.55792   0.00000  Uiso   1.00
H25    H     0.85624   0.89739   0.42266   0.00000  Uiso   1.00
H26    H     0.91236   0.66103   0.67857   0.00000  Uiso   1.00
H27    H     0.79755   0.65140   0.56155   0.00000  Uiso   1.00
H28    H     0.85688   0.12767   0.29012   0.00000  Uiso   1.00
H29    H     0.97521   0.62927   0.82972   0.00000  Uiso   1.00
H30    H     0.73311   0.60894   0.58296   0.00000  Uiso   1.00
H31    H     0.85203   0.27471   0.69199   0.00000  Uiso   1.00
H32    H     0.85280   0.44986   0.56409   0.00000  Uiso   1.00
H33    H     0.90892   0.21350   0.81999   0.00000  Uiso   1.00
H34    H     0.79412   0.20386   0.70297   0.00000  Uiso   1.00
H35    H     0.85409   0.57608   0.40490   0.00000  Uiso   1.00
H36    H     0.97242   0.07767   0.94451   0.00000  Uiso   1.00
H37    H     0.73033   0.05735   0.69774   0.00000  Uiso   1.00
O38    O     0.85606   0.45764   0.26097   0.00000  Uiso   1.00
O39    O     0.01130   0.80374   0.96890   0.00000  Uiso   1.00
O40    O     0.69368   0.77707   0.64516   0.00000  Uiso   1.00
N41    N     0.85611   0.20917   0.33468   0.00000  Uiso   1.00
N42    N     0.96675   0.74320   0.83917   0.00000  Uiso   1.00
N43    N     0.74041   0.72418   0.60849   0.00000  Uiso   1.00
N44    N     0.85461   0.45045   0.39644   0.00000  Uiso   1.00
N45    N     0.96525   0.98449   0.90093   0.00000  Uiso   1.00
N46    N     0.73891   0.96546   0.67025   0.00000  Uiso   1.00
C47    C     0.35454   0.37098   0.58863   0.00000  Uiso   1.00
C48    C     0.35460   0.52315   0.53373   0.00000  Uiso   1.00
C49    C     0.35549   0.51669   0.45317   0.00000  Uiso   1.00
C50    C     0.35539   0.66999   0.41341   0.00000  Uiso   1.00
C51    C     0.35565   0.88282   0.32218   0.00000  Uiso   1.00
C52    C     0.38510   0.39474   0.67277   0.00000  Uiso   1.00
C53    C     0.41163   0.28030   0.70911   0.00000  Uiso   1.00
C54    C     0.43720   0.32550   0.78640   0.00000  Uiso   1.00
C55    C     0.48479   0.33892   0.91105   0.00000  Uiso   1.00
C56    C     0.32272   0.38950   0.60918   0.00000  Uiso   1.00
C57    C     0.29680   0.27064   0.59208   0.00000  Uiso   1.00
C58    C     0.26985   0.31143   0.61584   0.00000  Uiso   1.00
C59    C     0.22059   0.31672   0.64177   0.00000  Uiso   1.00
C60    C     0.35278   0.65472   0.66127   0.00000  Uiso   1.00
C61    C     0.35364   0.67726   0.57319   0.00000  Uiso   1.00
C62    C     0.35354   0.83062   0.53354   0.00000  Uiso   1.00
C63    C     0.35443   0.82438   0.45293   0.00000  Uiso   1.00
C64    C     0.38414   0.54885   0.71222   0.00000  Uiso   1.00
C65    C     0.40967   0.59423   0.78948   0.00000  Uiso   1.00
C66    C     0.43624   0.47989   0.82592   0.00000  Uiso   1.00
C67    C     0.32176   0.54362   0.64863   0.00000  Uiso   1.00
C68    C     0.29485   0.58458   0.67244   0.00000  Uiso   1.00
C69    C     0.26889   0.46582   0.65537   0.00000  Uiso   1.00
H70    H     0.35529   0.25099   0.55792   0.00000  Uiso   1.00
H71    H     0.35624   0.39739   0.42266   0.00000  Uiso   1.00
H72    H     0.41236   0.16103   0.67857   0.00000  Uiso   1.00
H73    H     0.29755   0.15140   0.56155   0.00000  Uiso   1.00
H74    H     0.35688   0.62767   0.29012   0.00000  Uiso   1.00
H75    H     0.47521   0.12927   0.82972   0.00000  Uiso   1.00
H76    H     0.23311   0.10894   0.58296   0.00000  Uiso   1.00
H77    H     0.35203   0.77471   0.69199   0.00000  Uiso   1.00
H78    H     0.35280   0.94986   0.56409   0.00000  Uiso   1.00
H79    H     0.40892   0.71350   0.81999   0.00000  Uiso   1.00
H80    H     0.29412   0.70386   0.70297   0.00000  Uiso   1.00
H81    H     0.35409   0.07608   0.40490   0.00000  Uiso   1.00
H82    H     0.47242   0.57767   0.94451   0.00000  Uiso   1.00
H83    H     0.23033   0.55735   0.69774   0.00000  Uiso   1.00
O84    O     0.35606   0.95764   0.26097   0.00000  Uiso   1.00
O85    O     0.51130   0.30374   0.96890   0.00000  Uiso   1.00
O86    O     0.19368   0.27707   0.64516   0.00000  Uiso   1.00
N87    N     0.35611   0.70917   0.33468   0.00000  Uiso   1.00
N88    N     0.46675   0.24320   0.83917   0.00000  Uiso   1.00
N89    N     0.24041   0.22418   0.60849   0.00000  Uiso   1.00
N90    N     0.35461   0.95045   0.39644   0.00000  Uiso   1.00
N91    N     0.46525   0.48449   0.90093   0.00000  Uiso   1.00
N92    N     0.23891   0.46546   0.67025   0.00000  Uiso   1.00
C93    C     0.14546   0.87098   0.91137   0.00000  Uiso   1.00
C94    C     0.14540   0.02315   0.96627   0.00000  Uiso   1.00
C95    C     0.14451   0.01669   0.04683   0.00000  Uiso   1.00
C96    C     0.14461   0.16999   0.08659   0.00000  Uiso   1.00
C97    C     0.14435   0.38282   0.17782   0.00000  Uiso   1.00
C98    C     0.11490   0.89474   0.82723   0.00000  Uiso   1.00
C99    C     0.08837   0.78030   0.79089   0.00000  Uiso   1.00
C100   C     0.06280   0.82550   0.71360   0.00000  Uiso   1.00
C101   C     0.01521   0.83892   0.58895   0.00000  Uiso   1.00
C102   C     0.17728   0.88950   0.89082   0.00000  Uiso   1.00
C103   C     0.20320   0.77064   0.90792   0.00000  Uiso   1.00
C104   C     0.23015   0.81143   0.88416   0.00000  Uiso   1.00
C105   C     0.27941   0.81672   0.85823   0.00000  Uiso   1.00
C106   C     0.14722   0.15472   0.83873   0.00000  Uiso   1.00
C107   C     0.14636   0.17726   0.92681   0.00000  Uiso   1.00
C108   C     0.14646   0.33062   0.96646   0.00000  Uiso   1.00
C109   C     0.14557   0.32438   0.04707   0.00000  Uiso   1.00
C110   C     0.11586   0.04885   0.78778   0.00000  Uiso   1.00
C111   C     0.09033   0.09423   0.71052   0.00000  Uiso   1.00
C112   C     0.06376   0.97989   0.67408   0.00000  Uiso   1.00
C113   C     0.17824   0.04362   0.85137   0.00000  Uiso   1.00
C114   C     0.20515   0.08458   0.82756   0.00000  Uiso   1.00
C115   C     0.23111   0.96582   0.84463   0.00000  Uiso   1.00
H116   H     0.14471   0.75099   0.94208   0.00000  Uiso   1.00
H117   H     0.14376   0.89739   0.07734   0.00000  Uiso   1.00
H118   H     0.08764   0.66103   0.82143   0.00000  Uiso   1.00
H119   H     0.20245   0.65140   0.93845   0.00000  Uiso   1.00
H120   H     0.14312   0.12767   0.20988   0.00000  Uiso   1.00
H121   H     0.02479   0.62927   0.67028   0.00000  Uiso   1.00
H122   H     0.26689   0.60894   0.91704   0.00000  Uiso   1.00
H123   H     0.14797   0.27471   0.80801   0.00000  Uiso   1.00
H124   H     0.14720   0.44986   0.93591   0.00000  Uiso   1.00
H125   H     0.09108   0.21350   0.68001   0.00000  Uiso   1.00
H126   H     0.20588   0.20386   0.79703   0.00000  Uiso   1.00
H127   H     0.14591   0.57608   0.09510   0.00000  Uiso   1.00
H128   H     0.02758   0.07767   0.55549   0.00000  Uiso   1.00
H129   H     0.26967   0.05735   0.80226   0.00000  Uiso   1.00
O130   O     0.14394   0.45764   0.23903   0.00000  Uiso   1.00
O131   O     0.98870   0.80374   0.53110   0.00000  Uiso   1.00
O132   O     0.30632   0.77707   0.85484   0.00000  Uiso   1.00
N133   N     0.14389   0.20917   0.16532   0.00000  Uiso   1.00
N134   N     0.03325   0.74320   0.66083   0.00000  Uiso   1.00
N135   N     0.25959   0.72418   0.89151   0.00000  Uiso   1.00
N136   N     0.14539   0.45045   0.10356   0.00000  Uiso   1.00
N137   N     0.03475   0.98449   0.59907   0.00000  Uiso   1.00
N138   N     0.26109   0.96546   0.82975   0.00000  Uiso   1.00
C139   C     0.64546   0.37098   0.91137   0.00000  Uiso   1.00
C140   C     0.64540   0.52315   0.96627   0.00000  Uiso   1.00
C141   C     0.64451   0.51669   0.04683   0.00000  Uiso   1.00
C142   C     0.64461   0.66999   0.08659   0.00000  Uiso   1.00
C143   C     0.64435   0.88282   0.17782   0.00000  Uiso   1.00
C144   C     0.61490   0.39474   0.82723   0.00000  Uiso   1.00
C145   C     0.58837   0.28030   0.79089   0.00000  Uiso   1.00
C146   C     0.56280   0.32550   0.71360   0.00000  Uiso   1.00
C147   C     0.51521   0.33892   0.58895   0.00000  Uiso   1.00
C148   C     0.67728   0.38950   0.89082   0.00000  Uiso   1.00
C149   C     0.70320   0.27064   0.90792   0.00000  Uiso   1.00
C150   C     0.73015   0.31143   0.88416   0.00000  Uiso   1.00
C151   C     0.77941   0.31672   0.85823   0.00000  Uiso   1.00
C152   C     0.64722   0.65472   0.83873   0.00000  Uiso   1.00
C153   C     0.64636   0.67726   0.92681   0.00000  Uiso   1.00
C154   C     0.64646   0.83062   0.96646   0.00000  Uiso   1.00
C155   C     0.64557   0.82438   0.04707   0.00000  Uiso   1.00
C156   C     0.61586   0.54885   0.78778   0.00000  Uiso   1.00
C157   C     0.59033   0.59423   0.71052   0.00000  Uiso   1.00
C158   C     0.56376   0.47989   0.67408   0.00000  Uiso   1.00
C159   C     0.67824   0.54362   0.85137   0.00000  Uiso   1.00
C160   C     0.70515   0.58458   0.82756   0.00000  Uiso   1.00
C161   C     0.73111   0.46582   0.84463   0.00000  Uiso   1.00
H162   H     0.64471   0.25099   0.94208   0.00000  Uiso   1.00
H163   H     0.64376   0.39739   0.07734   0.00000  Uiso   1.00
H164   H     0.58764   0.16103   0.82143   0.00000  Uiso   1.00
H165   H     0.70245   0.15140   0.93845   0.00000  Uiso   1.00
H166   H     0.64312   0.62767   0.20988   0.00000  Uiso   1.00
H167   H     0.52479   0.12927   0.67028   0.00000  Uiso   1.00
H168   H     0.76689   0.10894   0.91704   0.00000  Uiso   1.00
H169   H     0.64797   0.77471   0.80801   0.00000  Uiso   1.00
H170   H     0.64720   0.94986   0.93591   0.00000  Uiso   1.00
H171   H     0.59108   0.71350   0.68001   0.00000  Uiso   1.00
H172   H     0.70588   0.70386   0.79703   0.00000  Uiso   1.00
H173   H     0.64591   0.07608   0.09510   0.00000  Uiso   1.00
H174   H     0.52758   0.57767   0.55549   0.00000  Uiso   1.00
H175   H     0.76967   0.55735   0.80226   0.00000  Uiso   1.00
O176   O     0.64394   0.95764   0.23903   0.00000  Uiso   1.00
O177   O     0.48870   0.30374   0.53110   0.00000  Uiso   1.00
O178   O     0.80632   0.27707   0.85484   0.00000  Uiso   1.00
N179   N     0.64389   0.70917   0.16532   0.00000  Uiso   1.00
N180   N     0.53325   0.24320   0.66083   0.00000  Uiso   1.00
N181   N     0.75959   0.22418   0.89151   0.00000  Uiso   1.00
N182   N     0.64539   0.95045   0.10356   0.00000  Uiso   1.00
N183   N     0.53475   0.48449   0.59907   0.00000  Uiso   1.00
N184   N     0.76109   0.46546   0.82975   0.00000  Uiso   1.00
C185   C     0.14546   0.12902   0.41137   0.00000  Uiso   1.00
C186   C     0.14540   0.97685   0.46627   0.00000  Uiso   1.00
C187   C     0.14451   0.98331   0.54683   0.00000  Uiso   1.00
C188   C     0.14461   0.83001   0.58659   0.00000  Uiso   1.00
C189   C     0.14435   0.61718   0.67782   0.00000  Uiso   1.00
C190   C     0.11490   0.10526   0.32723   0.00000  Uiso   1.00
C191   C     0.08837   0.21970   0.29089   0.00000  Uiso   1.00
C192   C     0.06280   0.17450   0.21360   0.00000  Uiso   1.00
C193   C     0.01521   0.16108   0.08895   0.00000  Uiso   1.00
C194   C     0.17728   0.11050   0.39082   0.00000  Uiso   1.00
C195   C     0.20320   0.22936   0.40792   0.00000  Uiso   1.00
C196   C     0.23015   0.18857   0.38416   0.00000  Uiso   1.00
C197   C     0.27941   0.18328   0.35823   0.00000  Uiso   1.00
C198   C     0.14722   0.84528   0.33873   0.00000  Uiso   1.00
C199   C     0.14636   0.82274   0.42681   0.00000  Uiso   1.00
C200   C     0.14646   0.66938   0.46646   0.00000  Uiso   1.00
C201   C     0.14557   0.67562   0.54707   0.00000  Uiso   1.00
C202   C     0.11586   0.95115   0.28778   0.00000  Uiso   1.00
C203   C     0.09033   0.90577   0.21052   0.00000  Uiso   1.00
C204   C     0.06376   0.02011   0.17408   0.00000  Uiso   1.00
C205   C     0.17824   0.95638   0.35137   0.00000  Uiso   1.00
C206   C     0.20515   0.91542   0.32756   0.00000  Uiso   1.00
C207   C     0.23111   0.03418   0.34463   0.00000  Uiso   1.00
H208   H     0.14471   0.24901   0.44208   0.00000  Uiso   1.00
H209   H     0.14376   0.10261   0.57734   0.00000  Uiso   1.00
H210   H     0.08764   0.33897   0.32143   0.00000  Uiso   1.00
H211   H     0.20245   0.34860   0.43845   0.00000  Uiso   1.00
H212   H     0.14312   0.87233   0.70988   0.00000  Uiso   1.00
H213   H     0.02479   0.37073   0.17028   0.00000  Uiso   1.00
H214   H     0.26689   0.39106   0.41704   0.00000  Uiso   1.00
H215   H     0.14797   0.72529   0.30801   0.00000  Uiso   1.00
H216   H     0.14720   0.55014   0.43591   0.00000  Uiso   1.00
H217   H     0.09108   0.78650   0.18001   0.00000  Uiso   1.00
H218   H     0.20588   0.79614   0.29703   0.00000  Uiso   1.00
H219   H     0.14591   0.42392   0.59510   0.00000  Uiso   1.00
H220   H     0.02758   0.92233   0.05549   0.00000  Uiso   1.00
H221   H     0.26967   0.94265   0.30226   0.00000  Uiso   1.00
O222   O     0.14394   0.54236   0.73903   0.00000  Uiso   1.00
O223   O     0.98870   0.19626   0.03110   0.00000  Uiso   1.00
O224   O     0.30632   0.22293   0.35484   0.00000  Uiso   1.00
N225   N     0.14389   0.79083   0.66532   0.00000  Uiso   1.00
N226   N     0.03325   0.25680   0.16083   0.00000  Uiso   1.00
N227   N     0.25959   0.27582   0.39151   0.00000  Uiso   1.00
N228   N     0.14539   0.54955   0.60356   0.00000  Uiso   1.00
N229   N     0.03475   0.01551   0.09907   0.00000  Uiso   1.00
N230   N     0.26109   0.03454   0.32975   0.00000  Uiso   1.00
C231   C     0.64546   0.62902   0.41137   0.00000  Uiso   1.00
C232   C     0.64540   0.47685   0.46627   0.00000  Uiso   1.00
C233   C     0.64451   0.48331   0.54683   0.00000  Uiso   1.00
C234   C     0.64461   0.33001   0.58659   0.00000  Uiso   1.00
C235   C     0.64435   0.11718   0.67782   0.00000  Uiso   1.00
C236   C     0.61490   0.60526   0.32723   0.00000  Uiso   1.00
C237   C     0.58837   0.71970   0.29089   0.00000  Uiso   1.00
C238   C     0.56280   0.67450   0.21360   0.00000  Uiso   1.00
C239   C     0.51521   0.66108   0.08895   0.00000  Uiso   1.00
C240   C     0.67728   0.61050   0.39082   0.00000  Uiso   1.00
C241   C     0.70320   0.72936   0.40792   0.00000  Uiso   1.00
C242   C     0.73015   0.68857   0.38416   0.00000  Uiso   1.00
C243   C     0.77941   0.68328   0.35823   0.00000  Uiso   1.00
C244   C     0.64722   0.34528   0.33873   0.00000  Uiso   1.00
C245   C     0.64636   0.32274   0.42681   0.00000  Uiso   1.00
C246   C     0.64646   0.16938   0.46646   0.00000  Uiso   1.00
C247   C     0.64557   0.17562   0.54707   0.00000  Uiso   1.00
C248   C     0.61586   0.45115   0.28778   0.00000  Uiso   1.00
C249   C     0.59033   0.40577   0.21052   0.00000  Uiso   1.00
C250   C     0.56376   0.52011   0.17408   0.00000  Uiso   1.00
C251   C     0.67824   0.45638   0.35137   0.00000  Uiso   1.00
C252   C     0.70515   0.41542   0.32756   0.00000  Uiso   1.00
C253   C     0.73111   0.53418   0.34463   0.00000  Uiso   1.00
H254   H     0.64471   0.74901   0.44208   0.00000  Uiso   1.00
H255   H     0.64376   0.60261   0.57734   0.00000  Uiso   1.00
H256   H     0.58764   0.83897   0.32143   0.00000  Uiso   1.00
H257   H     0.70245   0.84860   0.43845   0.00000  Uiso   1.00
H258   H     0.64312   0.37233   0.70988   0.00000  Uiso   1.00
H259   H     0.52479   0.87073   0.17028   0.00000  Uiso   1.00
H260   H     0.76689   0.89106   0.41704   0.00000  Uiso   1.00
H261   H     0.64797   0.22529   0.30801   0.00000  Uiso   1.00
H262   H     0.64720   0.05014   0.43591   0.00000  Uiso   1.00
H263   H     0.59108   0.28650   0.18001   0.00000  Uiso   1.00
H264   H     0.70588   0.29614   0.29703   0.00000  Uiso   1.00
H265   H     0.64591   0.92392   0.59510   0.00000  Uiso   1.00
H266   H     0.52758   0.42233   0.05549   0.00000  Uiso   1.00
H267   H     0.76967   0.44265   0.30226   0.00000  Uiso   1.00
O268   O     0.64394   0.04236   0.73903   0.00000  Uiso   1.00
O269   O     0.48870   0.69626   0.03110   0.00000  Uiso   1.00
O270   O     0.80632   0.72293   0.35484   0.00000  Uiso   1.00
N271   N     0.64389   0.29083   0.66532   0.00000  Uiso   1.00
N272   N     0.53325   0.75680   0.16083   0.00000  Uiso   1.00
N273   N     0.75959   0.77582   0.39151   0.00000  Uiso   1.00
N274   N     0.64539   0.04955   0.60356   0.00000  Uiso   1.00
N275   N     0.53475   0.51551   0.09907   0.00000  Uiso   1.00
N276   N     0.76109   0.53454   0.32975   0.00000  Uiso   1.00
C277   C     0.85454   0.12902   0.08863   0.00000  Uiso   1.00
C278   C     0.85460   0.97685   0.03373   0.00000  Uiso   1.00
C279   C     0.85549   0.98331   0.95317   0.00000  Uiso   1.00
C280   C     0.85539   0.83001   0.91341   0.00000  Uiso   1.00
C281   C     0.85565   0.61718   0.82218   0.00000  Uiso   1.00
C282   C     0.88510   0.10526   0.17277   0.00000  Uiso   1.00
C283   C     0.91163   0.21970   0.20911   0.00000  Uiso   1.00
C284   C     0.93720   0.17450   0.28640   0.00000  Uiso   1.00
C285   C     0.98479   0.16108   0.41105   0.00000  Uiso   1.00
C286   C     0.82272   0.11050   0.10918   0.00000  Uiso   1.00
C287   C     0.79680   0.22936   0.09208   0.00000  Uiso   1.00
C288   C     0.76985   0.18857   0.11584   0.00000  Uiso   1.00
C289   C     0.72059   0.18328   0.14177   0.00000  Uiso   1.00
C290   C     0.85278   0.84528   0.16127   0.00000  Uiso   1.00
C291   C     0.85364   0.82274   0.07319   0.00000  Uiso   1.00
C292   C     0.85354   0.66938   0.03354   0.00000  Uiso   1.00
C293   C     0.85443   0.67562   0.95293   0.00000  Uiso   1.00
C294   C     0.88414   0.95115   0.21222   0.00000  Uiso   1.00
C295   C     0.90967   0.90577   0.28948   0.00000  Uiso   1.00
C296   C     0.93624   0.02011   0.32592   0.00000  Uiso   1.00
C297   C     0.82176   0.95638   0.14863   0.00000  Uiso   1.00
C298   C     0.79485   0.91542   0.17244   0.00000  Uiso   1.00
C299   C     0.76889   0.03418   0.15537   0.00000  Uiso   1.00
H300   H     0.85529   0.24901   0.05792   0.00000  Uiso   1.00
H301   H     0.85624   0.10261   0.92266   0.00000  Uiso   1.00
H302   H     0.91236   0.33897   0.17857   0.00000  Uiso   1.00
H303   H     0.79755   0.34860   0.06155   0.00000  Uiso   1.00
H304   H     0.85688   0.87233   0.79012   0.00000  Uiso   1.00
H305   H     0.97521   0.37073   0.32972   0.00000  Uiso   1.00
H306   H     0.73311   0.39106   0.08296   0.00000  Uiso   1.00
H307   H     0.85203   0.72529   0.19199   0.00000  Uiso   1.00
H308   H     0.85280   0.55014   0.06409   0.00000  Uiso   1.00
H309   H     0.90892   0.78650   0.31999   0.00000  Uiso   1.00
H310   H     0.79412   0.79614   0.20297   0.00000  Uiso   1.00
H311   H     0.85409   0.42392   0.90490   0.00000  Uiso   1.00
H312   H     0.97242   0.92233   0.44451   0.00000  Uiso   1.00
H313   H     0.73033   0.94265   0.19774   0.00000  Uiso   1.00
O314   O     0.85606   0.54236   0.76097   0.00000  Uiso   1.00
O315   O     0.01130   0.19626   0.46890   0.00000  Uiso   1.00
O316   O     0.69368   0.22293   0.14516   0.00000  Uiso   1.00
N317   N     0.85611   0.79083   0.83468   0.00000  Uiso   1.00
N318   N     0.96675   0.25680   0.33917   0.00000  Uiso   1.00
N319   N     0.74041   0.27582   0.10849   0.00000  Uiso   1.00
N320   N     0.85461   0.54955   0.89644   0.00000  Uiso   1.00
N321   N     0.96525   0.01551   0.40093   0.00000  Uiso   1.00
N322   N     0.73891   0.03454   0.17025   0.00000  Uiso   1.00
C323   C     0.35454   0.62902   0.08863   0.00000  Uiso   1.00
C324   C     0.35460   0.47685   0.03373   0.00000  Uiso   1.00
C325   C     0.35549   0.48331   0.95317   0.00000  Uiso   1.00
C326   C     0.35539   0.33001   0.91341   0.00000  Uiso   1.00
C327   C     0.35565   0.11718   0.82218   0.00000  Uiso   1.00
C328   C     0.38510   0.60526   0.17277   0.00000  Uiso   1.00
C329   C     0.41163   0.71970   0.20911   0.00000  Uiso   1.00
C330   C     0.43720   0.67450   0.28640   0.00000  Uiso   1.00
C331   C     0.48479   0.66108   0.41105   0.00000  Uiso   1.00
C332   C     0.32272   0.61050   0.10918   0.00000  Uiso   1.00
C333   C     0.29680   0.72936   0.09208   0.00000  Uiso   1.00
C334   C     0.26985   0.68857   0.11584   0.00000  Uiso   1.00
C335   C     0.22059   0.68328   0.14177   0.00000  Uiso   1.00
C336   C     0.35278   0.34528   0.16127   0.00000  Uiso   1.00
C337   C     0.35364   0.32274   0.07319   0.00000  Uiso   1.00
C338   C     0.35354   0.16938   0.03354   0.00000  Uiso   1.00
C339   C     0.35443   0.17562   0.95293   0.00000  Uiso   1.00
C340   C     0.38414   0.45115   0.21222   0.00000  Uiso   1.00
C341   C     0.40967   0.40577   0.28948   0.00000  Uiso   1.00
C342   C     0.43624   0.52011   0.32592   0.00000  Uiso   1.00
C343   C     0.32176   0.45638   0.14863   0.00000  Uiso   1.00
C344   C     0.29485   0.41542   0.17244   0.00000  Uiso   1.00
C345   C     0.26889   0.53418   0.15537   0.00000  Uiso   1.00
H346   H     0.35529   0.74901   0.05792   0.00000  Uiso   1.00
H347   H     0.35624   0.60261   0.92266   0.00000  Uiso   1.00
H348   H     0.41236   0.83897   0.17857   0.00000  Uiso   1.00
H349   H     0.29755   0.84860   0.06155   0.00000  Uiso   1.00
H350   H     0.35688   0.37233   0.79012   0.00000  Uiso   1.00
H351   H     0.47521   0.87073   0.32972   0.00000  Uiso   1.00
H352   H     0.23311   0.89106   0.08296   0.00000  Uiso   1.00
H353   H     0.35203   0.22529   0.19199   0.00000  Uiso   1.00
H354   H     0.35280   0.05014   0.06409   0.00000  Uiso   1.00
H355   H     0.40892   0.28650   0.31999   0.00000  Uiso   1.00
H356   H     0.29412   0.29614   0.20297   0.00000  Uiso   1.00
H357   H     0.35409   0.92392   0.90490   0.00000  Uiso   1.00
H358   H     0.47242   0.42233   0.44451   0.00000  Uiso   1.00
H359   H     0.23033   0.44265   0.19774   0.00000  Uiso   1.00
O360   O     0.35606   0.04236   0.76097   0.00000  Uiso   1.00
O361   O     0.51130   0.69626   0.46890   0.00000  Uiso   1.00
O362   O     0.19368   0.72293   0.14516   0.00000  Uiso   1.00
N363   N     0.35611   0.29083   0.83468   0.00000  Uiso   1.00
N364   N     0.46675   0.75680   0.33917   0.00000  Uiso   1.00
N365   N     0.24041   0.77582   0.10849   0.00000  Uiso   1.00
N366   N     0.35461   0.04955   0.89644   0.00000  Uiso   1.00
N367   N     0.46525   0.51551   0.40093   0.00000  Uiso   1.00
N368   N     0.23891   0.53454   0.17025   0.00000  Uiso   1.00
