data_job_02000
_audit_creation_date              2018-12-19
_audit_creation_method            'Materials Studio'
_symmetry_space_group_name_H-M    'P1'
_symmetry_Int_Tables_number       1
_symmetry_cell_setting            triclinic
loop_
_symmetry_equiv_pos_as_xyz
  x,y,z
_cell_length_a                    26.3689
_cell_length_b                    7.5964
_cell_length_c                    12.1911
_cell_angle_alpha                 90.0000
_cell_angle_beta                  103.7072
_cell_angle_gamma                 90.0000
loop_
_atom_site_label
_atom_site_type_symbol
_atom_site_fract_x
_atom_site_fract_y
_atom_site_fract_z
_atom_site_U_iso_or_equiv
_atom_site_adp_type
_atom_site_occupancy
C1     C     0.87835   0.29362   0.85034   0.00000  Uiso   1.00
C2     C     0.91344   0.44268   0.82850   0.00000  Uiso   1.00
C3     C     0.96090   0.42258   0.79942   0.00000  Uiso   1.00
C4     C     0.98707   0.57533   0.78306   0.00000  Uiso   1.00
C5     C     0.04469   0.78141   0.74734   0.00000  Uiso   1.00
C6     C     0.87029   0.32476   0.96861   0.00000  Uiso   1.00
C7     C     0.88147   0.20548   0.05732   0.00000  Uiso   1.00
C8     C     0.87131   0.25896   0.15890   0.00000  Uiso   1.00
C9     C     0.86190   0.28191   0.34067   0.00000  Uiso   1.00
C10    C     0.82535   0.32384   0.76947   0.00000  Uiso   1.00
C11    C     0.79874   0.20378   0.69074   0.00000  Uiso   1.00
C12    C     0.75074   0.25648   0.62468   0.00000  Uiso   1.00
C13    C     0.67156   0.27801   0.49724   0.00000  Uiso   1.00
C14    C     0.84043   0.60066   0.87302   0.00000  Uiso   1.00
C15    C     0.89283   0.60945   0.84083   0.00000  Uiso   1.00
C16    C     0.91894   0.76228   0.82451   0.00000  Uiso   1.00
C17    C     0.96643   0.74240   0.79540   0.00000  Uiso   1.00
C18    C     0.84969   0.49152   0.98093   0.00000  Uiso   1.00
C19    C     0.83951   0.54518   0.08241   0.00000  Uiso   1.00
C20    C     0.85067   0.42603   0.17125   0.00000  Uiso   1.00
C21    C     0.80475   0.49061   0.78178   0.00000  Uiso   1.00
C22    C     0.75678   0.54349   0.71583   0.00000  Uiso   1.00
C23    C     0.73010   0.42355   0.63702   0.00000  Uiso   1.00
H24    H     0.89439   0.16378   0.84076   0.00000  Uiso   1.00
H25    H     0.97683   0.29349   0.78990   0.00000  Uiso   1.00
H26    H     0.89741   0.07643   0.04775   0.00000  Uiso   1.00
H27    H     0.81469   0.07474   0.68123   0.00000  Uiso   1.00
H28    H     0.05916   0.51084   0.73899   0.00000  Uiso   1.00
H29    H     0.89167   0.05313   0.28268   0.00000  Uiso   1.00
H30    H     0.71724   0.04956   0.50980   0.00000  Uiso   1.00
H31    H     0.82439   0.73050   0.88262   0.00000  Uiso   1.00
H32    H     0.90299   0.89132   0.83405   0.00000  Uiso   1.00
H33    H     0.82356   0.67425   0.09191   0.00000  Uiso   1.00
H34    H     0.74085   0.67256   0.72539   0.00000  Uiso   1.00
H35    H     0.99922   0.99606   0.77483   0.00000  Uiso   1.00
H36    H     0.83173   0.53834   0.31852   0.00000  Uiso   1.00
H37    H     0.65731   0.53478   0.54564   0.00000  Uiso   1.00
O38    O     0.08217   0.84901   0.72425   0.00000  Uiso   1.00
O39    O     0.86242   0.24850   0.43753   0.00000  Uiso   1.00
O40    O     0.63358   0.24382   0.42353   0.00000  Uiso   1.00
N41    N     0.03426   0.60297   0.75407   0.00000  Uiso   1.00
N42    N     0.87767   0.17505   0.26239   0.00000  Uiso   1.00
N43    N     0.71460   0.17169   0.53983   0.00000  Uiso   1.00
N44    N     0.00201   0.86406   0.77335   0.00000  Uiso   1.00
N45    N     0.84542   0.43614   0.28167   0.00000  Uiso   1.00
N46    N     0.68235   0.43278   0.55912   0.00000  Uiso   1.00
C47    C     0.37835   0.79362   0.85034   0.00000  Uiso   1.00
C48    C     0.41344   0.94268   0.82850   0.00000  Uiso   1.00
C49    C     0.46090   0.92258   0.79942   0.00000  Uiso   1.00
C50    C     0.48707   0.07533   0.78306   0.00000  Uiso   1.00
C51    C     0.54469   0.28141   0.74734   0.00000  Uiso   1.00
C52    C     0.37029   0.82476   0.96861   0.00000  Uiso   1.00
C53    C     0.38147   0.70548   0.05732   0.00000  Uiso   1.00
C54    C     0.37131   0.75896   0.15890   0.00000  Uiso   1.00
C55    C     0.36190   0.78191   0.34067   0.00000  Uiso   1.00
C56    C     0.32535   0.82384   0.76947   0.00000  Uiso   1.00
C57    C     0.29874   0.70378   0.69074   0.00000  Uiso   1.00
C58    C     0.25074   0.75648   0.62468   0.00000  Uiso   1.00
C59    C     0.17156   0.77801   0.49724   0.00000  Uiso   1.00
C60    C     0.34043   0.10066   0.87302   0.00000  Uiso   1.00
C61    C     0.39283   0.10945   0.84083   0.00000  Uiso   1.00
C62    C     0.41894   0.26228   0.82451   0.00000  Uiso   1.00
C63    C     0.46643   0.24240   0.79540   0.00000  Uiso   1.00
C64    C     0.34969   0.99152   0.98093   0.00000  Uiso   1.00
C65    C     0.33951   0.04518   0.08241   0.00000  Uiso   1.00
C66    C     0.35067   0.92603   0.17125   0.00000  Uiso   1.00
C67    C     0.30475   0.99061   0.78178   0.00000  Uiso   1.00
C68    C     0.25678   0.04349   0.71583   0.00000  Uiso   1.00
C69    C     0.23010   0.92355   0.63702   0.00000  Uiso   1.00
H70    H     0.39439   0.66378   0.84076   0.00000  Uiso   1.00
H71    H     0.47683   0.79349   0.78990   0.00000  Uiso   1.00
H72    H     0.39741   0.57643   0.04775   0.00000  Uiso   1.00
H73    H     0.31469   0.57474   0.68123   0.00000  Uiso   1.00
H74    H     0.55916   0.01084   0.73899   0.00000  Uiso   1.00
H75    H     0.39167   0.55313   0.28268   0.00000  Uiso   1.00
H76    H     0.21724   0.54956   0.50980   0.00000  Uiso   1.00
H77    H     0.32439   0.23050   0.88262   0.00000  Uiso   1.00
H78    H     0.40299   0.39132   0.83405   0.00000  Uiso   1.00
H79    H     0.32356   0.17425   0.09191   0.00000  Uiso   1.00
H80    H     0.24085   0.17256   0.72539   0.00000  Uiso   1.00
H81    H     0.49922   0.49606   0.77483   0.00000  Uiso   1.00
H82    H     0.33173   0.03834   0.31852   0.00000  Uiso   1.00
H83    H     0.15731   0.03478   0.54564   0.00000  Uiso   1.00
O84    O     0.58217   0.34901   0.72425   0.00000  Uiso   1.00
O85    O     0.36242   0.74850   0.43753   0.00000  Uiso   1.00
O86    O     0.13358   0.74382   0.42353   0.00000  Uiso   1.00
N87    N     0.53426   0.10297   0.75407   0.00000  Uiso   1.00
N88    N     0.37767   0.67505   0.26239   0.00000  Uiso   1.00
N89    N     0.21460   0.67169   0.53983   0.00000  Uiso   1.00
N90    N     0.50201   0.36406   0.77335   0.00000  Uiso   1.00
N91    N     0.34542   0.93614   0.28167   0.00000  Uiso   1.00
N92    N     0.18235   0.93278   0.55912   0.00000  Uiso   1.00
C93    C     0.12165   0.29362   0.14966   0.00000  Uiso   1.00
C94    C     0.08656   0.44268   0.17150   0.00000  Uiso   1.00
C95    C     0.03910   0.42258   0.20058   0.00000  Uiso   1.00
C96    C     0.01293   0.57533   0.21694   0.00000  Uiso   1.00
C97    C     0.95531   0.78141   0.25266   0.00000  Uiso   1.00
C98    C     0.12971   0.32476   0.03139   0.00000  Uiso   1.00
C99    C     0.11853   0.20548   0.94268   0.00000  Uiso   1.00
C100   C     0.12869   0.25896   0.84110   0.00000  Uiso   1.00
C101   C     0.13810   0.28191   0.65933   0.00000  Uiso   1.00
C102   C     0.17465   0.32384   0.23053   0.00000  Uiso   1.00
C103   C     0.20126   0.20378   0.30926   0.00000  Uiso   1.00
C104   C     0.24926   0.25648   0.37532   0.00000  Uiso   1.00
C105   C     0.32844   0.27801   0.50276   0.00000  Uiso   1.00
C106   C     0.15957   0.60066   0.12698   0.00000  Uiso   1.00
C107   C     0.10717   0.60945   0.15917   0.00000  Uiso   1.00
C108   C     0.08106   0.76228   0.17549   0.00000  Uiso   1.00
C109   C     0.03357   0.74240   0.20460   0.00000  Uiso   1.00
C110   C     0.15031   0.49152   0.01907   0.00000  Uiso   1.00
C111   C     0.16049   0.54518   0.91759   0.00000  Uiso   1.00
C112   C     0.14933   0.42603   0.82875   0.00000  Uiso   1.00
C113   C     0.19525   0.49061   0.21822   0.00000  Uiso   1.00
C114   C     0.24322   0.54349   0.28417   0.00000  Uiso   1.00
C115   C     0.26990   0.42355   0.36298   0.00000  Uiso   1.00
H116   H     0.10561   0.16378   0.15924   0.00000  Uiso   1.00
H117   H     0.02317   0.29349   0.21010   0.00000  Uiso   1.00
H118   H     0.10259   0.07643   0.95225   0.00000  Uiso   1.00
H119   H     0.18531   0.07474   0.31877   0.00000  Uiso   1.00
H120   H     0.94084   0.51084   0.26101   0.00000  Uiso   1.00
H121   H     0.10833   0.05313   0.71732   0.00000  Uiso   1.00
H122   H     0.28276   0.04956   0.49020   0.00000  Uiso   1.00
H123   H     0.17561   0.73050   0.11738   0.00000  Uiso   1.00
H124   H     0.09701   0.89132   0.16595   0.00000  Uiso   1.00
H125   H     0.17644   0.67425   0.90809   0.00000  Uiso   1.00
H126   H     0.25915   0.67256   0.27461   0.00000  Uiso   1.00
H127   H     0.00078   0.99606   0.22517   0.00000  Uiso   1.00
H128   H     0.16827   0.53834   0.68148   0.00000  Uiso   1.00
H129   H     0.34269   0.53478   0.45436   0.00000  Uiso   1.00
O130   O     0.91783   0.84901   0.27575   0.00000  Uiso   1.00
O131   O     0.13758   0.24850   0.56247   0.00000  Uiso   1.00
O132   O     0.36642   0.24382   0.57647   0.00000  Uiso   1.00
N133   N     0.96574   0.60297   0.24593   0.00000  Uiso   1.00
N134   N     0.12233   0.17505   0.73761   0.00000  Uiso   1.00
N135   N     0.28540   0.17169   0.46017   0.00000  Uiso   1.00
N136   N     0.99799   0.86406   0.22665   0.00000  Uiso   1.00
N137   N     0.15458   0.43614   0.71833   0.00000  Uiso   1.00
N138   N     0.31765   0.43278   0.44088   0.00000  Uiso   1.00
C139   C     0.62165   0.79362   0.14966   0.00000  Uiso   1.00
C140   C     0.58656   0.94268   0.17150   0.00000  Uiso   1.00
C141   C     0.53910   0.92258   0.20058   0.00000  Uiso   1.00
C142   C     0.51293   0.07533   0.21694   0.00000  Uiso   1.00
C143   C     0.45531   0.28141   0.25266   0.00000  Uiso   1.00
C144   C     0.62971   0.82476   0.03139   0.00000  Uiso   1.00
C145   C     0.61853   0.70548   0.94268   0.00000  Uiso   1.00
C146   C     0.62869   0.75896   0.84110   0.00000  Uiso   1.00
C147   C     0.63810   0.78191   0.65933   0.00000  Uiso   1.00
C148   C     0.67465   0.82384   0.23053   0.00000  Uiso   1.00
C149   C     0.70126   0.70378   0.30926   0.00000  Uiso   1.00
C150   C     0.74926   0.75648   0.37532   0.00000  Uiso   1.00
C151   C     0.82844   0.77801   0.50276   0.00000  Uiso   1.00
C152   C     0.65957   0.10066   0.12698   0.00000  Uiso   1.00
C153   C     0.60717   0.10945   0.15917   0.00000  Uiso   1.00
C154   C     0.58106   0.26228   0.17549   0.00000  Uiso   1.00
C155   C     0.53357   0.24240   0.20460   0.00000  Uiso   1.00
C156   C     0.65031   0.99152   0.01907   0.00000  Uiso   1.00
C157   C     0.66049   0.04518   0.91759   0.00000  Uiso   1.00
C158   C     0.64933   0.92603   0.82875   0.00000  Uiso   1.00
C159   C     0.69525   0.99061   0.21822   0.00000  Uiso   1.00
C160   C     0.74322   0.04349   0.28417   0.00000  Uiso   1.00
C161   C     0.76990   0.92355   0.36298   0.00000  Uiso   1.00
H162   H     0.60561   0.66378   0.15924   0.00000  Uiso   1.00
H163   H     0.52317   0.79349   0.21010   0.00000  Uiso   1.00
H164   H     0.60259   0.57643   0.95225   0.00000  Uiso   1.00
H165   H     0.68531   0.57474   0.31877   0.00000  Uiso   1.00
H166   H     0.44084   0.01084   0.26101   0.00000  Uiso   1.00
H167   H     0.60833   0.55313   0.71732   0.00000  Uiso   1.00
H168   H     0.78276   0.54956   0.49020   0.00000  Uiso   1.00
H169   H     0.67561   0.23050   0.11738   0.00000  Uiso   1.00
H170   H     0.59701   0.39132   0.16595   0.00000  Uiso   1.00
H171   H     0.67644   0.17425   0.90809   0.00000  Uiso   1.00
H172   H     0.75915   0.17256   0.27461   0.00000  Uiso   1.00
H173   H     0.50078   0.49606   0.22517   0.00000  Uiso   1.00
H174   H     0.66827   0.03834   0.68148   0.00000  Uiso   1.00
H175   H     0.84269   0.03478   0.45436   0.00000  Uiso   1.00
O176   O     0.41783   0.34901   0.27575   0.00000  Uiso   1.00
O177   O     0.63758   0.74850   0.56247   0.00000  Uiso   1.00
O178   O     0.86642   0.74382   0.57647   0.00000  Uiso   1.00
N179   N     0.46574   0.10297   0.24593   0.00000  Uiso   1.00
N180   N     0.62233   0.67505   0.73761   0.00000  Uiso   1.00
N181   N     0.78540   0.67169   0.46017   0.00000  Uiso   1.00
N182   N     0.49799   0.36406   0.22665   0.00000  Uiso   1.00
N183   N     0.65458   0.93614   0.71833   0.00000  Uiso   1.00
N184   N     0.81765   0.93278   0.44088   0.00000  Uiso   1.00
