data_job_04907
_audit_creation_date              2018-12-19
_audit_creation_method            'Materials Studio'
_symmetry_space_group_name_H-M    'P1'
_symmetry_Int_Tables_number       1
_symmetry_cell_setting            triclinic
loop_
_symmetry_equiv_pos_as_xyz
  x,y,z
_cell_length_a                    10.0066
_cell_length_b                    46.9491
_cell_length_c                    7.3297
_cell_angle_alpha                 90.0000
_cell_angle_beta                  111.5920
_cell_angle_gamma                 90.0000
loop_
_atom_site_label
_atom_site_type_symbol
_atom_site_fract_x
_atom_site_fract_y
_atom_site_fract_z
_atom_site_U_iso_or_equiv
_atom_site_adp_type
_atom_site_occupancy
C1     C     0.35277   0.62242   0.85242   0.00000  Uiso   1.00
C2     C     0.50373   0.62214   0.84729   0.00000  Uiso   1.00
C3     C     0.63109   0.62186   0.00980   0.00000  Uiso   1.00
C4     C     0.75810   0.62163   0.97421   0.00000  Uiso   1.00
C5     C     0.99259   0.62119   0.99534   0.00000  Uiso   1.00
C6     C     0.27832   0.64854   0.73517   0.00000  Uiso   1.00
C7     C     0.21613   0.67046   0.80342   0.00000  Uiso   1.00
C8     C     0.15337   0.69245   0.67342   0.00000  Uiso   1.00
C9     C     0.03780   0.73299   0.52045   0.00000  Uiso   1.00
C10    C     0.27564   0.59665   0.73343   0.00000  Uiso   1.00
C11    C     0.21116   0.57495   0.80019   0.00000  Uiso   1.00
C12    C     0.14612   0.55326   0.66871   0.00000  Uiso   1.00
C13    C     0.02639   0.51323   0.51304   0.00000  Uiso   1.00
C14    C     0.35187   0.62249   0.50020   0.00000  Uiso   1.00
C15    C     0.50324   0.62217   0.65597   0.00000  Uiso   1.00
C16    C     0.63009   0.62194   0.62012   0.00000  Uiso   1.00
C17    C     0.75761   0.62167   0.78256   0.00000  Uiso   1.00
C18    C     0.27783   0.64857   0.54386   0.00000  Uiso   1.00
C19    C     0.21513   0.67054   0.41373   0.00000  Uiso   1.00
C20    C     0.15288   0.69249   0.48177   0.00000  Uiso   1.00
C21    C     0.27515   0.59669   0.54212   0.00000  Uiso   1.00
C22    C     0.21018   0.57502   0.41051   0.00000  Uiso   1.00
C23    C     0.14562   0.55329   0.47706   0.00000  Uiso   1.00
H24    H     0.35314   0.62240   0.00135   0.00000  Uiso   1.00
H25    H     0.63142   0.62184   0.15783   0.00000  Uiso   1.00
H26    H     0.21651   0.67043   0.95146   0.00000  Uiso   1.00
H27    H     0.21156   0.57493   0.94824   0.00000  Uiso   1.00
H28    H     0.93973   0.62125   0.24695   0.00000  Uiso   1.00
H29    H     0.06483   0.72369   0.81179   0.00000  Uiso   1.00
H30    H     0.05438   0.52231   0.80500   0.00000  Uiso   1.00
H31    H     0.35148   0.62252   0.35125   0.00000  Uiso   1.00
H32    H     0.62968   0.62197   0.47205   0.00000  Uiso   1.00
H33    H     0.21477   0.67056   0.26569   0.00000  Uiso   1.00
H34    H     0.20982   0.57506   0.26247   0.00000  Uiso   1.00
H35    H     0.93832   0.62135   0.69035   0.00000  Uiso   1.00
H36    H     0.06341   0.72380   0.25519   0.00000  Uiso   1.00
H37    H     0.05297   0.52242   0.24840   0.00000  Uiso   1.00
O38    O     0.12206   0.62094   0.05985   0.00000  Uiso   1.00
O39    O     0.97420   0.75534   0.48894   0.00000  Uiso   1.00
O40    O     0.96050   0.49114   0.48002   0.00000  Uiso   1.00
N41    N     0.90122   0.62134   0.09937   0.00000  Uiso   1.00
N42    N     0.08326   0.71712   0.69254   0.00000  Uiso   1.00
N43    N     0.07346   0.52886   0.68617   0.00000  Uiso   1.00
N44    N     0.90046   0.62140   0.79987   0.00000  Uiso   1.00
N45    N     0.08250   0.71718   0.39304   0.00000  Uiso   1.00
N46    N     0.07270   0.52891   0.38667   0.00000  Uiso   1.00
C47    C     0.61655   0.37733   0.63212   0.00000  Uiso   1.00
C48    C     0.46559   0.37762   0.63728   0.00000  Uiso   1.00
C49    C     0.33822   0.37788   0.47478   0.00000  Uiso   1.00
C50    C     0.21122   0.37811   0.51040   0.00000  Uiso   1.00
C51    C     0.97675   0.37855   0.48931   0.00000  Uiso   1.00
C52    C     0.69103   0.35123   0.74944   0.00000  Uiso   1.00
C53    C     0.75323   0.32930   0.68124   0.00000  Uiso   1.00
C54    C     0.81603   0.30732   0.81129   0.00000  Uiso   1.00
C55    C     0.93165   0.26679   0.96437   0.00000  Uiso   1.00
C56    C     0.69366   0.40311   0.75103   0.00000  Uiso   1.00
C57    C     0.75810   0.42481   0.68418   0.00000  Uiso   1.00
C58    C     0.82313   0.44651   0.81559   0.00000  Uiso   1.00
C59    C     0.94283   0.48655   0.97113   0.00000  Uiso   1.00
C60    C     0.61748   0.37728   0.98436   0.00000  Uiso   1.00
C61    C     0.46610   0.37759   0.82861   0.00000  Uiso   1.00
C62    C     0.33926   0.37783   0.86448   0.00000  Uiso   1.00
C63    C     0.21173   0.37809   0.70206   0.00000  Uiso   1.00
C64    C     0.69154   0.35120   0.94075   0.00000  Uiso   1.00
C65    C     0.75427   0.32925   0.07094   0.00000  Uiso   1.00
C66    C     0.81654   0.30729   0.00296   0.00000  Uiso   1.00
C67    C     0.69417   0.40309   0.94235   0.00000  Uiso   1.00
C68    C     0.75913   0.42476   0.07389   0.00000  Uiso   1.00
C69    C     0.82365   0.44649   0.00726   0.00000  Uiso   1.00
H70    H     0.61616   0.37735   0.48318   0.00000  Uiso   1.00
H71    H     0.33788   0.37790   0.32674   0.00000  Uiso   1.00
H72    H     0.75283   0.32933   0.53318   0.00000  Uiso   1.00
H73    H     0.75769   0.42482   0.53612   0.00000  Uiso   1.00
H74    H     0.02958   0.37848   0.23768   0.00000  Uiso   1.00
H75    H     0.90458   0.27607   0.67299   0.00000  Uiso   1.00
H76    H     0.91482   0.47745   0.67919   0.00000  Uiso   1.00
H77    H     0.61788   0.37726   0.13331   0.00000  Uiso   1.00
H78    H     0.33969   0.37781   0.01255   0.00000  Uiso   1.00
H79    H     0.75465   0.32923   0.21899   0.00000  Uiso   1.00
H80    H     0.75950   0.42473   0.22193   0.00000  Uiso   1.00
H81    H     0.03105   0.37840   0.79431   0.00000  Uiso   1.00
H82    H     0.90606   0.27600   0.22962   0.00000  Uiso   1.00
H83    H     0.91629   0.47737   0.23582   0.00000  Uiso   1.00
O84    O     0.84728   0.37879   0.42482   0.00000  Uiso   1.00
O85    O     0.99527   0.24444   0.99594   0.00000  Uiso   1.00
O86    O     0.00870   0.50864   0.00407   0.00000  Uiso   1.00
N87    N     0.06810   0.37839   0.38525   0.00000  Uiso   1.00
N88    N     0.88616   0.28264   0.79223   0.00000  Uiso   1.00
N89    N     0.89576   0.47091   0.79805   0.00000  Uiso   1.00
N90    N     0.06889   0.37835   0.68477   0.00000  Uiso   1.00
N91    N     0.88695   0.28260   0.09175   0.00000  Uiso   1.00
N92    N     0.89656   0.47087   0.09756   0.00000  Uiso   1.00
C93    C     0.64723   0.12242   0.14758   0.00000  Uiso   1.00
C94    C     0.49627   0.12214   0.15271   0.00000  Uiso   1.00
C95    C     0.36891   0.12186   0.99020   0.00000  Uiso   1.00
C96    C     0.24190   0.12163   0.02579   0.00000  Uiso   1.00
C97    C     0.00741   0.12119   0.00466   0.00000  Uiso   1.00
C98    C     0.72168   0.14854   0.26483   0.00000  Uiso   1.00
C99    C     0.78387   0.17046   0.19658   0.00000  Uiso   1.00
C100   C     0.84663   0.19245   0.32658   0.00000  Uiso   1.00
C101   C     0.96220   0.23299   0.47955   0.00000  Uiso   1.00
C102   C     0.72436   0.09665   0.26657   0.00000  Uiso   1.00
C103   C     0.78884   0.07495   0.19981   0.00000  Uiso   1.00
C104   C     0.85388   0.05326   0.33129   0.00000  Uiso   1.00
C105   C     0.97361   0.01323   0.48696   0.00000  Uiso   1.00
C106   C     0.64813   0.12249   0.49980   0.00000  Uiso   1.00
C107   C     0.49676   0.12217   0.34403   0.00000  Uiso   1.00
C108   C     0.36991   0.12194   0.37988   0.00000  Uiso   1.00
C109   C     0.24239   0.12167   0.21744   0.00000  Uiso   1.00
C110   C     0.72217   0.14857   0.45614   0.00000  Uiso   1.00
C111   C     0.78487   0.17054   0.58627   0.00000  Uiso   1.00
C112   C     0.84712   0.19249   0.51823   0.00000  Uiso   1.00
C113   C     0.72485   0.09669   0.45788   0.00000  Uiso   1.00
C114   C     0.78982   0.07502   0.58949   0.00000  Uiso   1.00
C115   C     0.85438   0.05329   0.52294   0.00000  Uiso   1.00
H116   H     0.64686   0.12240   0.99865   0.00000  Uiso   1.00
H117   H     0.36858   0.12184   0.84217   0.00000  Uiso   1.00
H118   H     0.78349   0.17043   0.04854   0.00000  Uiso   1.00
H119   H     0.78844   0.07493   0.05176   0.00000  Uiso   1.00
H120   H     0.06027   0.12125   0.75305   0.00000  Uiso   1.00
H121   H     0.93517   0.22369   0.18821   0.00000  Uiso   1.00
H122   H     0.94562   0.02231   0.19500   0.00000  Uiso   1.00
H123   H     0.64852   0.12252   0.64875   0.00000  Uiso   1.00
H124   H     0.37032   0.12197   0.52795   0.00000  Uiso   1.00
H125   H     0.78523   0.17056   0.73431   0.00000  Uiso   1.00
H126   H     0.79018   0.07506   0.73753   0.00000  Uiso   1.00
H127   H     0.06168   0.12135   0.30965   0.00000  Uiso   1.00
H128   H     0.93659   0.22380   0.74481   0.00000  Uiso   1.00
H129   H     0.94703   0.02242   0.75160   0.00000  Uiso   1.00
O130   O     0.87794   0.12094   0.94015   0.00000  Uiso   1.00
O131   O     0.02580   0.25534   0.51106   0.00000  Uiso   1.00
O132   O     0.03950   0.99114   0.51998   0.00000  Uiso   1.00
N133   N     0.09878   0.12134   0.90063   0.00000  Uiso   1.00
N134   N     0.91674   0.21712   0.30746   0.00000  Uiso   1.00
N135   N     0.92654   0.02886   0.31383   0.00000  Uiso   1.00
N136   N     0.09954   0.12140   0.20013   0.00000  Uiso   1.00
N137   N     0.91750   0.21718   0.60696   0.00000  Uiso   1.00
N138   N     0.92730   0.02891   0.61333   0.00000  Uiso   1.00
C139   C     0.38345   0.87733   0.36788   0.00000  Uiso   1.00
C140   C     0.53441   0.87762   0.36272   0.00000  Uiso   1.00
C141   C     0.66178   0.87788   0.52522   0.00000  Uiso   1.00
C142   C     0.78878   0.87811   0.48960   0.00000  Uiso   1.00
C143   C     0.02325   0.87855   0.51069   0.00000  Uiso   1.00
C144   C     0.30897   0.85123   0.25056   0.00000  Uiso   1.00
C145   C     0.24677   0.82930   0.31876   0.00000  Uiso   1.00
C146   C     0.18397   0.80732   0.18871   0.00000  Uiso   1.00
C147   C     0.06835   0.76679   0.03563   0.00000  Uiso   1.00
C148   C     0.30634   0.90311   0.24897   0.00000  Uiso   1.00
C149   C     0.24190   0.92481   0.31582   0.00000  Uiso   1.00
C150   C     0.17687   0.94651   0.18441   0.00000  Uiso   1.00
C151   C     0.05717   0.98655   0.02887   0.00000  Uiso   1.00
C152   C     0.38252   0.87728   0.01564   0.00000  Uiso   1.00
C153   C     0.53390   0.87759   0.17139   0.00000  Uiso   1.00
C154   C     0.66074   0.87783   0.13552   0.00000  Uiso   1.00
C155   C     0.78827   0.87809   0.29794   0.00000  Uiso   1.00
C156   C     0.30846   0.85120   0.05925   0.00000  Uiso   1.00
C157   C     0.24573   0.82925   0.92906   0.00000  Uiso   1.00
C158   C     0.18346   0.80729   0.99704   0.00000  Uiso   1.00
C159   C     0.30583   0.90309   0.05765   0.00000  Uiso   1.00
C160   C     0.24087   0.92476   0.92611   0.00000  Uiso   1.00
C161   C     0.17635   0.94649   0.99274   0.00000  Uiso   1.00
H162   H     0.38384   0.87735   0.51682   0.00000  Uiso   1.00
H163   H     0.66212   0.87790   0.67326   0.00000  Uiso   1.00
H164   H     0.24717   0.82933   0.46682   0.00000  Uiso   1.00
H165   H     0.24231   0.92482   0.46388   0.00000  Uiso   1.00
H166   H     0.97042   0.87848   0.76232   0.00000  Uiso   1.00
H167   H     0.09542   0.77607   0.32701   0.00000  Uiso   1.00
H168   H     0.08518   0.97745   0.32081   0.00000  Uiso   1.00
H169   H     0.38212   0.87726   0.86669   0.00000  Uiso   1.00
H170   H     0.66031   0.87781   0.98745   0.00000  Uiso   1.00
H171   H     0.24535   0.82923   0.78101   0.00000  Uiso   1.00
H172   H     0.24050   0.92473   0.77807   0.00000  Uiso   1.00
H173   H     0.96895   0.87840   0.20569   0.00000  Uiso   1.00
H174   H     0.09394   0.77600   0.77038   0.00000  Uiso   1.00
H175   H     0.08371   0.97737   0.76418   0.00000  Uiso   1.00
O176   O     0.15272   0.87879   0.57518   0.00000  Uiso   1.00
O177   O     0.00473   0.74444   0.00406   0.00000  Uiso   1.00
O178   O     0.99130   0.00864   0.99593   0.00000  Uiso   1.00
N179   N     0.93190   0.87839   0.61475   0.00000  Uiso   1.00
N180   N     0.11384   0.78264   0.20777   0.00000  Uiso   1.00
N181   N     0.10424   0.97091   0.20195   0.00000  Uiso   1.00
N182   N     0.93111   0.87835   0.31523   0.00000  Uiso   1.00
N183   N     0.11305   0.78260   0.90825   0.00000  Uiso   1.00
N184   N     0.10344   0.97087   0.90244   0.00000  Uiso   1.00
