data_job_06354
_audit_creation_date              2018-12-19
_audit_creation_method            'Materials Studio'
_symmetry_space_group_name_H-M    'P1'
_symmetry_Int_Tables_number       1
_symmetry_cell_setting            triclinic
loop_
_symmetry_equiv_pos_as_xyz
  x,y,z
_cell_length_a                    16.4960
_cell_length_b                    16.2550
_cell_length_c                    15.1438
_cell_angle_alpha                 89.0514
_cell_angle_beta                  88.8210
_cell_angle_gamma                 86.1655
loop_
_atom_site_label
_atom_site_type_symbol
_atom_site_fract_x
_atom_site_fract_y
_atom_site_fract_z
_atom_site_U_iso_or_equiv
_atom_site_adp_type
_atom_site_occupancy
C1     C     0.70483   0.10590   0.68468   0.00000  Uiso   1.00
C2     C     0.61336   0.11829   0.67175   0.00000  Uiso   1.00
C3     C     0.57022   0.19331   0.65686   0.00000  Uiso   1.00
C4     C     0.48689   0.19163   0.64674   0.00000  Uiso   1.00
C5     C     0.35076   0.22214   0.62600   0.00000  Uiso   1.00
C6     C     0.71580   0.06120   0.77340   0.00000  Uiso   1.00
C7     C     0.75879   0.08823   0.84396   0.00000  Uiso   1.00
C8     C     0.76169   0.03849   0.91940   0.00000  Uiso   1.00
C9     C     0.78464   0.98034   0.05643   0.00000  Uiso   1.00
C10    C     0.73647   0.04474   0.61475   0.00000  Uiso   1.00
C11    C     0.79687   0.05791   0.55194   0.00000  Uiso   1.00
C12    C     0.81719   0.99429   0.49382   0.00000  Uiso   1.00
C13    C     0.87224   0.91058   0.38454   0.00000  Uiso   1.00
C14    C     0.63355   0.96950   0.69320   0.00000  Uiso   1.00
C15    C     0.57465   0.04420   0.67638   0.00000  Uiso   1.00
C16    C     0.49137   0.04240   0.66627   0.00000  Uiso   1.00
C17    C     0.44811   0.11741   0.65137   0.00000  Uiso   1.00
C18    C     0.67708   0.98712   0.77802   0.00000  Uiso   1.00
C19    C     0.67993   0.93732   0.85337   0.00000  Uiso   1.00
C20    C     0.72291   0.96427   0.92403   0.00000  Uiso   1.00
C21    C     0.69776   0.97065   0.61937   0.00000  Uiso   1.00
C22    C     0.71800   0.90700   0.56135   0.00000  Uiso   1.00
C23    C     0.77841   0.92007   0.49846   0.00000  Uiso   1.00
H24    H     0.73497   0.16357   0.68109   0.00000  Uiso   1.00
H25    H     0.60020   0.25063   0.65329   0.00000  Uiso   1.00
H26    H     0.78875   0.14556   0.84035   0.00000  Uiso   1.00
H27    H     0.82681   0.11524   0.54838   0.00000  Uiso   1.00
H28    H     0.43372   0.31448   0.62454   0.00000  Uiso   1.00
H29    H     0.83129   0.09292   0.01896   0.00000  Uiso   1.00
H30    H     0.91156   0.02899   0.40328   0.00000  Uiso   1.00
H31    H     0.60341   0.91182   0.69680   0.00000  Uiso   1.00
H32    H     0.46143   0.98506   0.66986   0.00000  Uiso   1.00
H33    H     0.64997   0.87999   0.85692   0.00000  Uiso   1.00
H34    H     0.68803   0.84968   0.56495   0.00000  Uiso   1.00
H35    H     0.32108   0.09893   0.63799   0.00000  Uiso   1.00
H36    H     0.71866   0.87737   0.03241   0.00000  Uiso   1.00
H37    H     0.79892   0.81344   0.41673   0.00000  Uiso   1.00
O38    O     0.28637   0.25943   0.61329   0.00000  Uiso   1.00
O39    O     0.80798   0.96875   0.13075   0.00000  Uiso   1.00
O40    O     0.91329   0.88488   0.32298   0.00000  Uiso   1.00
N41    N     0.42670   0.25370   0.63139   0.00000  Uiso   1.00
N42    N     0.79839   0.04656   0.00015   0.00000  Uiso   1.00
N43    N     0.87346   0.98678   0.42455   0.00000  Uiso   1.00
N44    N     0.36609   0.13771   0.63862   0.00000  Uiso   1.00
N45    N     0.73778   0.93058   0.00739   0.00000  Uiso   1.00
N46    N     0.81285   0.87080   0.43179   0.00000  Uiso   1.00
C47    C     0.69044   0.70647   0.11218   0.00000  Uiso   1.00
C48    C     0.68172   0.61394   0.12190   0.00000  Uiso   1.00
C49    C     0.66789   0.57165   0.20055   0.00000  Uiso   1.00
C50    C     0.66178   0.48709   0.19552   0.00000  Uiso   1.00
C51    C     0.64715   0.34960   0.22291   0.00000  Uiso   1.00
C52    C     0.77254   0.71594   0.06633   0.00000  Uiso   1.00
C53    C     0.83505   0.75943   0.09826   0.00000  Uiso   1.00
C54    C     0.90538   0.76074   0.04644   0.00000  Uiso   1.00
C55    C     0.03171   0.78165   0.98752   0.00000  Uiso   1.00
C56    C     0.62650   0.73815   0.04635   0.00000  Uiso   1.00
C57    C     0.56624   0.80033   0.06147   0.00000  Uiso   1.00
C58    C     0.51363   0.82036   0.99282   0.00000  Uiso   1.00
C59    C     0.41323   0.87576   0.90289   0.00000  Uiso   1.00
C60    C     0.70420   0.63149   0.96338   0.00000  Uiso   1.00
C61    C     0.68920   0.57322   0.04108   0.00000  Uiso   1.00
C62    C     0.68311   0.48870   0.03592   0.00000  Uiso   1.00
C63    C     0.66926   0.44629   0.11455   0.00000  Uiso   1.00
C64    C     0.78001   0.67522   0.98551   0.00000  Uiso   1.00
C65    C     0.85027   0.67647   0.93363   0.00000  Uiso   1.00
C66    C     0.91287   0.71994   0.96547   0.00000  Uiso   1.00
C67    C     0.63397   0.69743   0.96553   0.00000  Uiso   1.00
C68    C     0.58146   0.71737   0.89684   0.00000  Uiso   1.00
C69    C     0.52112   0.77956   0.91185   0.00000  Uiso   1.00
H70    H     0.68463   0.73818   0.17510   0.00000  Uiso   1.00
H71    H     0.66212   0.60319   0.26309   0.00000  Uiso   1.00
H72    H     0.82925   0.79094   0.16080   0.00000  Uiso   1.00
H73    H     0.56048   0.83183   0.12402   0.00000  Uiso   1.00
H74    H     0.64049   0.43557   0.32499   0.00000  Uiso   1.00
H75    H     0.99287   0.83147   0.10930   0.00000  Uiso   1.00
H76    H     0.42612   0.91770   0.03174   0.00000  Uiso   1.00
H77    H     0.71001   0.59978   0.90046   0.00000  Uiso   1.00
H78    H     0.68889   0.45720   0.97337   0.00000  Uiso   1.00
H79    H     0.85602   0.64495   0.87109   0.00000  Uiso   1.00
H80    H     0.58725   0.68584   0.83431   0.00000  Uiso   1.00
H81    H     0.66222   0.31707   0.08985   0.00000  Uiso   1.00
H82    H     0.01461   0.71298   0.87416   0.00000  Uiso   1.00
H83    H     0.44785   0.79921   0.79660   0.00000  Uiso   1.00
O84    O     0.63703   0.28502   0.26034   0.00000  Uiso   1.00
O85    O     0.09934   0.80444   0.97736   0.00000  Uiso   1.00
O86    O     0.35577   0.91757   0.87561   0.00000  Uiso   1.00
N87    N     0.64848   0.42725   0.25964   0.00000  Uiso   1.00
N88    N     0.97795   0.79738   0.05799   0.00000  Uiso   1.00
N89    N     0.44810   0.87802   0.98547   0.00000  Uiso   1.00
N90    N     0.66018   0.36349   0.13311   0.00000  Uiso   1.00
N91    N     0.98964   0.73362   0.93146   0.00000  Uiso   1.00
N92    N     0.45979   0.81426   0.85895   0.00000  Uiso   1.00
C93    C     0.10479   0.68971   0.71568   0.00000  Uiso   1.00
C94    C     0.11624   0.67905   0.61625   0.00000  Uiso   1.00
C95    C     0.18998   0.66347   0.57189   0.00000  Uiso   1.00
C96    C     0.18761   0.65576   0.48083   0.00000  Uiso   1.00
C97    C     0.21658   0.63810   0.33328   0.00000  Uiso   1.00
C98    C     0.05937   0.77369   0.72794   0.00000  Uiso   1.00
C99    C     0.08528   0.83768   0.77750   0.00000  Uiso   1.00
C100   C     0.03502   0.90963   0.78046   0.00000  Uiso   1.00
C101   C     0.97567   0.03887   0.80637   0.00000  Uiso   1.00
C102   C     0.04600   0.62599   0.74608   0.00000  Uiso   1.00
C103   C     0.06067   0.56579   0.81091   0.00000  Uiso   1.00
C104   C     0.99916   0.51339   0.82916   0.00000  Uiso   1.00
C105   C     0.91906   0.41330   0.88323   0.00000  Uiso   1.00
C106   C     0.96945   0.70372   0.63285   0.00000  Uiso   1.00
C107   C     0.04273   0.68667   0.57126   0.00000  Uiso   1.00
C108   C     0.04024   0.67897   0.48024   0.00000  Uiso   1.00
C109   C     0.11396   0.66338   0.43575   0.00000  Uiso   1.00
C110   C     0.98586   0.78130   0.68295   0.00000  Uiso   1.00
C111   C     0.93554   0.85318   0.68585   0.00000  Uiso   1.00
C112   C     0.96138   0.91725   0.73539   0.00000  Uiso   1.00
C113   C     0.97249   0.63359   0.70109   0.00000  Uiso   1.00
C114   C     0.91094   0.58129   0.71925   0.00000  Uiso   1.00
C115   C     0.92551   0.52102   0.78409   0.00000  Uiso   1.00
H116   H     0.16202   0.68379   0.75071   0.00000  Uiso   1.00
H117   H     0.24686   0.65760   0.60673   0.00000  Uiso   1.00
H118   H     0.14217   0.83177   0.81231   0.00000  Uiso   1.00
H119   H     0.11757   0.55992   0.84571   0.00000  Uiso   1.00
H120   H     0.30850   0.63194   0.42726   0.00000  Uiso   1.00
H121   H     0.08775   0.99918   0.86077   0.00000  Uiso   1.00
H122   H     0.03587   0.42594   0.93119   0.00000  Uiso   1.00
H123   H     0.91221   0.70964   0.59782   0.00000  Uiso   1.00
H124   H     0.98334   0.68486   0.44544   0.00000  Uiso   1.00
H125   H     0.87866   0.85904   0.65103   0.00000  Uiso   1.00
H126   H     0.85406   0.58719   0.68442   0.00000  Uiso   1.00
H127   H     0.09462   0.65408   0.29635   0.00000  Uiso   1.00
H128   H     0.87387   0.02132   0.72986   0.00000  Uiso   1.00
H129   H     0.82200   0.44807   0.80028   0.00000  Uiso   1.00
O130   O     0.25287   0.62627   0.26432   0.00000  Uiso   1.00
O131   O     0.96324   0.10807   0.83308   0.00000  Uiso   1.00
O132   O     0.89519   0.35598   0.92547   0.00000  Uiso   1.00
N133   N     0.24840   0.64054   0.41736   0.00000  Uiso   1.00
N134   N     0.04202   0.98389   0.82266   0.00000  Uiso   1.00
N135   N     0.99351   0.44797   0.88851   0.00000  Uiso   1.00
N136   N     0.13332   0.65245   0.34692   0.00000  Uiso   1.00
N137   N     0.92694   0.99580   0.75222   0.00000  Uiso   1.00
N138   N     0.87843   0.45988   0.81807   0.00000  Uiso   1.00
C139   C     0.29518   0.89410   0.31531   0.00000  Uiso   1.00
C140   C     0.38664   0.88171   0.32825   0.00000  Uiso   1.00
C141   C     0.42978   0.80669   0.34314   0.00000  Uiso   1.00
C142   C     0.51311   0.80837   0.35326   0.00000  Uiso   1.00
C143   C     0.64924   0.77786   0.37400   0.00000  Uiso   1.00
C144   C     0.28420   0.93880   0.22660   0.00000  Uiso   1.00
C145   C     0.24121   0.91177   0.15604   0.00000  Uiso   1.00
C146   C     0.23831   0.96151   0.08060   0.00000  Uiso   1.00
C147   C     0.21536   0.01966   0.94357   0.00000  Uiso   1.00
C148   C     0.26353   0.95526   0.38525   0.00000  Uiso   1.00
C149   C     0.20313   0.94210   0.44806   0.00000  Uiso   1.00
C150   C     0.18281   0.00571   0.50618   0.00000  Uiso   1.00
C151   C     0.12776   0.08942   0.61546   0.00000  Uiso   1.00
C152   C     0.36645   0.03050   0.30680   0.00000  Uiso   1.00
C153   C     0.42535   0.95580   0.32362   0.00000  Uiso   1.00
C154   C     0.50863   0.95760   0.33373   0.00000  Uiso   1.00
C155   C     0.55189   0.88259   0.34863   0.00000  Uiso   1.00
C156   C     0.32292   0.01288   0.22198   0.00000  Uiso   1.00
C157   C     0.32007   0.06268   0.14663   0.00000  Uiso   1.00
C158   C     0.27709   0.03573   0.07597   0.00000  Uiso   1.00
C159   C     0.30224   0.02935   0.38063   0.00000  Uiso   1.00
C160   C     0.28200   0.09300   0.43865   0.00000  Uiso   1.00
C161   C     0.22159   0.07993   0.50154   0.00000  Uiso   1.00
H162   H     0.26503   0.83643   0.31891   0.00000  Uiso   1.00
H163   H     0.39980   0.74937   0.34671   0.00000  Uiso   1.00
H164   H     0.21126   0.85444   0.15965   0.00000  Uiso   1.00
H165   H     0.17319   0.88476   0.45162   0.00000  Uiso   1.00
H166   H     0.56628   0.68552   0.37545   0.00000  Uiso   1.00
H167   H     0.16871   0.90708   0.98104   0.00000  Uiso   1.00
H168   H     0.08844   0.97101   0.59672   0.00000  Uiso   1.00
H169   H     0.39659   0.08818   0.30320   0.00000  Uiso   1.00
H170   H     0.53858   0.01494   0.33014   0.00000  Uiso   1.00
H171   H     0.35003   0.12001   0.14308   0.00000  Uiso   1.00
H172   H     0.31197   0.15032   0.43505   0.00000  Uiso   1.00
H173   H     0.67892   0.90107   0.36201   0.00000  Uiso   1.00
H174   H     0.28134   0.12263   0.96759   0.00000  Uiso   1.00
H175   H     0.20108   0.18656   0.58327   0.00000  Uiso   1.00
O176   O     0.71363   0.74057   0.38671   0.00000  Uiso   1.00
O177   O     0.19202   0.03125   0.86925   0.00000  Uiso   1.00
O178   O     0.08671   0.11512   0.67702   0.00000  Uiso   1.00
N179   N     0.57330   0.74630   0.36861   0.00000  Uiso   1.00
N180   N     0.20161   0.95344   0.99985   0.00000  Uiso   1.00
N181   N     0.12654   0.01322   0.57545   0.00000  Uiso   1.00
N182   N     0.63391   0.86229   0.36138   0.00000  Uiso   1.00
N183   N     0.26222   0.06942   0.99261   0.00000  Uiso   1.00
N184   N     0.18715   0.12920   0.56821   0.00000  Uiso   1.00
C185   C     0.30956   0.29353   0.88782   0.00000  Uiso   1.00
C186   C     0.31828   0.38606   0.87810   0.00000  Uiso   1.00
C187   C     0.33211   0.42835   0.79945   0.00000  Uiso   1.00
C188   C     0.33822   0.51291   0.80448   0.00000  Uiso   1.00
C189   C     0.35285   0.65040   0.77709   0.00000  Uiso   1.00
C190   C     0.22746   0.28406   0.93367   0.00000  Uiso   1.00
C191   C     0.16495   0.24057   0.90174   0.00000  Uiso   1.00
C192   C     0.09462   0.23926   0.95356   0.00000  Uiso   1.00
C193   C     0.96829   0.21835   0.01248   0.00000  Uiso   1.00
C194   C     0.37350   0.26185   0.95365   0.00000  Uiso   1.00
C195   C     0.43376   0.19967   0.93853   0.00000  Uiso   1.00
C196   C     0.48637   0.17964   0.00718   0.00000  Uiso   1.00
C197   C     0.58677   0.12424   0.09711   0.00000  Uiso   1.00
C198   C     0.29580   0.36851   0.03662   0.00000  Uiso   1.00
C199   C     0.31080   0.42678   0.95892   0.00000  Uiso   1.00
C200   C     0.31689   0.51130   0.96408   0.00000  Uiso   1.00
C201   C     0.33074   0.55371   0.88545   0.00000  Uiso   1.00
C202   C     0.21999   0.32478   0.01449   0.00000  Uiso   1.00
C203   C     0.14973   0.32353   0.06637   0.00000  Uiso   1.00
C204   C     0.08713   0.28006   0.03453   0.00000  Uiso   1.00
C205   C     0.36603   0.30257   0.03447   0.00000  Uiso   1.00
C206   C     0.41854   0.28263   0.10316   0.00000  Uiso   1.00
C207   C     0.47888   0.22044   0.08815   0.00000  Uiso   1.00
H208   H     0.31537   0.26182   0.82490   0.00000  Uiso   1.00
H209   H     0.33788   0.39681   0.73691   0.00000  Uiso   1.00
H210   H     0.17075   0.20906   0.83920   0.00000  Uiso   1.00
H211   H     0.43952   0.16817   0.87598   0.00000  Uiso   1.00
H212   H     0.35951   0.56443   0.67501   0.00000  Uiso   1.00
H213   H     0.00713   0.16853   0.89070   0.00000  Uiso   1.00
H214   H     0.57388   0.08230   0.96826   0.00000  Uiso   1.00
H215   H     0.28999   0.40022   0.09954   0.00000  Uiso   1.00
H216   H     0.31111   0.54280   0.02663   0.00000  Uiso   1.00
H217   H     0.14398   0.35505   0.12891   0.00000  Uiso   1.00
H218   H     0.41275   0.31416   0.16569   0.00000  Uiso   1.00
H219   H     0.33778   0.68293   0.91015   0.00000  Uiso   1.00
H220   H     0.98539   0.28702   0.12584   0.00000  Uiso   1.00
H221   H     0.55215   0.20079   0.20340   0.00000  Uiso   1.00
O222   O     0.36297   0.71499   0.73966   0.00000  Uiso   1.00
O223   O     0.90066   0.19556   0.02264   0.00000  Uiso   1.00
O224   O     0.64423   0.08243   0.12439   0.00000  Uiso   1.00
N225   N     0.35152   0.57275   0.74036   0.00000  Uiso   1.00
N226   N     0.02205   0.20262   0.94201   0.00000  Uiso   1.00
N227   N     0.55190   0.12198   0.01453   0.00000  Uiso   1.00
N228   N     0.33982   0.63651   0.86689   0.00000  Uiso   1.00
N229   N     0.01036   0.26638   0.06854   0.00000  Uiso   1.00
N230   N     0.54021   0.18574   0.14105   0.00000  Uiso   1.00
C231   C     0.89521   0.31029   0.28432   0.00000  Uiso   1.00
C232   C     0.88376   0.32095   0.38375   0.00000  Uiso   1.00
C233   C     0.81002   0.33653   0.42811   0.00000  Uiso   1.00
C234   C     0.81239   0.34424   0.51917   0.00000  Uiso   1.00
C235   C     0.78342   0.36190   0.66672   0.00000  Uiso   1.00
C236   C     0.94063   0.22631   0.27206   0.00000  Uiso   1.00
C237   C     0.91472   0.16232   0.22250   0.00000  Uiso   1.00
C238   C     0.96498   0.09037   0.21954   0.00000  Uiso   1.00
C239   C     0.02433   0.96113   0.19363   0.00000  Uiso   1.00
C240   C     0.95400   0.37401   0.25392   0.00000  Uiso   1.00
C241   C     0.93933   0.43421   0.18909   0.00000  Uiso   1.00
C242   C     0.00084   0.48661   0.17084   0.00000  Uiso   1.00
C243   C     0.08094   0.58670   0.11677   0.00000  Uiso   1.00
C244   C     0.03055   0.29628   0.36715   0.00000  Uiso   1.00
C245   C     0.95727   0.31333   0.42874   0.00000  Uiso   1.00
C246   C     0.95976   0.32103   0.51976   0.00000  Uiso   1.00
C247   C     0.88604   0.33662   0.56425   0.00000  Uiso   1.00
C248   C     0.01414   0.21870   0.31705   0.00000  Uiso   1.00
C249   C     0.06446   0.14682   0.31415   0.00000  Uiso   1.00
C250   C     0.03862   0.08275   0.26461   0.00000  Uiso   1.00
C251   C     0.02751   0.36641   0.29891   0.00000  Uiso   1.00
C252   C     0.08906   0.41871   0.28075   0.00000  Uiso   1.00
C253   C     0.07449   0.47898   0.21591   0.00000  Uiso   1.00
H254   H     0.83798   0.31621   0.24929   0.00000  Uiso   1.00
H255   H     0.75314   0.34240   0.39327   0.00000  Uiso   1.00
H256   H     0.85783   0.16823   0.18769   0.00000  Uiso   1.00
H257   H     0.88243   0.44008   0.15429   0.00000  Uiso   1.00
H258   H     0.69150   0.36806   0.57274   0.00000  Uiso   1.00
H259   H     0.91225   0.00082   0.13923   0.00000  Uiso   1.00
H260   H     0.96413   0.57406   0.06881   0.00000  Uiso   1.00
H261   H     0.08779   0.29036   0.40218   0.00000  Uiso   1.00
H262   H     0.01666   0.31514   0.55456   0.00000  Uiso   1.00
H263   H     0.12134   0.14096   0.34897   0.00000  Uiso   1.00
H264   H     0.14594   0.41281   0.31558   0.00000  Uiso   1.00
H265   H     0.90538   0.34592   0.70365   0.00000  Uiso   1.00
H266   H     0.12613   0.97868   0.27014   0.00000  Uiso   1.00
H267   H     0.17800   0.55193   0.19972   0.00000  Uiso   1.00
O268   O     0.74713   0.37373   0.73568   0.00000  Uiso   1.00
O269   O     0.03676   0.89193   0.16692   0.00000  Uiso   1.00
O270   O     0.10481   0.64402   0.07453   0.00000  Uiso   1.00
N271   N     0.75160   0.35946   0.58264   0.00000  Uiso   1.00
N272   N     0.95798   0.01611   0.17734   0.00000  Uiso   1.00
N273   N     0.00649   0.55203   0.11149   0.00000  Uiso   1.00
N274   N     0.86668   0.34755   0.65308   0.00000  Uiso   1.00
N275   N     0.07306   0.00420   0.24778   0.00000  Uiso   1.00
N276   N     0.12157   0.54012   0.18193   0.00000  Uiso   1.00
