data_job_04445
_audit_creation_date              2018-12-19
_audit_creation_method            'Materials Studio'
_symmetry_space_group_name_H-M    'P1'
_symmetry_Int_Tables_number       1
_symmetry_cell_setting            triclinic
loop_
_symmetry_equiv_pos_as_xyz
  x,y,z
_cell_length_a                    33.6087
_cell_length_b                    12.2882
_cell_length_c                    12.4680
_cell_angle_alpha                 90.0000
_cell_angle_beta                  90.0000
_cell_angle_gamma                 90.0000
loop_
_atom_site_label
_atom_site_type_symbol
_atom_site_fract_x
_atom_site_fract_y
_atom_site_fract_z
_atom_site_U_iso_or_equiv
_atom_site_adp_type
_atom_site_occupancy
C1     C     0.35033   0.37398   0.06699   0.00000  Uiso   1.00
C2     C     0.34272   0.46670   0.14566   0.00000  Uiso   1.00
C3     C     0.32012   0.45995   0.23856   0.00000  Uiso   1.00
C4     C     0.31674   0.55389   0.29976   0.00000  Uiso   1.00
C5     C     0.30208   0.68309   0.42655   0.00000  Uiso   1.00
C6     C     0.33630   0.41480   0.95786   0.00000  Uiso   1.00
C7     C     0.30829   0.36440   0.89287   0.00000  Uiso   1.00
C8     C     0.29950   0.41465   0.79598   0.00000  Uiso   1.00
C9     C     0.27489   0.46324   0.63119   0.00000  Uiso   1.00
C10    C     0.39542   0.36300   0.05871   0.00000  Uiso   1.00
C11    C     0.41713   0.26904   0.07848   0.00000  Uiso   1.00
C12    C     0.45813   0.27567   0.06647   0.00000  Uiso   1.00
C13    C     0.52532   0.24384   0.05825   0.00000  Uiso   1.00
C14    C     0.38454   0.55281   0.01046   0.00000  Uiso   1.00
C15    C     0.36131   0.56383   0.11495   0.00000  Uiso   1.00
C16    C     0.35797   0.65781   0.17602   0.00000  Uiso   1.00
C17    C     0.33536   0.65120   0.26901   0.00000  Uiso   1.00
C18    C     0.35487   0.51193   0.92716   0.00000  Uiso   1.00
C19    C     0.34613   0.56226   0.83034   0.00000  Uiso   1.00
C20    C     0.31812   0.51196   0.76522   0.00000  Uiso   1.00
C21    C     0.41401   0.46013   0.02801   0.00000  Uiso   1.00
C22    C     0.45498   0.46691   0.01595   0.00000  Uiso   1.00
C23    C     0.47675   0.37298   0.03571   0.00000  Uiso   1.00
H24    H     0.33587   0.29836   0.09089   0.00000  Uiso   1.00
H25    H     0.30574   0.38476   0.26229   0.00000  Uiso   1.00
H26    H     0.29392   0.28923   0.91665   0.00000  Uiso   1.00
H27    H     0.40274   0.19389   0.10224   0.00000  Uiso   1.00
H28    H     0.28052   0.52341   0.43876   0.00000  Uiso   1.00
H29    H     0.25560   0.32195   0.70995   0.00000  Uiso   1.00
H30    H     0.48508   0.12091   0.10129   0.00000  Uiso   1.00
H31    H     0.39901   0.62844   0.98656   0.00000  Uiso   1.00
H32    H     0.37235   0.73296   0.15224   0.00000  Uiso   1.00
H33    H     0.36052   0.63742   0.80660   0.00000  Uiso   1.00
H34    H     0.46935   0.54209   0.99219   0.00000  Uiso   1.00
H35    H     0.33458   0.80602   0.34944   0.00000  Uiso   1.00
H36    H     0.30966   0.60456   0.62062   0.00000  Uiso   1.00
H37    H     0.53914   0.40352   0.01197   0.00000  Uiso   1.00
O38    O     0.28886   0.72753   0.50495   0.00000  Uiso   1.00
O39    O     0.25617   0.46321   0.54877   0.00000  Uiso   1.00
O40    O     0.55724   0.19945   0.06222   0.00000  Uiso   1.00
N41    N     0.29691   0.57557   0.39501   0.00000  Uiso   1.00
N42    N     0.27360   0.38723   0.71362   0.00000  Uiso   1.00
N43    N     0.48815   0.19926   0.07947   0.00000  Uiso   1.00
N44    N     0.32600   0.72765   0.34695   0.00000  Uiso   1.00
N45    N     0.30269   0.53930   0.66556   0.00000  Uiso   1.00
N46    N     0.51724   0.35133   0.03141   0.00000  Uiso   1.00
C47    C     0.66194   0.68482   0.11156   0.00000  Uiso   1.00
C48    C     0.66004   0.59201   0.03053   0.00000  Uiso   1.00
C49    C     0.68177   0.58537   0.93610   0.00000  Uiso   1.00
C50    C     0.67580   0.49385   0.87282   0.00000  Uiso   1.00
C51    C     0.67693   0.36217   0.74243   0.00000  Uiso   1.00
C52    C     0.67262   0.63267   0.21875   0.00000  Uiso   1.00
C53    C     0.70491   0.66022   0.28258   0.00000  Uiso   1.00
C54    C     0.70953   0.60292   0.37775   0.00000  Uiso   1.00
C55    C     0.73017   0.53442   0.53962   0.00000  Uiso   1.00
C56    C     0.61943   0.72648   0.12347   0.00000  Uiso   1.00
C57    C     0.60701   0.83292   0.10722   0.00000  Uiso   1.00
C58    C     0.56685   0.85462   0.12220   0.00000  Uiso   1.00
C59    C     0.50491   0.93177   0.13614   0.00000  Uiso   1.00
C60    C     0.61271   0.53409   0.16710   0.00000  Uiso   1.00
C61    C     0.63330   0.51014   0.06070   0.00000  Uiso   1.00
C62    C     0.62730   0.41861   0.99754   0.00000  Uiso   1.00
C63    C     0.64901   0.41183   0.90303   0.00000  Uiso   1.00
C64    C     0.64588   0.55080   0.24891   0.00000  Uiso   1.00
C65    C     0.65045   0.49345   0.34402   0.00000  Uiso   1.00
C66    C     0.68274   0.52090   0.40797   0.00000  Uiso   1.00
C67    C     0.59269   0.64461   0.15363   0.00000  Uiso   1.00
C68    C     0.55254   0.66615   0.16865   0.00000  Uiso   1.00
C69    C     0.54006   0.77260   0.15242   0.00000  Uiso   1.00
H70    H     0.68276   0.74856   0.08809   0.00000  Uiso   1.00
H71    H     0.70246   0.64874   0.91279   0.00000  Uiso   1.00
H72    H     0.72560   0.72358   0.25922   0.00000  Uiso   1.00
H73    H     0.62771   0.89625   0.08388   0.00000  Uiso   1.00
H74    H     0.71252   0.50195   0.73176   0.00000  Uiso   1.00
H75    H     0.76130   0.65979   0.46225   0.00000  Uiso   1.00
H76    H     0.55489   0.02390   0.09252   0.00000  Uiso   1.00
H77    H     0.59189   0.47035   0.19058   0.00000  Uiso   1.00
H78    H     0.60660   0.35527   0.02090   0.00000  Uiso   1.00
H79    H     0.62975   0.43011   0.36734   0.00000  Uiso   1.00
H80    H     0.53186   0.60278   0.19200   0.00000  Uiso   1.00
H81    H     0.63472   0.26376   0.81951   0.00000  Uiso   1.00
H82    H     0.68350   0.42159   0.55000   0.00000  Uiso   1.00
H83    H     0.47709   0.78570   0.18027   0.00000  Uiso   1.00
O84    O     0.68494   0.31215   0.66218   0.00000  Uiso   1.00
O85    O     0.74895   0.51924   0.62056   0.00000  Uiso   1.00
O86    O     0.47814   0.99694   0.13548   0.00000  Uiso   1.00
N87    N     0.69218   0.46170   0.77569   0.00000  Uiso   1.00
N88    N     0.73780   0.60925   0.45864   0.00000  Uiso   1.00
N89    N     0.54482   0.94967   0.11300   0.00000  Uiso   1.00
N90    N     0.65032   0.33353   0.82290   0.00000  Uiso   1.00
N91    N     0.69593   0.48108   0.50586   0.00000  Uiso   1.00
N92    N     0.50296   0.82150   0.16022   0.00000  Uiso   1.00
C93    C     0.14967   0.62602   0.56699   0.00000  Uiso   1.00
C94    C     0.15728   0.53330   0.64566   0.00000  Uiso   1.00
C95    C     0.17988   0.54005   0.73856   0.00000  Uiso   1.00
C96    C     0.18326   0.44611   0.79976   0.00000  Uiso   1.00
C97    C     0.19792   0.31691   0.92655   0.00000  Uiso   1.00
C98    C     0.16370   0.58520   0.45786   0.00000  Uiso   1.00
C99    C     0.19171   0.63560   0.39287   0.00000  Uiso   1.00
C100   C     0.20050   0.58535   0.29598   0.00000  Uiso   1.00
C101   C     0.22511   0.53676   0.13119   0.00000  Uiso   1.00
C102   C     0.10458   0.63700   0.55871   0.00000  Uiso   1.00
C103   C     0.08287   0.73096   0.57848   0.00000  Uiso   1.00
C104   C     0.04187   0.72433   0.56647   0.00000  Uiso   1.00
C105   C     0.97468   0.75616   0.55825   0.00000  Uiso   1.00
C106   C     0.11546   0.44719   0.51046   0.00000  Uiso   1.00
C107   C     0.13869   0.43617   0.61495   0.00000  Uiso   1.00
C108   C     0.14203   0.34219   0.67602   0.00000  Uiso   1.00
C109   C     0.16464   0.34880   0.76901   0.00000  Uiso   1.00
C110   C     0.14513   0.48807   0.42716   0.00000  Uiso   1.00
C111   C     0.15387   0.43774   0.33034   0.00000  Uiso   1.00
C112   C     0.18188   0.48804   0.26522   0.00000  Uiso   1.00
C113   C     0.08599   0.53987   0.52801   0.00000  Uiso   1.00
C114   C     0.04502   0.53309   0.51595   0.00000  Uiso   1.00
C115   C     0.02325   0.62702   0.53571   0.00000  Uiso   1.00
H116   H     0.16413   0.70164   0.59089   0.00000  Uiso   1.00
H117   H     0.19426   0.61524   0.76229   0.00000  Uiso   1.00
H118   H     0.20608   0.71077   0.41665   0.00000  Uiso   1.00
H119   H     0.09726   0.80611   0.60224   0.00000  Uiso   1.00
H120   H     0.21948   0.47659   0.93876   0.00000  Uiso   1.00
H121   H     0.24440   0.67805   0.20995   0.00000  Uiso   1.00
H122   H     0.01492   0.87909   0.60129   0.00000  Uiso   1.00
H123   H     0.10099   0.37156   0.48656   0.00000  Uiso   1.00
H124   H     0.12765   0.26704   0.65224   0.00000  Uiso   1.00
H125   H     0.13948   0.36258   0.30660   0.00000  Uiso   1.00
H126   H     0.03065   0.45791   0.49219   0.00000  Uiso   1.00
H127   H     0.16542   0.19398   0.84944   0.00000  Uiso   1.00
H128   H     0.19034   0.39544   0.12062   0.00000  Uiso   1.00
H129   H     0.96086   0.59648   0.51197   0.00000  Uiso   1.00
O130   O     0.21114   0.27247   0.00495   0.00000  Uiso   1.00
O131   O     0.24383   0.53679   0.04877   0.00000  Uiso   1.00
O132   O     0.94276   0.80055   0.56222   0.00000  Uiso   1.00
N133   N     0.20309   0.42443   0.89501   0.00000  Uiso   1.00
N134   N     0.22640   0.61277   0.21362   0.00000  Uiso   1.00
N135   N     0.01185   0.80074   0.57947   0.00000  Uiso   1.00
N136   N     0.17400   0.27235   0.84695   0.00000  Uiso   1.00
N137   N     0.19731   0.46070   0.16556   0.00000  Uiso   1.00
N138   N     0.98276   0.64867   0.53141   0.00000  Uiso   1.00
C139   C     0.83806   0.31518   0.61156   0.00000  Uiso   1.00
C140   C     0.83996   0.40799   0.53053   0.00000  Uiso   1.00
C141   C     0.81823   0.41463   0.43610   0.00000  Uiso   1.00
C142   C     0.82420   0.50615   0.37282   0.00000  Uiso   1.00
C143   C     0.82307   0.63783   0.24243   0.00000  Uiso   1.00
C144   C     0.82738   0.36733   0.71875   0.00000  Uiso   1.00
C145   C     0.79509   0.33978   0.78258   0.00000  Uiso   1.00
C146   C     0.79047   0.39708   0.87775   0.00000  Uiso   1.00
C147   C     0.76983   0.46558   0.03962   0.00000  Uiso   1.00
C148   C     0.88057   0.27352   0.62347   0.00000  Uiso   1.00
C149   C     0.89299   0.16708   0.60722   0.00000  Uiso   1.00
C150   C     0.93315   0.14538   0.62220   0.00000  Uiso   1.00
C151   C     0.99509   0.06823   0.63614   0.00000  Uiso   1.00
C152   C     0.88729   0.46591   0.66710   0.00000  Uiso   1.00
C153   C     0.86670   0.48986   0.56070   0.00000  Uiso   1.00
C154   C     0.87270   0.58139   0.49754   0.00000  Uiso   1.00
C155   C     0.85099   0.58817   0.40303   0.00000  Uiso   1.00
C156   C     0.85412   0.44920   0.74891   0.00000  Uiso   1.00
C157   C     0.84955   0.50655   0.84402   0.00000  Uiso   1.00
C158   C     0.81726   0.47910   0.90797   0.00000  Uiso   1.00
C159   C     0.90731   0.35539   0.65363   0.00000  Uiso   1.00
C160   C     0.94746   0.33385   0.66865   0.00000  Uiso   1.00
C161   C     0.95994   0.22740   0.65242   0.00000  Uiso   1.00
H162   H     0.81724   0.25144   0.58809   0.00000  Uiso   1.00
H163   H     0.79754   0.35126   0.41279   0.00000  Uiso   1.00
H164   H     0.77440   0.27642   0.75922   0.00000  Uiso   1.00
H165   H     0.87229   0.10375   0.58388   0.00000  Uiso   1.00
H166   H     0.78748   0.49805   0.23176   0.00000  Uiso   1.00
H167   H     0.73870   0.34021   0.96225   0.00000  Uiso   1.00
H168   H     0.94511   0.97610   0.59252   0.00000  Uiso   1.00
H169   H     0.90811   0.52965   0.69058   0.00000  Uiso   1.00
H170   H     0.89340   0.64473   0.52090   0.00000  Uiso   1.00
H171   H     0.87025   0.56989   0.86734   0.00000  Uiso   1.00
H172   H     0.96814   0.39722   0.69200   0.00000  Uiso   1.00
H173   H     0.86528   0.73624   0.31951   0.00000  Uiso   1.00
H174   H     0.81650   0.57841   0.05000   0.00000  Uiso   1.00
H175   H     0.02291   0.21430   0.68027   0.00000  Uiso   1.00
O176   O     0.81506   0.68785   0.16218   0.00000  Uiso   1.00
O177   O     0.75105   0.48076   0.12056   0.00000  Uiso   1.00
O178   O     0.02186   0.00306   0.63548   0.00000  Uiso   1.00
N179   N     0.80782   0.53830   0.27569   0.00000  Uiso   1.00
N180   N     0.76220   0.39075   0.95864   0.00000  Uiso   1.00
N181   N     0.95518   0.05033   0.61300   0.00000  Uiso   1.00
N182   N     0.84968   0.66647   0.32290   0.00000  Uiso   1.00
N183   N     0.80407   0.51892   0.00586   0.00000  Uiso   1.00
N184   N     0.99704   0.17850   0.66022   0.00000  Uiso   1.00
C185   C     0.64967   0.87398   0.43301   0.00000  Uiso   1.00
C186   C     0.65728   0.96670   0.35434   0.00000  Uiso   1.00
C187   C     0.67988   0.95995   0.26144   0.00000  Uiso   1.00
C188   C     0.68326   0.05389   0.20024   0.00000  Uiso   1.00
C189   C     0.69792   0.18309   0.07345   0.00000  Uiso   1.00
C190   C     0.66370   0.91480   0.54214   0.00000  Uiso   1.00
C191   C     0.69171   0.86440   0.60713   0.00000  Uiso   1.00
C192   C     0.70050   0.91465   0.70402   0.00000  Uiso   1.00
C193   C     0.72511   0.96324   0.86881   0.00000  Uiso   1.00
C194   C     0.60458   0.86300   0.44129   0.00000  Uiso   1.00
C195   C     0.58287   0.76904   0.42152   0.00000  Uiso   1.00
C196   C     0.54187   0.77567   0.43353   0.00000  Uiso   1.00
C197   C     0.47468   0.74384   0.44175   0.00000  Uiso   1.00
C198   C     0.61546   0.05281   0.48954   0.00000  Uiso   1.00
C199   C     0.63869   0.06383   0.38505   0.00000  Uiso   1.00
C200   C     0.64203   0.15781   0.32398   0.00000  Uiso   1.00
C201   C     0.66464   0.15120   0.23099   0.00000  Uiso   1.00
C202   C     0.64513   0.01193   0.57284   0.00000  Uiso   1.00
C203   C     0.65387   0.06226   0.66966   0.00000  Uiso   1.00
C204   C     0.68188   0.01196   0.73478   0.00000  Uiso   1.00
C205   C     0.58599   0.96013   0.47199   0.00000  Uiso   1.00
C206   C     0.54502   0.96691   0.48405   0.00000  Uiso   1.00
C207   C     0.52325   0.87298   0.46429   0.00000  Uiso   1.00
H208   H     0.66413   0.79836   0.40911   0.00000  Uiso   1.00
H209   H     0.69426   0.88476   0.23771   0.00000  Uiso   1.00
H210   H     0.70608   0.78923   0.58335   0.00000  Uiso   1.00
H211   H     0.59726   0.69389   0.39776   0.00000  Uiso   1.00
H212   H     0.71948   0.02341   0.06124   0.00000  Uiso   1.00
H213   H     0.74440   0.82195   0.79005   0.00000  Uiso   1.00
H214   H     0.51492   0.62091   0.39871   0.00000  Uiso   1.00
H215   H     0.60099   0.12844   0.51344   0.00000  Uiso   1.00
H216   H     0.62765   0.23296   0.34776   0.00000  Uiso   1.00
H217   H     0.63948   0.13742   0.69340   0.00000  Uiso   1.00
H218   H     0.53065   0.04209   0.50781   0.00000  Uiso   1.00
H219   H     0.66542   0.30602   0.15056   0.00000  Uiso   1.00
H220   H     0.69034   0.10456   0.87938   0.00000  Uiso   1.00
H221   H     0.46086   0.90352   0.48803   0.00000  Uiso   1.00
O222   O     0.71114   0.22753   0.99505   0.00000  Uiso   1.00
O223   O     0.74383   0.96321   0.95123   0.00000  Uiso   1.00
O224   O     0.44276   0.69945   0.43778   0.00000  Uiso   1.00
N225   N     0.70309   0.07557   0.10499   0.00000  Uiso   1.00
N226   N     0.72640   0.88723   0.78638   0.00000  Uiso   1.00
N227   N     0.51185   0.69926   0.42053   0.00000  Uiso   1.00
N228   N     0.67400   0.22765   0.15305   0.00000  Uiso   1.00
N229   N     0.69731   0.03930   0.83444   0.00000  Uiso   1.00
N230   N     0.48276   0.85133   0.46859   0.00000  Uiso   1.00
C231   C     0.33806   0.18482   0.38844   0.00000  Uiso   1.00
C232   C     0.33996   0.09201   0.46947   0.00000  Uiso   1.00
C233   C     0.31823   0.08537   0.56390   0.00000  Uiso   1.00
C234   C     0.32420   0.99385   0.62718   0.00000  Uiso   1.00
C235   C     0.32307   0.86217   0.75757   0.00000  Uiso   1.00
C236   C     0.32738   0.13267   0.28125   0.00000  Uiso   1.00
C237   C     0.29509   0.16022   0.21742   0.00000  Uiso   1.00
C238   C     0.29047   0.10292   0.12225   0.00000  Uiso   1.00
C239   C     0.26983   0.03442   0.96038   0.00000  Uiso   1.00
C240   C     0.38057   0.22648   0.37653   0.00000  Uiso   1.00
C241   C     0.39299   0.33292   0.39278   0.00000  Uiso   1.00
C242   C     0.43315   0.35462   0.37780   0.00000  Uiso   1.00
C243   C     0.49509   0.43177   0.36386   0.00000  Uiso   1.00
C244   C     0.38729   0.03409   0.33290   0.00000  Uiso   1.00
C245   C     0.36670   0.01014   0.43930   0.00000  Uiso   1.00
C246   C     0.37270   0.91861   0.50246   0.00000  Uiso   1.00
C247   C     0.35099   0.91183   0.59697   0.00000  Uiso   1.00
C248   C     0.35412   0.05080   0.25109   0.00000  Uiso   1.00
C249   C     0.34955   0.99345   0.15598   0.00000  Uiso   1.00
C250   C     0.31726   0.02090   0.09203   0.00000  Uiso   1.00
C251   C     0.40731   0.14461   0.34637   0.00000  Uiso   1.00
C252   C     0.44746   0.16615   0.33135   0.00000  Uiso   1.00
C253   C     0.45994   0.27260   0.34758   0.00000  Uiso   1.00
H254   H     0.31724   0.24856   0.41191   0.00000  Uiso   1.00
H255   H     0.29754   0.14874   0.58721   0.00000  Uiso   1.00
H256   H     0.27440   0.22358   0.24078   0.00000  Uiso   1.00
H257   H     0.37229   0.39625   0.41612   0.00000  Uiso   1.00
H258   H     0.28748   0.00195   0.76824   0.00000  Uiso   1.00
H259   H     0.23870   0.15979   0.03775   0.00000  Uiso   1.00
H260   H     0.44511   0.52390   0.40748   0.00000  Uiso   1.00
H261   H     0.40811   0.97035   0.30942   0.00000  Uiso   1.00
H262   H     0.39340   0.85527   0.47910   0.00000  Uiso   1.00
H263   H     0.37025   0.93011   0.13266   0.00000  Uiso   1.00
H264   H     0.46814   0.10278   0.30800   0.00000  Uiso   1.00
H265   H     0.36528   0.76376   0.68049   0.00000  Uiso   1.00
H266   H     0.31650   0.92159   0.95000   0.00000  Uiso   1.00
H267   H     0.52291   0.28570   0.31973   0.00000  Uiso   1.00
O268   O     0.31506   0.81215   0.83782   0.00000  Uiso   1.00
O269   O     0.25105   0.01924   0.87944   0.00000  Uiso   1.00
O270   O     0.52186   0.49694   0.36452   0.00000  Uiso   1.00
N271   N     0.30782   0.96170   0.72431   0.00000  Uiso   1.00
N272   N     0.26220   0.10925   0.04136   0.00000  Uiso   1.00
N273   N     0.45518   0.44967   0.38700   0.00000  Uiso   1.00
N274   N     0.34968   0.83353   0.67710   0.00000  Uiso   1.00
N275   N     0.30407   0.98108   0.99414   0.00000  Uiso   1.00
N276   N     0.49704   0.32150   0.33978   0.00000  Uiso   1.00
C277   C     0.85033   0.12602   0.93301   0.00000  Uiso   1.00
C278   C     0.84272   0.03330   0.85434   0.00000  Uiso   1.00
C279   C     0.82012   0.04005   0.76144   0.00000  Uiso   1.00
C280   C     0.81674   0.94611   0.70024   0.00000  Uiso   1.00
C281   C     0.80208   0.81691   0.57345   0.00000  Uiso   1.00
C282   C     0.83630   0.08520   0.04214   0.00000  Uiso   1.00
C283   C     0.80829   0.13560   0.10713   0.00000  Uiso   1.00
C284   C     0.79950   0.08535   0.20402   0.00000  Uiso   1.00
C285   C     0.77489   0.03676   0.36881   0.00000  Uiso   1.00
C286   C     0.89542   0.13700   0.94129   0.00000  Uiso   1.00
C287   C     0.91713   0.23096   0.92152   0.00000  Uiso   1.00
C288   C     0.95813   0.22433   0.93353   0.00000  Uiso   1.00
C289   C     0.02532   0.25616   0.94175   0.00000  Uiso   1.00
C290   C     0.88454   0.94719   0.98954   0.00000  Uiso   1.00
C291   C     0.86131   0.93617   0.88505   0.00000  Uiso   1.00
C292   C     0.85797   0.84219   0.82398   0.00000  Uiso   1.00
C293   C     0.83536   0.84880   0.73099   0.00000  Uiso   1.00
C294   C     0.85487   0.98807   0.07284   0.00000  Uiso   1.00
C295   C     0.84613   0.93774   0.16966   0.00000  Uiso   1.00
C296   C     0.81812   0.98804   0.23478   0.00000  Uiso   1.00
C297   C     0.91401   0.03987   0.97199   0.00000  Uiso   1.00
C298   C     0.95498   0.03309   0.98405   0.00000  Uiso   1.00
C299   C     0.97675   0.12702   0.96429   0.00000  Uiso   1.00
H300   H     0.83587   0.20164   0.90911   0.00000  Uiso   1.00
H301   H     0.80574   0.11524   0.73771   0.00000  Uiso   1.00
H302   H     0.79392   0.21077   0.08335   0.00000  Uiso   1.00
H303   H     0.90274   0.30611   0.89776   0.00000  Uiso   1.00
H304   H     0.78052   0.97659   0.56124   0.00000  Uiso   1.00
H305   H     0.75560   0.17805   0.29005   0.00000  Uiso   1.00
H306   H     0.98508   0.37909   0.89871   0.00000  Uiso   1.00
H307   H     0.89901   0.87156   0.01344   0.00000  Uiso   1.00
H308   H     0.87235   0.76704   0.84776   0.00000  Uiso   1.00
H309   H     0.86052   0.86258   0.19340   0.00000  Uiso   1.00
H310   H     0.96935   0.95791   0.00781   0.00000  Uiso   1.00
H311   H     0.83458   0.69398   0.65056   0.00000  Uiso   1.00
H312   H     0.80966   0.89544   0.37938   0.00000  Uiso   1.00
H313   H     0.03914   0.09648   0.98803   0.00000  Uiso   1.00
O314   O     0.78886   0.77247   0.49505   0.00000  Uiso   1.00
O315   O     0.75617   0.03679   0.45123   0.00000  Uiso   1.00
O316   O     0.05724   0.30055   0.93778   0.00000  Uiso   1.00
N317   N     0.79691   0.92443   0.60499   0.00000  Uiso   1.00
N318   N     0.77360   0.11277   0.28638   0.00000  Uiso   1.00
N319   N     0.98815   0.30074   0.92053   0.00000  Uiso   1.00
N320   N     0.82600   0.77235   0.65305   0.00000  Uiso   1.00
N321   N     0.80269   0.96070   0.33444   0.00000  Uiso   1.00
N322   N     0.01724   0.14867   0.96859   0.00000  Uiso   1.00
C323   C     0.16194   0.81518   0.88844   0.00000  Uiso   1.00
C324   C     0.16004   0.90799   0.96947   0.00000  Uiso   1.00
C325   C     0.18177   0.91463   0.06390   0.00000  Uiso   1.00
C326   C     0.17580   0.00615   0.12718   0.00000  Uiso   1.00
C327   C     0.17693   0.13783   0.25757   0.00000  Uiso   1.00
C328   C     0.17262   0.86733   0.78125   0.00000  Uiso   1.00
C329   C     0.20491   0.83978   0.71742   0.00000  Uiso   1.00
C330   C     0.20953   0.89708   0.62225   0.00000  Uiso   1.00
C331   C     0.23017   0.96558   0.46038   0.00000  Uiso   1.00
C332   C     0.11943   0.77352   0.87653   0.00000  Uiso   1.00
C333   C     0.10701   0.66708   0.89278   0.00000  Uiso   1.00
C334   C     0.06685   0.64538   0.87780   0.00000  Uiso   1.00
C335   C     0.00491   0.56823   0.86386   0.00000  Uiso   1.00
C336   C     0.11271   0.96591   0.83290   0.00000  Uiso   1.00
C337   C     0.13330   0.98986   0.93930   0.00000  Uiso   1.00
C338   C     0.12730   0.08139   0.00246   0.00000  Uiso   1.00
C339   C     0.14901   0.08817   0.09697   0.00000  Uiso   1.00
C340   C     0.14588   0.94920   0.75109   0.00000  Uiso   1.00
C341   C     0.15045   0.00655   0.65598   0.00000  Uiso   1.00
C342   C     0.18274   0.97910   0.59203   0.00000  Uiso   1.00
C343   C     0.09269   0.85539   0.84637   0.00000  Uiso   1.00
C344   C     0.05254   0.83385   0.83135   0.00000  Uiso   1.00
C345   C     0.04006   0.72740   0.84758   0.00000  Uiso   1.00
H346   H     0.18276   0.75144   0.91191   0.00000  Uiso   1.00
H347   H     0.20246   0.85126   0.08721   0.00000  Uiso   1.00
H348   H     0.22560   0.77642   0.74078   0.00000  Uiso   1.00
H349   H     0.12771   0.60375   0.91612   0.00000  Uiso   1.00
H350   H     0.21252   0.99805   0.26824   0.00000  Uiso   1.00
H351   H     0.26130   0.84021   0.53775   0.00000  Uiso   1.00
H352   H     0.05489   0.47610   0.90748   0.00000  Uiso   1.00
H353   H     0.09189   0.02965   0.80942   0.00000  Uiso   1.00
H354   H     0.10660   0.14473   0.97910   0.00000  Uiso   1.00
H355   H     0.12975   0.06989   0.63266   0.00000  Uiso   1.00
H356   H     0.03186   0.89722   0.80800   0.00000  Uiso   1.00
H357   H     0.13472   0.23624   0.18049   0.00000  Uiso   1.00
H358   H     0.18350   0.07841   0.45000   0.00000  Uiso   1.00
H359   H     0.97709   0.71430   0.81973   0.00000  Uiso   1.00
O360   O     0.18494   0.18785   0.33782   0.00000  Uiso   1.00
O361   O     0.24895   0.98076   0.37944   0.00000  Uiso   1.00
O362   O     0.97814   0.50306   0.86452   0.00000  Uiso   1.00
N363   N     0.19218   0.03830   0.22431   0.00000  Uiso   1.00
N364   N     0.23780   0.89075   0.54136   0.00000  Uiso   1.00
N365   N     0.04482   0.55033   0.88700   0.00000  Uiso   1.00
N366   N     0.15032   0.16647   0.17710   0.00000  Uiso   1.00
N367   N     0.19593   0.01892   0.49414   0.00000  Uiso   1.00
N368   N     0.00296   0.67850   0.83978   0.00000  Uiso   1.00
