data_job_02005
_audit_creation_date              2018-12-19
_audit_creation_method            'Materials Studio'
_symmetry_space_group_name_H-M    'P1'
_symmetry_Int_Tables_number       1
_symmetry_cell_setting            triclinic
loop_
_symmetry_equiv_pos_as_xyz
  x,y,z
_cell_length_a                    13.9686
_cell_length_b                    20.0669
_cell_length_c                    24.1173
_cell_angle_alpha                 90.0000
_cell_angle_beta                  90.0000
_cell_angle_gamma                 90.0000
loop_
_atom_site_label
_atom_site_type_symbol
_atom_site_fract_x
_atom_site_fract_y
_atom_site_fract_z
_atom_site_U_iso_or_equiv
_atom_site_adp_type
_atom_site_occupancy
C1     C     0.42237   0.83031   0.46317   0.00000  Uiso   1.00
C2     C     0.35254   0.85362   0.41860   0.00000  Uiso   1.00
C3     C     0.37725   0.87651   0.36623   0.00000  Uiso   1.00
C4     C     0.30283   0.89554   0.33151   0.00000  Uiso   1.00
C5     C     0.20896   0.93235   0.25972   0.00000  Uiso   1.00
C6     C     0.40189   0.87293   0.51415   0.00000  Uiso   1.00
C7     C     0.46810   0.91205   0.54211   0.00000  Uiso   1.00
C8     C     0.43521   0.94732   0.58783   0.00000  Uiso   1.00
C9     C     0.41797   0.01407   0.66441   0.00000  Uiso   1.00
C10    C     0.39199   0.75963   0.47833   0.00000  Uiso   1.00
C11    C     0.44988   0.70348   0.47618   0.00000  Uiso   1.00
C12    C     0.40867   0.64336   0.49175   0.00000  Uiso   1.00
C13    C     0.37606   0.53419   0.51269   0.00000  Uiso   1.00
C14    C     0.24626   0.82338   0.49465   0.00000  Uiso   1.00
C15    C     0.25689   0.84986   0.43571   0.00000  Uiso   1.00
C16    C     0.18241   0.86886   0.40106   0.00000  Uiso   1.00
C17    C     0.20700   0.89177   0.34864   0.00000  Uiso   1.00
C18    C     0.30624   0.86917   0.53125   0.00000  Uiso   1.00
C19    C     0.27325   0.90439   0.57695   0.00000  Uiso   1.00
C20    C     0.33939   0.94355   0.60497   0.00000  Uiso   1.00
C21    C     0.29633   0.75587   0.49543   0.00000  Uiso   1.00
C22    C     0.25503   0.69582   0.51101   0.00000  Uiso   1.00
C23    C     0.31284   0.63959   0.50888   0.00000  Uiso   1.00
H24    H     0.49684   0.83324   0.44986   0.00000  Uiso   1.00
H25    H     0.45129   0.87942   0.35301   0.00000  Uiso   1.00
H26    H     0.54212   0.91494   0.52887   0.00000  Uiso   1.00
H27    H     0.52390   0.70641   0.46294   0.00000  Uiso   1.00
H28    H     0.35860   0.92899   0.25318   0.00000  Uiso   1.00
H29    H     0.55013   0.00387   0.62401   0.00000  Uiso   1.00
H30    H     0.51171   0.56414   0.48499   0.00000  Uiso   1.00
H31    H     0.17179   0.82046   0.50797   0.00000  Uiso   1.00
H32    H     0.10839   0.86594   0.41430   0.00000  Uiso   1.00
H33    H     0.19922   0.90147   0.59017   0.00000  Uiso   1.00
H34    H     0.18100   0.69293   0.52424   0.00000  Uiso   1.00
H35    H     0.08029   0.91806   0.30293   0.00000  Uiso   1.00
H36    H     0.27182   0.99294   0.67376   0.00000  Uiso   1.00
H37    H     0.23340   0.55320   0.53474   0.00000  Uiso   1.00
O38    O     0.18361   0.95370   0.21540   0.00000  Uiso   1.00
O39    O     0.43489   0.05193   0.70192   0.00000  Uiso   1.00
O40    O     0.38449   0.47501   0.51952   0.00000  Uiso   1.00
N41    N     0.30180   0.92017   0.27774   0.00000  Uiso   1.00
N42    N     0.48086   0.99018   0.62444   0.00000  Uiso   1.00
N43    N     0.44496   0.57907   0.49448   0.00000  Uiso   1.00
N44    N     0.15204   0.91428   0.30451   0.00000  Uiso   1.00
N45    N     0.33111   0.98430   0.65121   0.00000  Uiso   1.00
N46    N     0.29520   0.57318   0.52125   0.00000  Uiso   1.00
C47    C     0.07763   0.66969   0.96317   0.00000  Uiso   1.00
C48    C     0.14746   0.64638   0.91860   0.00000  Uiso   1.00
C49    C     0.12275   0.62349   0.86623   0.00000  Uiso   1.00
C50    C     0.19717   0.60446   0.83151   0.00000  Uiso   1.00
C51    C     0.29104   0.56765   0.75972   0.00000  Uiso   1.00
C52    C     0.09811   0.62707   0.01415   0.00000  Uiso   1.00
C53    C     0.03190   0.58795   0.04211   0.00000  Uiso   1.00
C54    C     0.06479   0.55268   0.08783   0.00000  Uiso   1.00
C55    C     0.08203   0.48593   0.16441   0.00000  Uiso   1.00
C56    C     0.10801   0.74037   0.97833   0.00000  Uiso   1.00
C57    C     0.05012   0.79652   0.97618   0.00000  Uiso   1.00
C58    C     0.09133   0.85664   0.99175   0.00000  Uiso   1.00
C59    C     0.12394   0.96581   0.01269   0.00000  Uiso   1.00
C60    C     0.25374   0.67662   0.99465   0.00000  Uiso   1.00
C61    C     0.24311   0.65014   0.93571   0.00000  Uiso   1.00
C62    C     0.31759   0.63114   0.90106   0.00000  Uiso   1.00
C63    C     0.29300   0.60823   0.84864   0.00000  Uiso   1.00
C64    C     0.19376   0.63083   0.03125   0.00000  Uiso   1.00
C65    C     0.22675   0.59561   0.07695   0.00000  Uiso   1.00
C66    C     0.16061   0.55645   0.10497   0.00000  Uiso   1.00
C67    C     0.20367   0.74413   0.99543   0.00000  Uiso   1.00
C68    C     0.24497   0.80418   0.01101   0.00000  Uiso   1.00
C69    C     0.18716   0.86041   0.00888   0.00000  Uiso   1.00
H70    H     0.00316   0.66676   0.94986   0.00000  Uiso   1.00
H71    H     0.04871   0.62058   0.85301   0.00000  Uiso   1.00
H72    H     0.95788   0.58506   0.02887   0.00000  Uiso   1.00
H73    H     0.97610   0.79359   0.96294   0.00000  Uiso   1.00
H74    H     0.14140   0.57101   0.75318   0.00000  Uiso   1.00
H75    H     0.94987   0.49613   0.12401   0.00000  Uiso   1.00
H76    H     0.98829   0.93586   0.98499   0.00000  Uiso   1.00
H77    H     0.32821   0.67954   0.00797   0.00000  Uiso   1.00
H78    H     0.39161   0.63406   0.91430   0.00000  Uiso   1.00
H79    H     0.30078   0.59853   0.09017   0.00000  Uiso   1.00
H80    H     0.31900   0.80707   0.02424   0.00000  Uiso   1.00
H81    H     0.41971   0.58194   0.80293   0.00000  Uiso   1.00
H82    H     0.22818   0.50706   0.17376   0.00000  Uiso   1.00
H83    H     0.26660   0.94680   0.03474   0.00000  Uiso   1.00
O84    O     0.31639   0.54630   0.71540   0.00000  Uiso   1.00
O85    O     0.06511   0.44807   0.20192   0.00000  Uiso   1.00
O86    O     0.11551   0.02499   0.01952   0.00000  Uiso   1.00
N87    N     0.19820   0.57983   0.77774   0.00000  Uiso   1.00
N88    N     0.01914   0.50982   0.12444   0.00000  Uiso   1.00
N89    N     0.05504   0.92093   0.99448   0.00000  Uiso   1.00
N90    N     0.34796   0.58572   0.80451   0.00000  Uiso   1.00
N91    N     0.16889   0.51570   0.15121   0.00000  Uiso   1.00
N92    N     0.20480   0.92682   0.02125   0.00000  Uiso   1.00
C93    C     0.57763   0.83031   0.03683   0.00000  Uiso   1.00
C94    C     0.64746   0.85362   0.08140   0.00000  Uiso   1.00
C95    C     0.62275   0.87651   0.13377   0.00000  Uiso   1.00
C96    C     0.69717   0.89554   0.16849   0.00000  Uiso   1.00
C97    C     0.79104   0.93235   0.24028   0.00000  Uiso   1.00
C98    C     0.59811   0.87293   0.98585   0.00000  Uiso   1.00
C99    C     0.53190   0.91205   0.95789   0.00000  Uiso   1.00
C100   C     0.56479   0.94732   0.91217   0.00000  Uiso   1.00
C101   C     0.58203   0.01407   0.83559   0.00000  Uiso   1.00
C102   C     0.60801   0.75963   0.02167   0.00000  Uiso   1.00
C103   C     0.55012   0.70348   0.02382   0.00000  Uiso   1.00
C104   C     0.59133   0.64336   0.00825   0.00000  Uiso   1.00
C105   C     0.62394   0.53419   0.98731   0.00000  Uiso   1.00
C106   C     0.75374   0.82338   0.00535   0.00000  Uiso   1.00
C107   C     0.74311   0.84986   0.06429   0.00000  Uiso   1.00
C108   C     0.81759   0.86886   0.09894   0.00000  Uiso   1.00
C109   C     0.79300   0.89177   0.15136   0.00000  Uiso   1.00
C110   C     0.69376   0.86917   0.96875   0.00000  Uiso   1.00
C111   C     0.72675   0.90439   0.92305   0.00000  Uiso   1.00
C112   C     0.66061   0.94355   0.89503   0.00000  Uiso   1.00
C113   C     0.70367   0.75587   0.00457   0.00000  Uiso   1.00
C114   C     0.74497   0.69582   0.98899   0.00000  Uiso   1.00
C115   C     0.68716   0.63959   0.99112   0.00000  Uiso   1.00
H116   H     0.50316   0.83324   0.05014   0.00000  Uiso   1.00
H117   H     0.54871   0.87942   0.14699   0.00000  Uiso   1.00
H118   H     0.45788   0.91494   0.97113   0.00000  Uiso   1.00
H119   H     0.47610   0.70641   0.03706   0.00000  Uiso   1.00
H120   H     0.64140   0.92899   0.24682   0.00000  Uiso   1.00
H121   H     0.44987   0.00387   0.87599   0.00000  Uiso   1.00
H122   H     0.48829   0.56414   0.01501   0.00000  Uiso   1.00
H123   H     0.82821   0.82046   0.99203   0.00000  Uiso   1.00
H124   H     0.89161   0.86594   0.08570   0.00000  Uiso   1.00
H125   H     0.80078   0.90147   0.90983   0.00000  Uiso   1.00
H126   H     0.81900   0.69293   0.97576   0.00000  Uiso   1.00
H127   H     0.91971   0.91806   0.19707   0.00000  Uiso   1.00
H128   H     0.72818   0.99294   0.82624   0.00000  Uiso   1.00
H129   H     0.76660   0.55320   0.96526   0.00000  Uiso   1.00
O130   O     0.81639   0.95370   0.28460   0.00000  Uiso   1.00
O131   O     0.56511   0.05193   0.79808   0.00000  Uiso   1.00
O132   O     0.61551   0.47501   0.98048   0.00000  Uiso   1.00
N133   N     0.69820   0.92017   0.22226   0.00000  Uiso   1.00
N134   N     0.51914   0.99018   0.87556   0.00000  Uiso   1.00
N135   N     0.55504   0.57907   0.00552   0.00000  Uiso   1.00
N136   N     0.84796   0.91428   0.19549   0.00000  Uiso   1.00
N137   N     0.66889   0.98430   0.84879   0.00000  Uiso   1.00
N138   N     0.70480   0.57318   0.97875   0.00000  Uiso   1.00
C139   C     0.92237   0.66969   0.53683   0.00000  Uiso   1.00
C140   C     0.85254   0.64638   0.58140   0.00000  Uiso   1.00
C141   C     0.87725   0.62349   0.63377   0.00000  Uiso   1.00
C142   C     0.80283   0.60446   0.66849   0.00000  Uiso   1.00
C143   C     0.70896   0.56765   0.74028   0.00000  Uiso   1.00
C144   C     0.90189   0.62707   0.48585   0.00000  Uiso   1.00
C145   C     0.96810   0.58795   0.45789   0.00000  Uiso   1.00
C146   C     0.93521   0.55268   0.41217   0.00000  Uiso   1.00
C147   C     0.91797   0.48593   0.33559   0.00000  Uiso   1.00
C148   C     0.89199   0.74037   0.52167   0.00000  Uiso   1.00
C149   C     0.94988   0.79652   0.52382   0.00000  Uiso   1.00
C150   C     0.90867   0.85664   0.50825   0.00000  Uiso   1.00
C151   C     0.87606   0.96581   0.48731   0.00000  Uiso   1.00
C152   C     0.74626   0.67662   0.50535   0.00000  Uiso   1.00
C153   C     0.75689   0.65014   0.56429   0.00000  Uiso   1.00
C154   C     0.68241   0.63114   0.59894   0.00000  Uiso   1.00
C155   C     0.70700   0.60823   0.65136   0.00000  Uiso   1.00
C156   C     0.80624   0.63083   0.46875   0.00000  Uiso   1.00
C157   C     0.77325   0.59561   0.42305   0.00000  Uiso   1.00
C158   C     0.83939   0.55645   0.39503   0.00000  Uiso   1.00
C159   C     0.79633   0.74413   0.50457   0.00000  Uiso   1.00
C160   C     0.75503   0.80418   0.48899   0.00000  Uiso   1.00
C161   C     0.81284   0.86041   0.49112   0.00000  Uiso   1.00
H162   H     0.99684   0.66676   0.55014   0.00000  Uiso   1.00
H163   H     0.95129   0.62058   0.64699   0.00000  Uiso   1.00
H164   H     0.04212   0.58506   0.47113   0.00000  Uiso   1.00
H165   H     0.02390   0.79359   0.53706   0.00000  Uiso   1.00
H166   H     0.85860   0.57101   0.74682   0.00000  Uiso   1.00
H167   H     0.05013   0.49613   0.37599   0.00000  Uiso   1.00
H168   H     0.01171   0.93586   0.51501   0.00000  Uiso   1.00
H169   H     0.67179   0.67954   0.49203   0.00000  Uiso   1.00
H170   H     0.60839   0.63406   0.58570   0.00000  Uiso   1.00
H171   H     0.69922   0.59853   0.40983   0.00000  Uiso   1.00
H172   H     0.68100   0.80707   0.47576   0.00000  Uiso   1.00
H173   H     0.58029   0.58194   0.69707   0.00000  Uiso   1.00
H174   H     0.77182   0.50706   0.32624   0.00000  Uiso   1.00
H175   H     0.73340   0.94680   0.46526   0.00000  Uiso   1.00
O176   O     0.68361   0.54630   0.78460   0.00000  Uiso   1.00
O177   O     0.93489   0.44807   0.29808   0.00000  Uiso   1.00
O178   O     0.88449   0.02499   0.48048   0.00000  Uiso   1.00
N179   N     0.80180   0.57983   0.72226   0.00000  Uiso   1.00
N180   N     0.98086   0.50982   0.37556   0.00000  Uiso   1.00
N181   N     0.94496   0.92093   0.50552   0.00000  Uiso   1.00
N182   N     0.65204   0.58572   0.69549   0.00000  Uiso   1.00
N183   N     0.83111   0.51570   0.34879   0.00000  Uiso   1.00
N184   N     0.79520   0.92682   0.47875   0.00000  Uiso   1.00
C185   C     0.57763   0.16969   0.53683   0.00000  Uiso   1.00
C186   C     0.64746   0.14638   0.58140   0.00000  Uiso   1.00
C187   C     0.62275   0.12349   0.63377   0.00000  Uiso   1.00
C188   C     0.69717   0.10446   0.66849   0.00000  Uiso   1.00
C189   C     0.79104   0.06765   0.74028   0.00000  Uiso   1.00
C190   C     0.59811   0.12707   0.48585   0.00000  Uiso   1.00
C191   C     0.53190   0.08795   0.45789   0.00000  Uiso   1.00
C192   C     0.56479   0.05268   0.41217   0.00000  Uiso   1.00
C193   C     0.58203   0.98593   0.33559   0.00000  Uiso   1.00
C194   C     0.60801   0.24037   0.52167   0.00000  Uiso   1.00
C195   C     0.55012   0.29652   0.52382   0.00000  Uiso   1.00
C196   C     0.59133   0.35664   0.50825   0.00000  Uiso   1.00
C197   C     0.62394   0.46581   0.48731   0.00000  Uiso   1.00
C198   C     0.75374   0.17662   0.50535   0.00000  Uiso   1.00
C199   C     0.74311   0.15014   0.56429   0.00000  Uiso   1.00
C200   C     0.81759   0.13114   0.59894   0.00000  Uiso   1.00
C201   C     0.79300   0.10823   0.65136   0.00000  Uiso   1.00
C202   C     0.69376   0.13083   0.46875   0.00000  Uiso   1.00
C203   C     0.72675   0.09561   0.42305   0.00000  Uiso   1.00
C204   C     0.66061   0.05645   0.39503   0.00000  Uiso   1.00
C205   C     0.70367   0.24413   0.50457   0.00000  Uiso   1.00
C206   C     0.74497   0.30418   0.48899   0.00000  Uiso   1.00
C207   C     0.68716   0.36041   0.49112   0.00000  Uiso   1.00
H208   H     0.50316   0.16676   0.55014   0.00000  Uiso   1.00
H209   H     0.54871   0.12058   0.64699   0.00000  Uiso   1.00
H210   H     0.45788   0.08506   0.47113   0.00000  Uiso   1.00
H211   H     0.47610   0.29359   0.53706   0.00000  Uiso   1.00
H212   H     0.64140   0.07101   0.74682   0.00000  Uiso   1.00
H213   H     0.44987   0.99613   0.37599   0.00000  Uiso   1.00
H214   H     0.48829   0.43586   0.51501   0.00000  Uiso   1.00
H215   H     0.82821   0.17954   0.49203   0.00000  Uiso   1.00
H216   H     0.89161   0.13406   0.58570   0.00000  Uiso   1.00
H217   H     0.80078   0.09853   0.40983   0.00000  Uiso   1.00
H218   H     0.81900   0.30707   0.47576   0.00000  Uiso   1.00
H219   H     0.91971   0.08194   0.69707   0.00000  Uiso   1.00
H220   H     0.72818   0.00706   0.32624   0.00000  Uiso   1.00
H221   H     0.76660   0.44680   0.46526   0.00000  Uiso   1.00
O222   O     0.81639   0.04630   0.78460   0.00000  Uiso   1.00
O223   O     0.56511   0.94807   0.29808   0.00000  Uiso   1.00
O224   O     0.61551   0.52499   0.48048   0.00000  Uiso   1.00
N225   N     0.69820   0.07983   0.72226   0.00000  Uiso   1.00
N226   N     0.51914   0.00982   0.37556   0.00000  Uiso   1.00
N227   N     0.55504   0.42093   0.50552   0.00000  Uiso   1.00
N228   N     0.84796   0.08572   0.69549   0.00000  Uiso   1.00
N229   N     0.66889   0.01570   0.34879   0.00000  Uiso   1.00
N230   N     0.70480   0.42682   0.47875   0.00000  Uiso   1.00
C231   C     0.92237   0.33031   0.03683   0.00000  Uiso   1.00
C232   C     0.85254   0.35362   0.08140   0.00000  Uiso   1.00
C233   C     0.87725   0.37651   0.13377   0.00000  Uiso   1.00
C234   C     0.80283   0.39554   0.16849   0.00000  Uiso   1.00
C235   C     0.70896   0.43235   0.24028   0.00000  Uiso   1.00
C236   C     0.90189   0.37293   0.98585   0.00000  Uiso   1.00
C237   C     0.96810   0.41205   0.95789   0.00000  Uiso   1.00
C238   C     0.93521   0.44732   0.91217   0.00000  Uiso   1.00
C239   C     0.91797   0.51407   0.83559   0.00000  Uiso   1.00
C240   C     0.89199   0.25963   0.02167   0.00000  Uiso   1.00
C241   C     0.94988   0.20348   0.02382   0.00000  Uiso   1.00
C242   C     0.90867   0.14336   0.00825   0.00000  Uiso   1.00
C243   C     0.87606   0.03419   0.98731   0.00000  Uiso   1.00
C244   C     0.74626   0.32338   0.00535   0.00000  Uiso   1.00
C245   C     0.75689   0.34986   0.06429   0.00000  Uiso   1.00
C246   C     0.68241   0.36886   0.09894   0.00000  Uiso   1.00
C247   C     0.70700   0.39177   0.15136   0.00000  Uiso   1.00
C248   C     0.80624   0.36917   0.96875   0.00000  Uiso   1.00
C249   C     0.77325   0.40439   0.92305   0.00000  Uiso   1.00
C250   C     0.83939   0.44355   0.89503   0.00000  Uiso   1.00
C251   C     0.79633   0.25587   0.00457   0.00000  Uiso   1.00
C252   C     0.75503   0.19582   0.98899   0.00000  Uiso   1.00
C253   C     0.81284   0.13959   0.99112   0.00000  Uiso   1.00
H254   H     0.99684   0.33324   0.05014   0.00000  Uiso   1.00
H255   H     0.95129   0.37942   0.14699   0.00000  Uiso   1.00
H256   H     0.04212   0.41494   0.97113   0.00000  Uiso   1.00
H257   H     0.02390   0.20641   0.03706   0.00000  Uiso   1.00
H258   H     0.85860   0.42899   0.24682   0.00000  Uiso   1.00
H259   H     0.05013   0.50387   0.87599   0.00000  Uiso   1.00
H260   H     0.01171   0.06414   0.01501   0.00000  Uiso   1.00
H261   H     0.67179   0.32046   0.99203   0.00000  Uiso   1.00
H262   H     0.60839   0.36594   0.08570   0.00000  Uiso   1.00
H263   H     0.69922   0.40147   0.90983   0.00000  Uiso   1.00
H264   H     0.68100   0.19293   0.97576   0.00000  Uiso   1.00
H265   H     0.58029   0.41806   0.19707   0.00000  Uiso   1.00
H266   H     0.77182   0.49294   0.82624   0.00000  Uiso   1.00
H267   H     0.73340   0.05320   0.96526   0.00000  Uiso   1.00
O268   O     0.68361   0.45370   0.28460   0.00000  Uiso   1.00
O269   O     0.93489   0.55193   0.79808   0.00000  Uiso   1.00
O270   O     0.88449   0.97501   0.98048   0.00000  Uiso   1.00
N271   N     0.80180   0.42017   0.22226   0.00000  Uiso   1.00
N272   N     0.98086   0.49018   0.87556   0.00000  Uiso   1.00
N273   N     0.94496   0.07907   0.00552   0.00000  Uiso   1.00
N274   N     0.65204   0.41428   0.19549   0.00000  Uiso   1.00
N275   N     0.83111   0.48430   0.84879   0.00000  Uiso   1.00
N276   N     0.79520   0.07318   0.97875   0.00000  Uiso   1.00
C277   C     0.42237   0.16969   0.96317   0.00000  Uiso   1.00
C278   C     0.35254   0.14638   0.91860   0.00000  Uiso   1.00
C279   C     0.37725   0.12349   0.86623   0.00000  Uiso   1.00
C280   C     0.30283   0.10446   0.83151   0.00000  Uiso   1.00
C281   C     0.20896   0.06765   0.75972   0.00000  Uiso   1.00
C282   C     0.40189   0.12707   0.01415   0.00000  Uiso   1.00
C283   C     0.46810   0.08795   0.04211   0.00000  Uiso   1.00
C284   C     0.43521   0.05268   0.08783   0.00000  Uiso   1.00
C285   C     0.41797   0.98593   0.16441   0.00000  Uiso   1.00
C286   C     0.39199   0.24037   0.97833   0.00000  Uiso   1.00
C287   C     0.44988   0.29652   0.97618   0.00000  Uiso   1.00
C288   C     0.40867   0.35664   0.99175   0.00000  Uiso   1.00
C289   C     0.37606   0.46581   0.01269   0.00000  Uiso   1.00
C290   C     0.24626   0.17662   0.99465   0.00000  Uiso   1.00
C291   C     0.25689   0.15014   0.93571   0.00000  Uiso   1.00
C292   C     0.18241   0.13114   0.90106   0.00000  Uiso   1.00
C293   C     0.20700   0.10823   0.84864   0.00000  Uiso   1.00
C294   C     0.30624   0.13083   0.03125   0.00000  Uiso   1.00
C295   C     0.27325   0.09561   0.07695   0.00000  Uiso   1.00
C296   C     0.33939   0.05645   0.10497   0.00000  Uiso   1.00
C297   C     0.29633   0.24413   0.99543   0.00000  Uiso   1.00
C298   C     0.25503   0.30418   0.01101   0.00000  Uiso   1.00
C299   C     0.31284   0.36041   0.00888   0.00000  Uiso   1.00
H300   H     0.49684   0.16676   0.94986   0.00000  Uiso   1.00
H301   H     0.45129   0.12058   0.85301   0.00000  Uiso   1.00
H302   H     0.54212   0.08506   0.02887   0.00000  Uiso   1.00
H303   H     0.52390   0.29359   0.96294   0.00000  Uiso   1.00
H304   H     0.35860   0.07101   0.75318   0.00000  Uiso   1.00
H305   H     0.55013   0.99613   0.12401   0.00000  Uiso   1.00
H306   H     0.51171   0.43586   0.98499   0.00000  Uiso   1.00
H307   H     0.17179   0.17954   0.00797   0.00000  Uiso   1.00
H308   H     0.10839   0.13406   0.91430   0.00000  Uiso   1.00
H309   H     0.19922   0.09853   0.09017   0.00000  Uiso   1.00
H310   H     0.18100   0.30707   0.02424   0.00000  Uiso   1.00
H311   H     0.08029   0.08194   0.80293   0.00000  Uiso   1.00
H312   H     0.27182   0.00706   0.17376   0.00000  Uiso   1.00
H313   H     0.23340   0.44680   0.03474   0.00000  Uiso   1.00
O314   O     0.18361   0.04630   0.71540   0.00000  Uiso   1.00
O315   O     0.43489   0.94807   0.20192   0.00000  Uiso   1.00
O316   O     0.38449   0.52499   0.01952   0.00000  Uiso   1.00
N317   N     0.30180   0.07983   0.77774   0.00000  Uiso   1.00
N318   N     0.48086   0.00982   0.12444   0.00000  Uiso   1.00
N319   N     0.44496   0.42093   0.99448   0.00000  Uiso   1.00
N320   N     0.15204   0.08572   0.80451   0.00000  Uiso   1.00
N321   N     0.33111   0.01570   0.15121   0.00000  Uiso   1.00
N322   N     0.29520   0.42682   0.02125   0.00000  Uiso   1.00
C323   C     0.07763   0.33031   0.46317   0.00000  Uiso   1.00
C324   C     0.14746   0.35362   0.41860   0.00000  Uiso   1.00
C325   C     0.12275   0.37651   0.36623   0.00000  Uiso   1.00
C326   C     0.19717   0.39554   0.33151   0.00000  Uiso   1.00
C327   C     0.29104   0.43235   0.25972   0.00000  Uiso   1.00
C328   C     0.09811   0.37293   0.51415   0.00000  Uiso   1.00
C329   C     0.03190   0.41205   0.54211   0.00000  Uiso   1.00
C330   C     0.06479   0.44732   0.58783   0.00000  Uiso   1.00
C331   C     0.08203   0.51407   0.66441   0.00000  Uiso   1.00
C332   C     0.10801   0.25963   0.47833   0.00000  Uiso   1.00
C333   C     0.05012   0.20348   0.47618   0.00000  Uiso   1.00
C334   C     0.09133   0.14336   0.49175   0.00000  Uiso   1.00
C335   C     0.12394   0.03419   0.51269   0.00000  Uiso   1.00
C336   C     0.25374   0.32338   0.49465   0.00000  Uiso   1.00
C337   C     0.24311   0.34986   0.43571   0.00000  Uiso   1.00
C338   C     0.31759   0.36886   0.40106   0.00000  Uiso   1.00
C339   C     0.29300   0.39177   0.34864   0.00000  Uiso   1.00
C340   C     0.19376   0.36917   0.53125   0.00000  Uiso   1.00
C341   C     0.22675   0.40439   0.57695   0.00000  Uiso   1.00
C342   C     0.16061   0.44355   0.60497   0.00000  Uiso   1.00
C343   C     0.20367   0.25587   0.49543   0.00000  Uiso   1.00
C344   C     0.24497   0.19582   0.51101   0.00000  Uiso   1.00
C345   C     0.18716   0.13959   0.50888   0.00000  Uiso   1.00
H346   H     0.00316   0.33324   0.44986   0.00000  Uiso   1.00
H347   H     0.04871   0.37942   0.35301   0.00000  Uiso   1.00
H348   H     0.95788   0.41494   0.52887   0.00000  Uiso   1.00
H349   H     0.97610   0.20641   0.46294   0.00000  Uiso   1.00
H350   H     0.14140   0.42899   0.25318   0.00000  Uiso   1.00
H351   H     0.94987   0.50387   0.62401   0.00000  Uiso   1.00
H352   H     0.98829   0.06414   0.48499   0.00000  Uiso   1.00
H353   H     0.32821   0.32046   0.50797   0.00000  Uiso   1.00
H354   H     0.39161   0.36594   0.41430   0.00000  Uiso   1.00
H355   H     0.30078   0.40147   0.59017   0.00000  Uiso   1.00
H356   H     0.31900   0.19293   0.52424   0.00000  Uiso   1.00
H357   H     0.41971   0.41806   0.30293   0.00000  Uiso   1.00
H358   H     0.22818   0.49294   0.67376   0.00000  Uiso   1.00
H359   H     0.26660   0.05320   0.53474   0.00000  Uiso   1.00
O360   O     0.31639   0.45370   0.21540   0.00000  Uiso   1.00
O361   O     0.06511   0.55193   0.70192   0.00000  Uiso   1.00
O362   O     0.11551   0.97501   0.51952   0.00000  Uiso   1.00
N363   N     0.19820   0.42017   0.27774   0.00000  Uiso   1.00
N364   N     0.01914   0.49018   0.62444   0.00000  Uiso   1.00
N365   N     0.05504   0.07907   0.49448   0.00000  Uiso   1.00
N366   N     0.34796   0.41428   0.30451   0.00000  Uiso   1.00
N367   N     0.16889   0.48430   0.65121   0.00000  Uiso   1.00
N368   N     0.20480   0.07318   0.52125   0.00000  Uiso   1.00
