data_job_00225
_audit_creation_date              2018-12-19
_audit_creation_method            'Materials Studio'
_symmetry_space_group_name_H-M    'P1'
_symmetry_Int_Tables_number       1
_symmetry_cell_setting            triclinic
loop_
_symmetry_equiv_pos_as_xyz
  x,y,z
_cell_length_a                    25.1724
_cell_length_b                    17.4876
_cell_length_c                    11.1247
_cell_angle_alpha                 90.0000
_cell_angle_beta                  89.6578
_cell_angle_gamma                 90.0000
loop_
_atom_site_label
_atom_site_type_symbol
_atom_site_fract_x
_atom_site_fract_y
_atom_site_fract_z
_atom_site_U_iso_or_equiv
_atom_site_adp_type
_atom_site_occupancy
C1     C     0.90889   0.16385   0.29150   0.00000  Uiso   1.00
C2     C     0.85887   0.12981   0.34805   0.00000  Uiso   1.00
C3     C     0.85753   0.07344   0.43581   0.00000  Uiso   1.00
C4     C     0.80780   0.04998   0.47587   0.00000  Uiso   1.00
C5     C     0.73724   0.99227   0.57065   0.00000  Uiso   1.00
C6     C     0.90355   0.15195   0.15631   0.00000  Uiso   1.00
C7     C     0.93977   0.11419   0.08287   0.00000  Uiso   1.00
C8     C     0.92764   0.10938   0.96151   0.00000  Uiso   1.00
C9     C     0.92646   0.08608   0.75861   0.00000  Uiso   1.00
C10    C     0.90534   0.24992   0.31192   0.00000  Uiso   1.00
C11    C     0.94308   0.29455   0.36928   0.00000  Uiso   1.00
C12    C     0.93246   0.37223   0.37891   0.00000  Uiso   1.00
C13    C     0.93407   0.50105   0.41762   0.00000  Uiso   1.00
C14    C     0.82294   0.22244   0.20657   0.00000  Uiso   1.00
C15    C     0.81219   0.16164   0.30192   0.00000  Uiso   1.00
C16    C     0.76244   0.13826   0.34185   0.00000  Uiso   1.00
C17    C     0.76103   0.08186   0.42966   0.00000  Uiso   1.00
C18    C     0.85686   0.18377   0.11018   0.00000  Uiso   1.00
C19    C     0.84468   0.17902   0.98891   0.00000  Uiso   1.00
C20    C     0.88088   0.14126   0.91530   0.00000  Uiso   1.00
C21    C     0.85865   0.28175   0.26580   0.00000  Uiso   1.00
C22    C     0.84798   0.35938   0.27533   0.00000  Uiso   1.00
C23    C     0.88570   0.40412   0.33270   0.00000  Uiso   1.00
H24    H     0.94523   0.13907   0.32740   0.00000  Uiso   1.00
H25    H     0.89367   0.04882   0.47148   0.00000  Uiso   1.00
H26    H     0.97590   0.08958   0.11859   0.00000  Uiso   1.00
H27    H     0.97920   0.26990   0.40497   0.00000  Uiso   1.00
H28    H     0.81592   0.96277   0.61084   0.00000  Uiso   1.00
H29    H     0.98931   0.04874   0.86675   0.00000  Uiso   1.00
H30    H     0.99627   0.42900   0.47063   0.00000  Uiso   1.00
H31    H     0.78659   0.24722   0.17065   0.00000  Uiso   1.00
H32    H     0.72632   0.16290   0.30614   0.00000  Uiso   1.00
H33    H     0.80855   0.20366   0.95324   0.00000  Uiso   1.00
H34    H     0.81185   0.38399   0.23962   0.00000  Uiso   1.00
H35    H     0.68009   0.05536   0.47664   0.00000  Uiso   1.00
H36    H     0.85348   0.14133   0.73254   0.00000  Uiso   1.00
H37    H     0.86045   0.52159   0.33643   0.00000  Uiso   1.00
O38    O     0.71122   0.95163   0.63566   0.00000  Uiso   1.00
O39    O     0.93871   0.06443   0.65944   0.00000  Uiso   1.00
O40    O     0.94784   0.56332   0.45172   0.00000  Uiso   1.00
N41    N     0.79222   0.99615   0.56068   0.00000  Uiso   1.00
N42    N     0.95433   0.07651   0.86500   0.00000  Uiso   1.00
N43    N     0.96084   0.43202   0.42955   0.00000  Uiso   1.00
N44    N     0.71914   0.04597   0.48847   0.00000  Uiso   1.00
N45    N     0.88124   0.12633   0.79279   0.00000  Uiso   1.00
N46    N     0.88776   0.48185   0.35734   0.00000  Uiso   1.00
C47    C     0.40889   0.66385   0.29150   0.00000  Uiso   1.00
C48    C     0.35887   0.62981   0.34805   0.00000  Uiso   1.00
C49    C     0.35753   0.57344   0.43581   0.00000  Uiso   1.00
C50    C     0.30780   0.54998   0.47587   0.00000  Uiso   1.00
C51    C     0.23724   0.49227   0.57065   0.00000  Uiso   1.00
C52    C     0.40355   0.65195   0.15631   0.00000  Uiso   1.00
C53    C     0.43977   0.61419   0.08287   0.00000  Uiso   1.00
C54    C     0.42764   0.60938   0.96151   0.00000  Uiso   1.00
C55    C     0.42646   0.58608   0.75861   0.00000  Uiso   1.00
C56    C     0.40534   0.74992   0.31192   0.00000  Uiso   1.00
C57    C     0.44308   0.79455   0.36928   0.00000  Uiso   1.00
C58    C     0.43246   0.87223   0.37891   0.00000  Uiso   1.00
C59    C     0.43407   0.00105   0.41762   0.00000  Uiso   1.00
C60    C     0.32294   0.72244   0.20657   0.00000  Uiso   1.00
C61    C     0.31219   0.66164   0.30192   0.00000  Uiso   1.00
C62    C     0.26244   0.63826   0.34185   0.00000  Uiso   1.00
C63    C     0.26103   0.58186   0.42966   0.00000  Uiso   1.00
C64    C     0.35686   0.68377   0.11018   0.00000  Uiso   1.00
C65    C     0.34468   0.67902   0.98891   0.00000  Uiso   1.00
C66    C     0.38088   0.64126   0.91530   0.00000  Uiso   1.00
C67    C     0.35865   0.78175   0.26580   0.00000  Uiso   1.00
C68    C     0.34798   0.85938   0.27533   0.00000  Uiso   1.00
C69    C     0.38570   0.90412   0.33270   0.00000  Uiso   1.00
H70    H     0.44523   0.63907   0.32740   0.00000  Uiso   1.00
H71    H     0.39367   0.54882   0.47148   0.00000  Uiso   1.00
H72    H     0.47590   0.58958   0.11859   0.00000  Uiso   1.00
H73    H     0.47920   0.76990   0.40497   0.00000  Uiso   1.00
H74    H     0.31592   0.46277   0.61084   0.00000  Uiso   1.00
H75    H     0.48931   0.54874   0.86675   0.00000  Uiso   1.00
H76    H     0.49627   0.92900   0.47063   0.00000  Uiso   1.00
H77    H     0.28659   0.74722   0.17065   0.00000  Uiso   1.00
H78    H     0.22632   0.66290   0.30614   0.00000  Uiso   1.00
H79    H     0.30855   0.70366   0.95324   0.00000  Uiso   1.00
H80    H     0.31185   0.88399   0.23962   0.00000  Uiso   1.00
H81    H     0.18009   0.55536   0.47664   0.00000  Uiso   1.00
H82    H     0.35348   0.64133   0.73254   0.00000  Uiso   1.00
H83    H     0.36045   0.02159   0.33643   0.00000  Uiso   1.00
O84    O     0.21122   0.45163   0.63566   0.00000  Uiso   1.00
O85    O     0.43871   0.56443   0.65944   0.00000  Uiso   1.00
O86    O     0.44784   0.06332   0.45172   0.00000  Uiso   1.00
N87    N     0.29222   0.49615   0.56068   0.00000  Uiso   1.00
N88    N     0.45433   0.57651   0.86500   0.00000  Uiso   1.00
N89    N     0.46084   0.93202   0.42955   0.00000  Uiso   1.00
N90    N     0.21914   0.54597   0.48847   0.00000  Uiso   1.00
N91    N     0.38124   0.62633   0.79279   0.00000  Uiso   1.00
N92    N     0.38776   0.98185   0.35734   0.00000  Uiso   1.00
C93    C     0.09111   0.16385   0.20850   0.00000  Uiso   1.00
C94    C     0.14113   0.12981   0.15195   0.00000  Uiso   1.00
C95    C     0.14247   0.07344   0.06419   0.00000  Uiso   1.00
C96    C     0.19220   0.04998   0.02413   0.00000  Uiso   1.00
C97    C     0.26276   0.99227   0.92935   0.00000  Uiso   1.00
C98    C     0.09645   0.15195   0.34369   0.00000  Uiso   1.00
C99    C     0.06023   0.11419   0.41713   0.00000  Uiso   1.00
C100   C     0.07236   0.10938   0.53849   0.00000  Uiso   1.00
C101   C     0.07354   0.08608   0.74139   0.00000  Uiso   1.00
C102   C     0.09466   0.24992   0.18808   0.00000  Uiso   1.00
C103   C     0.05692   0.29455   0.13072   0.00000  Uiso   1.00
C104   C     0.06754   0.37223   0.12109   0.00000  Uiso   1.00
C105   C     0.06593   0.50105   0.08238   0.00000  Uiso   1.00
C106   C     0.17706   0.22244   0.29343   0.00000  Uiso   1.00
C107   C     0.18781   0.16164   0.19808   0.00000  Uiso   1.00
C108   C     0.23756   0.13826   0.15815   0.00000  Uiso   1.00
C109   C     0.23897   0.08186   0.07034   0.00000  Uiso   1.00
C110   C     0.14314   0.18377   0.38982   0.00000  Uiso   1.00
C111   C     0.15532   0.17902   0.51109   0.00000  Uiso   1.00
C112   C     0.11912   0.14126   0.58470   0.00000  Uiso   1.00
C113   C     0.14135   0.28175   0.23420   0.00000  Uiso   1.00
C114   C     0.15202   0.35938   0.22467   0.00000  Uiso   1.00
C115   C     0.11430   0.40412   0.16730   0.00000  Uiso   1.00
H116   H     0.05477   0.13907   0.17260   0.00000  Uiso   1.00
H117   H     0.10633   0.04882   0.02852   0.00000  Uiso   1.00
H118   H     0.02410   0.08958   0.38141   0.00000  Uiso   1.00
H119   H     0.02080   0.26990   0.09503   0.00000  Uiso   1.00
H120   H     0.18408   0.96277   0.88916   0.00000  Uiso   1.00
H121   H     0.01069   0.04874   0.63325   0.00000  Uiso   1.00
H122   H     0.00373   0.42900   0.02937   0.00000  Uiso   1.00
H123   H     0.21341   0.24722   0.32935   0.00000  Uiso   1.00
H124   H     0.27368   0.16290   0.19386   0.00000  Uiso   1.00
H125   H     0.19145   0.20366   0.54676   0.00000  Uiso   1.00
H126   H     0.18815   0.38399   0.26038   0.00000  Uiso   1.00
H127   H     0.31991   0.05536   0.02336   0.00000  Uiso   1.00
H128   H     0.14652   0.14133   0.76746   0.00000  Uiso   1.00
H129   H     0.13955   0.52159   0.16357   0.00000  Uiso   1.00
O130   O     0.28878   0.95163   0.86434   0.00000  Uiso   1.00
O131   O     0.06129   0.06443   0.84056   0.00000  Uiso   1.00
O132   O     0.05216   0.56332   0.04828   0.00000  Uiso   1.00
N133   N     0.20778   0.99615   0.93932   0.00000  Uiso   1.00
N134   N     0.04567   0.07651   0.63500   0.00000  Uiso   1.00
N135   N     0.03916   0.43202   0.07045   0.00000  Uiso   1.00
N136   N     0.28086   0.04597   0.01153   0.00000  Uiso   1.00
N137   N     0.11876   0.12633   0.70721   0.00000  Uiso   1.00
N138   N     0.11224   0.48185   0.14266   0.00000  Uiso   1.00
C139   C     0.59111   0.66385   0.20850   0.00000  Uiso   1.00
C140   C     0.64113   0.62981   0.15195   0.00000  Uiso   1.00
C141   C     0.64247   0.57344   0.06419   0.00000  Uiso   1.00
C142   C     0.69220   0.54998   0.02413   0.00000  Uiso   1.00
C143   C     0.76276   0.49227   0.92935   0.00000  Uiso   1.00
C144   C     0.59645   0.65195   0.34369   0.00000  Uiso   1.00
C145   C     0.56023   0.61419   0.41713   0.00000  Uiso   1.00
C146   C     0.57236   0.60938   0.53849   0.00000  Uiso   1.00
C147   C     0.57354   0.58608   0.74139   0.00000  Uiso   1.00
C148   C     0.59466   0.74992   0.18808   0.00000  Uiso   1.00
C149   C     0.55692   0.79455   0.13072   0.00000  Uiso   1.00
C150   C     0.56754   0.87223   0.12109   0.00000  Uiso   1.00
C151   C     0.56593   0.00105   0.08238   0.00000  Uiso   1.00
C152   C     0.67706   0.72244   0.29343   0.00000  Uiso   1.00
C153   C     0.68781   0.66164   0.19808   0.00000  Uiso   1.00
C154   C     0.73756   0.63826   0.15815   0.00000  Uiso   1.00
C155   C     0.73897   0.58186   0.07034   0.00000  Uiso   1.00
C156   C     0.64314   0.68377   0.38982   0.00000  Uiso   1.00
C157   C     0.65532   0.67902   0.51109   0.00000  Uiso   1.00
C158   C     0.61912   0.64126   0.58470   0.00000  Uiso   1.00
C159   C     0.64135   0.78175   0.23420   0.00000  Uiso   1.00
C160   C     0.65202   0.85938   0.22467   0.00000  Uiso   1.00
C161   C     0.61430   0.90412   0.16730   0.00000  Uiso   1.00
H162   H     0.55477   0.63907   0.17260   0.00000  Uiso   1.00
H163   H     0.60633   0.54882   0.02852   0.00000  Uiso   1.00
H164   H     0.52410   0.58958   0.38141   0.00000  Uiso   1.00
H165   H     0.52080   0.76990   0.09503   0.00000  Uiso   1.00
H166   H     0.68408   0.46277   0.88916   0.00000  Uiso   1.00
H167   H     0.51069   0.54874   0.63325   0.00000  Uiso   1.00
H168   H     0.50373   0.92900   0.02937   0.00000  Uiso   1.00
H169   H     0.71341   0.74722   0.32935   0.00000  Uiso   1.00
H170   H     0.77368   0.66290   0.19386   0.00000  Uiso   1.00
H171   H     0.69145   0.70366   0.54676   0.00000  Uiso   1.00
H172   H     0.68815   0.88399   0.26038   0.00000  Uiso   1.00
H173   H     0.81991   0.55536   0.02336   0.00000  Uiso   1.00
H174   H     0.64652   0.64133   0.76746   0.00000  Uiso   1.00
H175   H     0.63955   0.02159   0.16357   0.00000  Uiso   1.00
O176   O     0.78878   0.45163   0.86434   0.00000  Uiso   1.00
O177   O     0.56129   0.56443   0.84056   0.00000  Uiso   1.00
O178   O     0.55216   0.06332   0.04828   0.00000  Uiso   1.00
N179   N     0.70778   0.49615   0.93932   0.00000  Uiso   1.00
N180   N     0.54567   0.57651   0.63500   0.00000  Uiso   1.00
N181   N     0.53916   0.93202   0.07045   0.00000  Uiso   1.00
N182   N     0.78086   0.54597   0.01153   0.00000  Uiso   1.00
N183   N     0.61876   0.62633   0.70721   0.00000  Uiso   1.00
N184   N     0.61224   0.98185   0.14266   0.00000  Uiso   1.00
C185   C     0.09111   0.83615   0.70850   0.00000  Uiso   1.00
C186   C     0.14113   0.87019   0.65195   0.00000  Uiso   1.00
C187   C     0.14247   0.92656   0.56419   0.00000  Uiso   1.00
C188   C     0.19220   0.95002   0.52413   0.00000  Uiso   1.00
C189   C     0.26276   0.00773   0.42935   0.00000  Uiso   1.00
C190   C     0.09645   0.84805   0.84369   0.00000  Uiso   1.00
C191   C     0.06023   0.88581   0.91713   0.00000  Uiso   1.00
C192   C     0.07236   0.89062   0.03849   0.00000  Uiso   1.00
C193   C     0.07354   0.91392   0.24139   0.00000  Uiso   1.00
C194   C     0.09466   0.75008   0.68808   0.00000  Uiso   1.00
C195   C     0.05692   0.70545   0.63072   0.00000  Uiso   1.00
C196   C     0.06754   0.62777   0.62109   0.00000  Uiso   1.00
C197   C     0.06593   0.49895   0.58238   0.00000  Uiso   1.00
C198   C     0.17706   0.77756   0.79343   0.00000  Uiso   1.00
C199   C     0.18781   0.83836   0.69808   0.00000  Uiso   1.00
C200   C     0.23756   0.86174   0.65815   0.00000  Uiso   1.00
C201   C     0.23897   0.91814   0.57034   0.00000  Uiso   1.00
C202   C     0.14314   0.81623   0.88982   0.00000  Uiso   1.00
C203   C     0.15532   0.82098   0.01109   0.00000  Uiso   1.00
C204   C     0.11912   0.85874   0.08470   0.00000  Uiso   1.00
C205   C     0.14135   0.71825   0.73420   0.00000  Uiso   1.00
C206   C     0.15202   0.64062   0.72467   0.00000  Uiso   1.00
C207   C     0.11430   0.59588   0.66730   0.00000  Uiso   1.00
H208   H     0.05477   0.86093   0.67260   0.00000  Uiso   1.00
H209   H     0.10633   0.95118   0.52852   0.00000  Uiso   1.00
H210   H     0.02410   0.91042   0.88141   0.00000  Uiso   1.00
H211   H     0.02080   0.73010   0.59503   0.00000  Uiso   1.00
H212   H     0.18408   0.03723   0.38916   0.00000  Uiso   1.00
H213   H     0.01069   0.95126   0.13325   0.00000  Uiso   1.00
H214   H     0.00373   0.57100   0.52937   0.00000  Uiso   1.00
H215   H     0.21341   0.75278   0.82935   0.00000  Uiso   1.00
H216   H     0.27368   0.83710   0.69386   0.00000  Uiso   1.00
H217   H     0.19145   0.79634   0.04676   0.00000  Uiso   1.00
H218   H     0.18815   0.61601   0.76038   0.00000  Uiso   1.00
H219   H     0.31991   0.94464   0.52336   0.00000  Uiso   1.00
H220   H     0.14652   0.85867   0.26746   0.00000  Uiso   1.00
H221   H     0.13955   0.47841   0.66357   0.00000  Uiso   1.00
O222   O     0.28878   0.04837   0.36434   0.00000  Uiso   1.00
O223   O     0.06129   0.93557   0.34056   0.00000  Uiso   1.00
O224   O     0.05216   0.43668   0.54828   0.00000  Uiso   1.00
N225   N     0.20778   0.00385   0.43932   0.00000  Uiso   1.00
N226   N     0.04567   0.92349   0.13500   0.00000  Uiso   1.00
N227   N     0.03916   0.56798   0.57045   0.00000  Uiso   1.00
N228   N     0.28086   0.95403   0.51153   0.00000  Uiso   1.00
N229   N     0.11876   0.87367   0.20721   0.00000  Uiso   1.00
N230   N     0.11224   0.51815   0.64266   0.00000  Uiso   1.00
C231   C     0.59111   0.33615   0.70850   0.00000  Uiso   1.00
C232   C     0.64113   0.37019   0.65195   0.00000  Uiso   1.00
C233   C     0.64247   0.42656   0.56419   0.00000  Uiso   1.00
C234   C     0.69220   0.45002   0.52413   0.00000  Uiso   1.00
C235   C     0.76276   0.50773   0.42935   0.00000  Uiso   1.00
C236   C     0.59645   0.34805   0.84369   0.00000  Uiso   1.00
C237   C     0.56023   0.38581   0.91713   0.00000  Uiso   1.00
C238   C     0.57236   0.39062   0.03849   0.00000  Uiso   1.00
C239   C     0.57354   0.41392   0.24139   0.00000  Uiso   1.00
C240   C     0.59466   0.25008   0.68808   0.00000  Uiso   1.00
C241   C     0.55692   0.20545   0.63072   0.00000  Uiso   1.00
C242   C     0.56754   0.12777   0.62109   0.00000  Uiso   1.00
C243   C     0.56593   0.99895   0.58238   0.00000  Uiso   1.00
C244   C     0.67706   0.27756   0.79343   0.00000  Uiso   1.00
C245   C     0.68781   0.33836   0.69808   0.00000  Uiso   1.00
C246   C     0.73756   0.36174   0.65815   0.00000  Uiso   1.00
C247   C     0.73897   0.41814   0.57034   0.00000  Uiso   1.00
C248   C     0.64314   0.31623   0.88982   0.00000  Uiso   1.00
C249   C     0.65532   0.32098   0.01109   0.00000  Uiso   1.00
C250   C     0.61912   0.35874   0.08470   0.00000  Uiso   1.00
C251   C     0.64135   0.21825   0.73420   0.00000  Uiso   1.00
C252   C     0.65202   0.14062   0.72467   0.00000  Uiso   1.00
C253   C     0.61430   0.09588   0.66730   0.00000  Uiso   1.00
H254   H     0.55477   0.36093   0.67260   0.00000  Uiso   1.00
H255   H     0.60633   0.45118   0.52852   0.00000  Uiso   1.00
H256   H     0.52410   0.41042   0.88141   0.00000  Uiso   1.00
H257   H     0.52080   0.23010   0.59503   0.00000  Uiso   1.00
H258   H     0.68408   0.53723   0.38916   0.00000  Uiso   1.00
H259   H     0.51069   0.45126   0.13325   0.00000  Uiso   1.00
H260   H     0.50373   0.07100   0.52937   0.00000  Uiso   1.00
H261   H     0.71341   0.25278   0.82935   0.00000  Uiso   1.00
H262   H     0.77368   0.33710   0.69386   0.00000  Uiso   1.00
H263   H     0.69145   0.29634   0.04676   0.00000  Uiso   1.00
H264   H     0.68815   0.11601   0.76038   0.00000  Uiso   1.00
H265   H     0.81991   0.44464   0.52336   0.00000  Uiso   1.00
H266   H     0.64652   0.35867   0.26746   0.00000  Uiso   1.00
H267   H     0.63955   0.97841   0.66357   0.00000  Uiso   1.00
O268   O     0.78878   0.54837   0.36434   0.00000  Uiso   1.00
O269   O     0.56129   0.43557   0.34056   0.00000  Uiso   1.00
O270   O     0.55216   0.93668   0.54828   0.00000  Uiso   1.00
N271   N     0.70778   0.50385   0.43932   0.00000  Uiso   1.00
N272   N     0.54567   0.42349   0.13500   0.00000  Uiso   1.00
N273   N     0.53916   0.06798   0.57045   0.00000  Uiso   1.00
N274   N     0.78086   0.45403   0.51153   0.00000  Uiso   1.00
N275   N     0.61876   0.37367   0.20721   0.00000  Uiso   1.00
N276   N     0.61224   0.01815   0.64266   0.00000  Uiso   1.00
C277   C     0.90889   0.83615   0.79150   0.00000  Uiso   1.00
C278   C     0.85887   0.87019   0.84805   0.00000  Uiso   1.00
C279   C     0.85753   0.92656   0.93581   0.00000  Uiso   1.00
C280   C     0.80780   0.95002   0.97587   0.00000  Uiso   1.00
C281   C     0.73724   0.00773   0.07065   0.00000  Uiso   1.00
C282   C     0.90355   0.84805   0.65631   0.00000  Uiso   1.00
C283   C     0.93977   0.88581   0.58287   0.00000  Uiso   1.00
C284   C     0.92764   0.89062   0.46151   0.00000  Uiso   1.00
C285   C     0.92646   0.91392   0.25861   0.00000  Uiso   1.00
C286   C     0.90534   0.75008   0.81192   0.00000  Uiso   1.00
C287   C     0.94308   0.70545   0.86928   0.00000  Uiso   1.00
C288   C     0.93246   0.62777   0.87891   0.00000  Uiso   1.00
C289   C     0.93407   0.49895   0.91762   0.00000  Uiso   1.00
C290   C     0.82294   0.77756   0.70657   0.00000  Uiso   1.00
C291   C     0.81219   0.83836   0.80192   0.00000  Uiso   1.00
C292   C     0.76244   0.86174   0.84185   0.00000  Uiso   1.00
C293   C     0.76103   0.91814   0.92966   0.00000  Uiso   1.00
C294   C     0.85686   0.81623   0.61018   0.00000  Uiso   1.00
C295   C     0.84468   0.82098   0.48891   0.00000  Uiso   1.00
C296   C     0.88088   0.85874   0.41530   0.00000  Uiso   1.00
C297   C     0.85865   0.71825   0.76580   0.00000  Uiso   1.00
C298   C     0.84798   0.64062   0.77533   0.00000  Uiso   1.00
C299   C     0.88570   0.59588   0.83270   0.00000  Uiso   1.00
H300   H     0.94523   0.86093   0.82740   0.00000  Uiso   1.00
H301   H     0.89367   0.95118   0.97148   0.00000  Uiso   1.00
H302   H     0.97590   0.91042   0.61859   0.00000  Uiso   1.00
H303   H     0.97920   0.73010   0.90497   0.00000  Uiso   1.00
H304   H     0.81592   0.03723   0.11084   0.00000  Uiso   1.00
H305   H     0.98931   0.95126   0.36675   0.00000  Uiso   1.00
H306   H     0.99627   0.57100   0.97063   0.00000  Uiso   1.00
H307   H     0.78659   0.75278   0.67065   0.00000  Uiso   1.00
H308   H     0.72632   0.83710   0.80614   0.00000  Uiso   1.00
H309   H     0.80855   0.79634   0.45324   0.00000  Uiso   1.00
H310   H     0.81185   0.61601   0.73962   0.00000  Uiso   1.00
H311   H     0.68009   0.94464   0.97664   0.00000  Uiso   1.00
H312   H     0.85348   0.85867   0.23254   0.00000  Uiso   1.00
H313   H     0.86045   0.47841   0.83643   0.00000  Uiso   1.00
O314   O     0.71122   0.04837   0.13566   0.00000  Uiso   1.00
O315   O     0.93871   0.93557   0.15944   0.00000  Uiso   1.00
O316   O     0.94784   0.43668   0.95172   0.00000  Uiso   1.00
N317   N     0.79222   0.00385   0.06068   0.00000  Uiso   1.00
N318   N     0.95433   0.92349   0.36500   0.00000  Uiso   1.00
N319   N     0.96084   0.56798   0.92955   0.00000  Uiso   1.00
N320   N     0.71914   0.95403   0.98847   0.00000  Uiso   1.00
N321   N     0.88124   0.87367   0.29279   0.00000  Uiso   1.00
N322   N     0.88776   0.51815   0.85734   0.00000  Uiso   1.00
C323   C     0.40889   0.33615   0.79150   0.00000  Uiso   1.00
C324   C     0.35887   0.37019   0.84805   0.00000  Uiso   1.00
C325   C     0.35753   0.42656   0.93581   0.00000  Uiso   1.00
C326   C     0.30780   0.45002   0.97587   0.00000  Uiso   1.00
C327   C     0.23724   0.50773   0.07065   0.00000  Uiso   1.00
C328   C     0.40355   0.34805   0.65631   0.00000  Uiso   1.00
C329   C     0.43977   0.38581   0.58287   0.00000  Uiso   1.00
C330   C     0.42764   0.39062   0.46151   0.00000  Uiso   1.00
C331   C     0.42646   0.41392   0.25861   0.00000  Uiso   1.00
C332   C     0.40534   0.25008   0.81192   0.00000  Uiso   1.00
C333   C     0.44308   0.20545   0.86928   0.00000  Uiso   1.00
C334   C     0.43246   0.12777   0.87891   0.00000  Uiso   1.00
C335   C     0.43407   0.99895   0.91762   0.00000  Uiso   1.00
C336   C     0.32294   0.27756   0.70657   0.00000  Uiso   1.00
C337   C     0.31219   0.33836   0.80192   0.00000  Uiso   1.00
C338   C     0.26244   0.36174   0.84185   0.00000  Uiso   1.00
C339   C     0.26103   0.41814   0.92966   0.00000  Uiso   1.00
C340   C     0.35686   0.31623   0.61018   0.00000  Uiso   1.00
C341   C     0.34468   0.32098   0.48891   0.00000  Uiso   1.00
C342   C     0.38088   0.35874   0.41530   0.00000  Uiso   1.00
C343   C     0.35865   0.21825   0.76580   0.00000  Uiso   1.00
C344   C     0.34798   0.14062   0.77533   0.00000  Uiso   1.00
C345   C     0.38570   0.09588   0.83270   0.00000  Uiso   1.00
H346   H     0.44523   0.36093   0.82740   0.00000  Uiso   1.00
H347   H     0.39367   0.45118   0.97148   0.00000  Uiso   1.00
H348   H     0.47590   0.41042   0.61859   0.00000  Uiso   1.00
H349   H     0.47920   0.23010   0.90497   0.00000  Uiso   1.00
H350   H     0.31592   0.53723   0.11084   0.00000  Uiso   1.00
H351   H     0.48931   0.45126   0.36675   0.00000  Uiso   1.00
H352   H     0.49627   0.07100   0.97063   0.00000  Uiso   1.00
H353   H     0.28659   0.25278   0.67065   0.00000  Uiso   1.00
H354   H     0.22632   0.33710   0.80614   0.00000  Uiso   1.00
H355   H     0.30855   0.29634   0.45324   0.00000  Uiso   1.00
H356   H     0.31185   0.11601   0.73962   0.00000  Uiso   1.00
H357   H     0.18009   0.44464   0.97664   0.00000  Uiso   1.00
H358   H     0.35348   0.35867   0.23254   0.00000  Uiso   1.00
H359   H     0.36045   0.97841   0.83643   0.00000  Uiso   1.00
O360   O     0.21122   0.54837   0.13566   0.00000  Uiso   1.00
O361   O     0.43871   0.43557   0.15944   0.00000  Uiso   1.00
O362   O     0.44784   0.93668   0.95172   0.00000  Uiso   1.00
N363   N     0.29222   0.50385   0.06068   0.00000  Uiso   1.00
N364   N     0.45433   0.42349   0.36500   0.00000  Uiso   1.00
N365   N     0.46084   0.06798   0.92955   0.00000  Uiso   1.00
N366   N     0.21914   0.45403   0.98847   0.00000  Uiso   1.00
N367   N     0.38124   0.37367   0.29279   0.00000  Uiso   1.00
N368   N     0.38776   0.01815   0.85734   0.00000  Uiso   1.00
