data_job_02234
_audit_creation_date              2018-12-19
_audit_creation_method            'Materials Studio'
_symmetry_space_group_name_H-M    'P1'
_symmetry_Int_Tables_number       1
_symmetry_cell_setting            triclinic
loop_
_symmetry_equiv_pos_as_xyz
  x,y,z
_cell_length_a                    42.0436
_cell_length_b                    12.7339
_cell_length_c                    11.9410
_cell_angle_alpha                 90.0000
_cell_angle_beta                  86.1863
_cell_angle_gamma                 90.0000
loop_
_atom_site_label
_atom_site_type_symbol
_atom_site_fract_x
_atom_site_fract_y
_atom_site_fract_z
_atom_site_U_iso_or_equiv
_atom_site_adp_type
_atom_site_occupancy
C1     C     0.67510   0.39880   0.69450   0.00000  Uiso   1.00
C2     C     0.67963   0.30144   0.76608   0.00000  Uiso   1.00
C3     C     0.69945   0.29397   0.85414   0.00000  Uiso   1.00
C4     C     0.70026   0.19806   0.90917   0.00000  Uiso   1.00
C5     C     0.71009   0.05985   0.02515   0.00000  Uiso   1.00
C6     C     0.68306   0.36519   0.57329   0.00000  Uiso   1.00
C7     C     0.70577   0.41133   0.49925   0.00000  Uiso   1.00
C8     C     0.70947   0.36909   0.39198   0.00000  Uiso   1.00
C9     C     0.72462   0.32990   0.20863   0.00000  Uiso   1.00
C10    C     0.63945   0.42213   0.70377   0.00000  Uiso   1.00
C11    C     0.62549   0.51616   0.73941   0.00000  Uiso   1.00
C12    C     0.59247   0.52186   0.74196   0.00000  Uiso   1.00
C13    C     0.53990   0.57108   0.76119   0.00000  Uiso   1.00
C14    C     0.64129   0.24174   0.63563   0.00000  Uiso   1.00
C15    C     0.66126   0.21613   0.73410   0.00000  Uiso   1.00
C16    C     0.66204   0.12021   0.78902   0.00000  Uiso   1.00
C17    C     0.68186   0.11260   0.87715   0.00000  Uiso   1.00
C18    C     0.66470   0.27989   0.54132   0.00000  Uiso   1.00
C19    C     0.66836   0.23757   0.43413   0.00000  Uiso   1.00
C20    C     0.69107   0.28363   0.35995   0.00000  Uiso   1.00
C21    C     0.62108   0.33682   0.67180   0.00000  Uiso   1.00
C22    C     0.58808   0.34239   0.67429   0.00000  Uiso   1.00
C23    C     0.57407   0.43640   0.70993   0.00000  Uiso   1.00
H24    H     0.68940   0.46521   0.71938   0.00000  Uiso   1.00
H25    H     0.71366   0.36000   0.87885   0.00000  Uiso   1.00
H26    H     0.71998   0.47735   0.52401   0.00000  Uiso   1.00
H27    H     0.63971   0.58215   0.76414   0.00000  Uiso   1.00
H28    H     0.73246   0.20573   0.04153   0.00000  Uiso   1.00
H29    H     0.74578   0.45319   0.29333   0.00000  Uiso   1.00
H30    H     0.57652   0.67419   0.79967   0.00000  Uiso   1.00
H31    H     0.62699   0.17532   0.61074   0.00000  Uiso   1.00
H32    H     0.64782   0.05421   0.76426   0.00000  Uiso   1.00
H33    H     0.65414   0.17156   0.40941   0.00000  Uiso   1.00
H34    H     0.57387   0.27636   0.64954   0.00000  Uiso   1.00
H35    H     0.67903   0.95753   0.94852   0.00000  Uiso   1.00
H36    H     0.69234   0.20500   0.20031   0.00000  Uiso   1.00
H37    H     0.52308   0.42599   0.70666   0.00000  Uiso   1.00
O38    O     0.72059   0.00718   0.09795   0.00000  Uiso   1.00
O39    O     0.73805   0.33185   0.11633   0.00000  Uiso   1.00
O40    O     0.51598   0.62179   0.78065   0.00000  Uiso   1.00
N41    N     0.71702   0.16395   0.99859   0.00000  Uiso   1.00
N42    N     0.72948   0.39529   0.29906   0.00000  Uiso   1.00
N43    N     0.57123   0.60192   0.77243   0.00000  Uiso   1.00
N44    N     0.68827   0.03039   0.94854   0.00000  Uiso   1.00
N45    N     0.70072   0.26174   0.24901   0.00000  Uiso   1.00
N46    N     0.54248   0.46836   0.72238   0.00000  Uiso   1.00
C47    C     0.32827   0.59808   0.77907   0.00000  Uiso   1.00
C48    C     0.32368   0.69573   0.70802   0.00000  Uiso   1.00
C49    C     0.30368   0.70369   0.62050   0.00000  Uiso   1.00
C50    C     0.30283   0.79982   0.56591   0.00000  Uiso   1.00
C51    C     0.29288   0.93853   0.45077   0.00000  Uiso   1.00
C52    C     0.32056   0.63130   0.90055   0.00000  Uiso   1.00
C53    C     0.29795   0.58507   0.97490   0.00000  Uiso   1.00
C54    C     0.29449   0.62695   0.08238   0.00000  Uiso   1.00
C55    C     0.27971   0.66558   0.26616   0.00000  Uiso   1.00
C56    C     0.36390   0.57449   0.76887   0.00000  Uiso   1.00
C57    C     0.37774   0.48048   0.73254   0.00000  Uiso   1.00
C58    C     0.41077   0.47451   0.72918   0.00000  Uiso   1.00
C59    C     0.46328   0.42493   0.70852   0.00000  Uiso   1.00
C60    C     0.36232   0.75463   0.83775   0.00000  Uiso   1.00
C61    C     0.34217   0.78077   0.73989   0.00000  Uiso   1.00
C62    C     0.34135   0.87691   0.68541   0.00000  Uiso   1.00
C63    C     0.32136   0.88500   0.59783   0.00000  Uiso   1.00
C64    C     0.33905   0.71633   0.93242   0.00000  Uiso   1.00
C65    C     0.33562   0.75828   0.03981   0.00000  Uiso   1.00
C66    C     0.31301   0.71213   0.11430   0.00000  Uiso   1.00
C67    C     0.38240   0.65952   0.80074   0.00000  Uiso   1.00
C68    C     0.41541   0.65370   0.79744   0.00000  Uiso   1.00
C69    C     0.42929   0.55970   0.76111   0.00000  Uiso   1.00
H70    H     0.31387   0.53187   0.75427   0.00000  Uiso   1.00
H71    H     0.28937   0.63787   0.59587   0.00000  Uiso   1.00
H72    H     0.28365   0.51926   0.95022   0.00000  Uiso   1.00
H73    H     0.36342   0.41469   0.70789   0.00000  Uiso   1.00
H74    H     0.27036   0.79290   0.43434   0.00000  Uiso   1.00
H75    H     0.25829   0.54278   0.18150   0.00000  Uiso   1.00
H76    H     0.42651   0.32227   0.67051   0.00000  Uiso   1.00
H77    H     0.37672   0.82084   0.86256   0.00000  Uiso   1.00
H78    H     0.35567   0.94270   0.71009   0.00000  Uiso   1.00
H79    H     0.34994   0.82408   0.06444   0.00000  Uiso   1.00
H80    H     0.42971   0.71952   0.82211   0.00000  Uiso   1.00
H81    H     0.32416   0.04031   0.52705   0.00000  Uiso   1.00
H82    H     0.31210   0.79018   0.27422   0.00000  Uiso   1.00
H83    H     0.48031   0.56968   0.76321   0.00000  Uiso   1.00
O84    O     0.28227   0.99156   0.37847   0.00000  Uiso   1.00
O85    O     0.26644   0.66340   0.35872   0.00000  Uiso   1.00
O86    O     0.48714   0.37410   0.68830   0.00000  Uiso   1.00
N87    N     0.28591   0.83440   0.47707   0.00000  Uiso   1.00
N88    N     0.27463   0.60056   0.17562   0.00000  Uiso   1.00
N89    N     0.43190   0.39439   0.69790   0.00000  Uiso   1.00
N90    N     0.31487   0.96753   0.52695   0.00000  Uiso   1.00
N91    N     0.30358   0.73369   0.22550   0.00000  Uiso   1.00
N92    N     0.46085   0.52752   0.74779   0.00000  Uiso   1.00
C93    C     0.17510   0.89880   0.69450   0.00000  Uiso   1.00
C94    C     0.17963   0.80144   0.76608   0.00000  Uiso   1.00
C95    C     0.19945   0.79397   0.85414   0.00000  Uiso   1.00
C96    C     0.20026   0.69806   0.90917   0.00000  Uiso   1.00
C97    C     0.21009   0.55985   0.02515   0.00000  Uiso   1.00
C98    C     0.18306   0.86519   0.57329   0.00000  Uiso   1.00
C99    C     0.20577   0.91133   0.49925   0.00000  Uiso   1.00
C100   C     0.20947   0.86909   0.39198   0.00000  Uiso   1.00
C101   C     0.22462   0.82990   0.20863   0.00000  Uiso   1.00
C102   C     0.13945   0.92213   0.70377   0.00000  Uiso   1.00
C103   C     0.12549   0.01616   0.73941   0.00000  Uiso   1.00
C104   C     0.09247   0.02186   0.74196   0.00000  Uiso   1.00
C105   C     0.03990   0.07108   0.76119   0.00000  Uiso   1.00
C106   C     0.14129   0.74174   0.63563   0.00000  Uiso   1.00
C107   C     0.16126   0.71613   0.73410   0.00000  Uiso   1.00
C108   C     0.16204   0.62021   0.78902   0.00000  Uiso   1.00
C109   C     0.18186   0.61260   0.87715   0.00000  Uiso   1.00
C110   C     0.16470   0.77989   0.54132   0.00000  Uiso   1.00
C111   C     0.16836   0.73757   0.43413   0.00000  Uiso   1.00
C112   C     0.19107   0.78363   0.35995   0.00000  Uiso   1.00
C113   C     0.12108   0.83682   0.67180   0.00000  Uiso   1.00
C114   C     0.08808   0.84239   0.67429   0.00000  Uiso   1.00
C115   C     0.07407   0.93640   0.70993   0.00000  Uiso   1.00
H116   H     0.18940   0.96521   0.71938   0.00000  Uiso   1.00
H117   H     0.21366   0.86000   0.87885   0.00000  Uiso   1.00
H118   H     0.21998   0.97735   0.52401   0.00000  Uiso   1.00
H119   H     0.13971   0.08215   0.76414   0.00000  Uiso   1.00
H120   H     0.23246   0.70573   0.04153   0.00000  Uiso   1.00
H121   H     0.24578   0.95319   0.29333   0.00000  Uiso   1.00
H122   H     0.07652   0.17419   0.79967   0.00000  Uiso   1.00
H123   H     0.12699   0.67532   0.61074   0.00000  Uiso   1.00
H124   H     0.14782   0.55421   0.76426   0.00000  Uiso   1.00
H125   H     0.15414   0.67156   0.40941   0.00000  Uiso   1.00
H126   H     0.07387   0.77636   0.64954   0.00000  Uiso   1.00
H127   H     0.17903   0.45753   0.94852   0.00000  Uiso   1.00
H128   H     0.19234   0.70500   0.20031   0.00000  Uiso   1.00
H129   H     0.02308   0.92599   0.70666   0.00000  Uiso   1.00
O130   O     0.22059   0.50718   0.09795   0.00000  Uiso   1.00
O131   O     0.23805   0.83185   0.11633   0.00000  Uiso   1.00
O132   O     0.01598   0.12179   0.78065   0.00000  Uiso   1.00
N133   N     0.21702   0.66395   0.99859   0.00000  Uiso   1.00
N134   N     0.22948   0.89529   0.29906   0.00000  Uiso   1.00
N135   N     0.07123   0.10192   0.77243   0.00000  Uiso   1.00
N136   N     0.18827   0.53039   0.94854   0.00000  Uiso   1.00
N137   N     0.20072   0.76174   0.24901   0.00000  Uiso   1.00
N138   N     0.04248   0.96836   0.72238   0.00000  Uiso   1.00
C139   C     0.82827   0.09808   0.77907   0.00000  Uiso   1.00
C140   C     0.82368   0.19573   0.70802   0.00000  Uiso   1.00
C141   C     0.80368   0.20369   0.62050   0.00000  Uiso   1.00
C142   C     0.80283   0.29982   0.56591   0.00000  Uiso   1.00
C143   C     0.79288   0.43853   0.45077   0.00000  Uiso   1.00
C144   C     0.82056   0.13130   0.90055   0.00000  Uiso   1.00
C145   C     0.79795   0.08507   0.97490   0.00000  Uiso   1.00
C146   C     0.79449   0.12695   0.08238   0.00000  Uiso   1.00
C147   C     0.77971   0.16558   0.26616   0.00000  Uiso   1.00
C148   C     0.86390   0.07449   0.76887   0.00000  Uiso   1.00
C149   C     0.87774   0.98048   0.73254   0.00000  Uiso   1.00
C150   C     0.91077   0.97451   0.72918   0.00000  Uiso   1.00
C151   C     0.96328   0.92493   0.70852   0.00000  Uiso   1.00
C152   C     0.86232   0.25463   0.83775   0.00000  Uiso   1.00
C153   C     0.84217   0.28077   0.73989   0.00000  Uiso   1.00
C154   C     0.84135   0.37691   0.68541   0.00000  Uiso   1.00
C155   C     0.82136   0.38500   0.59783   0.00000  Uiso   1.00
C156   C     0.83905   0.21633   0.93242   0.00000  Uiso   1.00
C157   C     0.83562   0.25828   0.03981   0.00000  Uiso   1.00
C158   C     0.81301   0.21213   0.11430   0.00000  Uiso   1.00
C159   C     0.88240   0.15952   0.80074   0.00000  Uiso   1.00
C160   C     0.91541   0.15370   0.79744   0.00000  Uiso   1.00
C161   C     0.92929   0.05970   0.76111   0.00000  Uiso   1.00
H162   H     0.81387   0.03187   0.75427   0.00000  Uiso   1.00
H163   H     0.78937   0.13787   0.59587   0.00000  Uiso   1.00
H164   H     0.78365   0.01926   0.95022   0.00000  Uiso   1.00
H165   H     0.86342   0.91469   0.70789   0.00000  Uiso   1.00
H166   H     0.77036   0.29290   0.43434   0.00000  Uiso   1.00
H167   H     0.75829   0.04278   0.18150   0.00000  Uiso   1.00
H168   H     0.92651   0.82227   0.67051   0.00000  Uiso   1.00
H169   H     0.87672   0.32084   0.86256   0.00000  Uiso   1.00
H170   H     0.85567   0.44270   0.71009   0.00000  Uiso   1.00
H171   H     0.84994   0.32408   0.06444   0.00000  Uiso   1.00
H172   H     0.92971   0.21952   0.82211   0.00000  Uiso   1.00
H173   H     0.82416   0.54031   0.52705   0.00000  Uiso   1.00
H174   H     0.81210   0.29018   0.27422   0.00000  Uiso   1.00
H175   H     0.98031   0.06968   0.76321   0.00000  Uiso   1.00
O176   O     0.78227   0.49156   0.37847   0.00000  Uiso   1.00
O177   O     0.76644   0.16340   0.35872   0.00000  Uiso   1.00
O178   O     0.98714   0.87410   0.68830   0.00000  Uiso   1.00
N179   N     0.78591   0.33440   0.47707   0.00000  Uiso   1.00
N180   N     0.77463   0.10056   0.17562   0.00000  Uiso   1.00
N181   N     0.93190   0.89439   0.69790   0.00000  Uiso   1.00
N182   N     0.81487   0.46753   0.52695   0.00000  Uiso   1.00
N183   N     0.80358   0.23369   0.22550   0.00000  Uiso   1.00
N184   N     0.96085   0.02752   0.74779   0.00000  Uiso   1.00
C185   C     0.32490   0.39880   0.30550   0.00000  Uiso   1.00
C186   C     0.32037   0.30144   0.23392   0.00000  Uiso   1.00
C187   C     0.30055   0.29397   0.14586   0.00000  Uiso   1.00
C188   C     0.29974   0.19806   0.09083   0.00000  Uiso   1.00
C189   C     0.28991   0.05985   0.97485   0.00000  Uiso   1.00
C190   C     0.31694   0.36519   0.42671   0.00000  Uiso   1.00
C191   C     0.29423   0.41133   0.50075   0.00000  Uiso   1.00
C192   C     0.29053   0.36909   0.60802   0.00000  Uiso   1.00
C193   C     0.27538   0.32990   0.79137   0.00000  Uiso   1.00
C194   C     0.36055   0.42213   0.29623   0.00000  Uiso   1.00
C195   C     0.37451   0.51616   0.26059   0.00000  Uiso   1.00
C196   C     0.40753   0.52186   0.25804   0.00000  Uiso   1.00
C197   C     0.46010   0.57108   0.23881   0.00000  Uiso   1.00
C198   C     0.35871   0.24174   0.36437   0.00000  Uiso   1.00
C199   C     0.33874   0.21613   0.26590   0.00000  Uiso   1.00
C200   C     0.33796   0.12021   0.21098   0.00000  Uiso   1.00
C201   C     0.31814   0.11260   0.12285   0.00000  Uiso   1.00
C202   C     0.33530   0.27989   0.45868   0.00000  Uiso   1.00
C203   C     0.33164   0.23757   0.56587   0.00000  Uiso   1.00
C204   C     0.30893   0.28363   0.64005   0.00000  Uiso   1.00
C205   C     0.37892   0.33682   0.32820   0.00000  Uiso   1.00
C206   C     0.41192   0.34239   0.32571   0.00000  Uiso   1.00
C207   C     0.42593   0.43640   0.29007   0.00000  Uiso   1.00
H208   H     0.31060   0.46521   0.28062   0.00000  Uiso   1.00
H209   H     0.28634   0.36000   0.12115   0.00000  Uiso   1.00
H210   H     0.28002   0.47735   0.47599   0.00000  Uiso   1.00
H211   H     0.36029   0.58215   0.23586   0.00000  Uiso   1.00
H212   H     0.26754   0.20573   0.95847   0.00000  Uiso   1.00
H213   H     0.25422   0.45319   0.70667   0.00000  Uiso   1.00
H214   H     0.42348   0.67419   0.20033   0.00000  Uiso   1.00
H215   H     0.37301   0.17532   0.38926   0.00000  Uiso   1.00
H216   H     0.35218   0.05421   0.23574   0.00000  Uiso   1.00
H217   H     0.34586   0.17156   0.59059   0.00000  Uiso   1.00
H218   H     0.42613   0.27636   0.35046   0.00000  Uiso   1.00
H219   H     0.32097   0.95753   0.05148   0.00000  Uiso   1.00
H220   H     0.30766   0.20500   0.79969   0.00000  Uiso   1.00
H221   H     0.47692   0.42599   0.29334   0.00000  Uiso   1.00
O222   O     0.27941   0.00718   0.90205   0.00000  Uiso   1.00
O223   O     0.26195   0.33185   0.88367   0.00000  Uiso   1.00
O224   O     0.48402   0.62179   0.21935   0.00000  Uiso   1.00
N225   N     0.28298   0.16395   0.00141   0.00000  Uiso   1.00
N226   N     0.27052   0.39529   0.70094   0.00000  Uiso   1.00
N227   N     0.42877   0.60192   0.22757   0.00000  Uiso   1.00
N228   N     0.31173   0.03039   0.05146   0.00000  Uiso   1.00
N229   N     0.29928   0.26174   0.75099   0.00000  Uiso   1.00
N230   N     0.45752   0.46836   0.27762   0.00000  Uiso   1.00
C231   C     0.67173   0.59808   0.22093   0.00000  Uiso   1.00
C232   C     0.67632   0.69573   0.29198   0.00000  Uiso   1.00
C233   C     0.69632   0.70369   0.37950   0.00000  Uiso   1.00
C234   C     0.69717   0.79982   0.43409   0.00000  Uiso   1.00
C235   C     0.70712   0.93853   0.54923   0.00000  Uiso   1.00
C236   C     0.67944   0.63130   0.09945   0.00000  Uiso   1.00
C237   C     0.70205   0.58507   0.02510   0.00000  Uiso   1.00
C238   C     0.70551   0.62695   0.91762   0.00000  Uiso   1.00
C239   C     0.72029   0.66558   0.73384   0.00000  Uiso   1.00
C240   C     0.63610   0.57449   0.23113   0.00000  Uiso   1.00
C241   C     0.62226   0.48048   0.26746   0.00000  Uiso   1.00
C242   C     0.58923   0.47451   0.27082   0.00000  Uiso   1.00
C243   C     0.53672   0.42493   0.29148   0.00000  Uiso   1.00
C244   C     0.63768   0.75463   0.16225   0.00000  Uiso   1.00
C245   C     0.65783   0.78077   0.26011   0.00000  Uiso   1.00
C246   C     0.65865   0.87691   0.31459   0.00000  Uiso   1.00
C247   C     0.67864   0.88500   0.40217   0.00000  Uiso   1.00
C248   C     0.66095   0.71633   0.06758   0.00000  Uiso   1.00
C249   C     0.66438   0.75828   0.96019   0.00000  Uiso   1.00
C250   C     0.68699   0.71213   0.88570   0.00000  Uiso   1.00
C251   C     0.61760   0.65952   0.19926   0.00000  Uiso   1.00
C252   C     0.58459   0.65370   0.20256   0.00000  Uiso   1.00
C253   C     0.57071   0.55970   0.23889   0.00000  Uiso   1.00
H254   H     0.68613   0.53187   0.24573   0.00000  Uiso   1.00
H255   H     0.71063   0.63787   0.40413   0.00000  Uiso   1.00
H256   H     0.71635   0.51926   0.04978   0.00000  Uiso   1.00
H257   H     0.63658   0.41469   0.29211   0.00000  Uiso   1.00
H258   H     0.72964   0.79290   0.56566   0.00000  Uiso   1.00
H259   H     0.74171   0.54278   0.81850   0.00000  Uiso   1.00
H260   H     0.57349   0.32227   0.32949   0.00000  Uiso   1.00
H261   H     0.62328   0.82084   0.13744   0.00000  Uiso   1.00
H262   H     0.64433   0.94270   0.28991   0.00000  Uiso   1.00
H263   H     0.65006   0.82408   0.93556   0.00000  Uiso   1.00
H264   H     0.57029   0.71952   0.17789   0.00000  Uiso   1.00
H265   H     0.67584   0.04031   0.47295   0.00000  Uiso   1.00
H266   H     0.68790   0.79018   0.72578   0.00000  Uiso   1.00
H267   H     0.51969   0.56968   0.23679   0.00000  Uiso   1.00
O268   O     0.71773   0.99156   0.62153   0.00000  Uiso   1.00
O269   O     0.73356   0.66340   0.64128   0.00000  Uiso   1.00
O270   O     0.51286   0.37410   0.31170   0.00000  Uiso   1.00
N271   N     0.71409   0.83440   0.52293   0.00000  Uiso   1.00
N272   N     0.72537   0.60056   0.82438   0.00000  Uiso   1.00
N273   N     0.56810   0.39439   0.30210   0.00000  Uiso   1.00
N274   N     0.68513   0.96753   0.47305   0.00000  Uiso   1.00
N275   N     0.69642   0.73369   0.77450   0.00000  Uiso   1.00
N276   N     0.53915   0.52752   0.25221   0.00000  Uiso   1.00
C277   C     0.82490   0.89880   0.30550   0.00000  Uiso   1.00
C278   C     0.82037   0.80144   0.23392   0.00000  Uiso   1.00
C279   C     0.80055   0.79397   0.14586   0.00000  Uiso   1.00
C280   C     0.79974   0.69806   0.09083   0.00000  Uiso   1.00
C281   C     0.78991   0.55985   0.97485   0.00000  Uiso   1.00
C282   C     0.81694   0.86519   0.42671   0.00000  Uiso   1.00
C283   C     0.79423   0.91133   0.50075   0.00000  Uiso   1.00
C284   C     0.79053   0.86909   0.60802   0.00000  Uiso   1.00
C285   C     0.77538   0.82990   0.79137   0.00000  Uiso   1.00
C286   C     0.86055   0.92213   0.29623   0.00000  Uiso   1.00
C287   C     0.87451   0.01616   0.26059   0.00000  Uiso   1.00
C288   C     0.90753   0.02186   0.25804   0.00000  Uiso   1.00
C289   C     0.96010   0.07108   0.23881   0.00000  Uiso   1.00
C290   C     0.85871   0.74174   0.36437   0.00000  Uiso   1.00
C291   C     0.83874   0.71613   0.26590   0.00000  Uiso   1.00
C292   C     0.83796   0.62021   0.21098   0.00000  Uiso   1.00
C293   C     0.81814   0.61260   0.12285   0.00000  Uiso   1.00
C294   C     0.83530   0.77989   0.45868   0.00000  Uiso   1.00
C295   C     0.83164   0.73757   0.56587   0.00000  Uiso   1.00
C296   C     0.80893   0.78363   0.64005   0.00000  Uiso   1.00
C297   C     0.87892   0.83682   0.32820   0.00000  Uiso   1.00
C298   C     0.91192   0.84239   0.32571   0.00000  Uiso   1.00
C299   C     0.92593   0.93640   0.29007   0.00000  Uiso   1.00
H300   H     0.81060   0.96521   0.28062   0.00000  Uiso   1.00
H301   H     0.78634   0.86000   0.12115   0.00000  Uiso   1.00
H302   H     0.78002   0.97735   0.47599   0.00000  Uiso   1.00
H303   H     0.86029   0.08215   0.23586   0.00000  Uiso   1.00
H304   H     0.76754   0.70573   0.95847   0.00000  Uiso   1.00
H305   H     0.75422   0.95319   0.70667   0.00000  Uiso   1.00
H306   H     0.92348   0.17419   0.20033   0.00000  Uiso   1.00
H307   H     0.87301   0.67532   0.38926   0.00000  Uiso   1.00
H308   H     0.85218   0.55421   0.23574   0.00000  Uiso   1.00
H309   H     0.84586   0.67156   0.59059   0.00000  Uiso   1.00
H310   H     0.92613   0.77636   0.35046   0.00000  Uiso   1.00
H311   H     0.82097   0.45753   0.05148   0.00000  Uiso   1.00
H312   H     0.80766   0.70500   0.79969   0.00000  Uiso   1.00
H313   H     0.97692   0.92599   0.29334   0.00000  Uiso   1.00
O314   O     0.77941   0.50718   0.90205   0.00000  Uiso   1.00
O315   O     0.76195   0.83185   0.88367   0.00000  Uiso   1.00
O316   O     0.98402   0.12179   0.21935   0.00000  Uiso   1.00
N317   N     0.78298   0.66395   0.00141   0.00000  Uiso   1.00
N318   N     0.77052   0.89529   0.70094   0.00000  Uiso   1.00
N319   N     0.92877   0.10192   0.22757   0.00000  Uiso   1.00
N320   N     0.81173   0.53039   0.05146   0.00000  Uiso   1.00
N321   N     0.79928   0.76174   0.75099   0.00000  Uiso   1.00
N322   N     0.95752   0.96836   0.27762   0.00000  Uiso   1.00
C323   C     0.17173   0.09808   0.22093   0.00000  Uiso   1.00
C324   C     0.17632   0.19573   0.29198   0.00000  Uiso   1.00
C325   C     0.19632   0.20369   0.37950   0.00000  Uiso   1.00
C326   C     0.19717   0.29982   0.43409   0.00000  Uiso   1.00
C327   C     0.20712   0.43853   0.54923   0.00000  Uiso   1.00
C328   C     0.17944   0.13130   0.09945   0.00000  Uiso   1.00
C329   C     0.20205   0.08507   0.02510   0.00000  Uiso   1.00
C330   C     0.20551   0.12695   0.91762   0.00000  Uiso   1.00
C331   C     0.22029   0.16558   0.73384   0.00000  Uiso   1.00
C332   C     0.13610   0.07449   0.23113   0.00000  Uiso   1.00
C333   C     0.12226   0.98048   0.26746   0.00000  Uiso   1.00
C334   C     0.08923   0.97451   0.27082   0.00000  Uiso   1.00
C335   C     0.03672   0.92493   0.29148   0.00000  Uiso   1.00
C336   C     0.13768   0.25463   0.16225   0.00000  Uiso   1.00
C337   C     0.15783   0.28077   0.26011   0.00000  Uiso   1.00
C338   C     0.15865   0.37691   0.31459   0.00000  Uiso   1.00
C339   C     0.17864   0.38500   0.40217   0.00000  Uiso   1.00
C340   C     0.16095   0.21633   0.06758   0.00000  Uiso   1.00
C341   C     0.16438   0.25828   0.96019   0.00000  Uiso   1.00
C342   C     0.18699   0.21213   0.88570   0.00000  Uiso   1.00
C343   C     0.11760   0.15952   0.19926   0.00000  Uiso   1.00
C344   C     0.08459   0.15370   0.20256   0.00000  Uiso   1.00
C345   C     0.07071   0.05970   0.23889   0.00000  Uiso   1.00
H346   H     0.18613   0.03187   0.24573   0.00000  Uiso   1.00
H347   H     0.21063   0.13787   0.40413   0.00000  Uiso   1.00
H348   H     0.21635   0.01926   0.04978   0.00000  Uiso   1.00
H349   H     0.13658   0.91469   0.29211   0.00000  Uiso   1.00
H350   H     0.22964   0.29290   0.56566   0.00000  Uiso   1.00
H351   H     0.24171   0.04278   0.81850   0.00000  Uiso   1.00
H352   H     0.07349   0.82227   0.32949   0.00000  Uiso   1.00
H353   H     0.12328   0.32084   0.13744   0.00000  Uiso   1.00
H354   H     0.14433   0.44270   0.28991   0.00000  Uiso   1.00
H355   H     0.15006   0.32408   0.93556   0.00000  Uiso   1.00
H356   H     0.07029   0.21952   0.17789   0.00000  Uiso   1.00
H357   H     0.17584   0.54031   0.47295   0.00000  Uiso   1.00
H358   H     0.18790   0.29018   0.72578   0.00000  Uiso   1.00
H359   H     0.01969   0.06968   0.23679   0.00000  Uiso   1.00
O360   O     0.21773   0.49156   0.62153   0.00000  Uiso   1.00
O361   O     0.23356   0.16340   0.64128   0.00000  Uiso   1.00
O362   O     0.01286   0.87410   0.31170   0.00000  Uiso   1.00
N363   N     0.21409   0.33440   0.52293   0.00000  Uiso   1.00
N364   N     0.22537   0.10056   0.82438   0.00000  Uiso   1.00
N365   N     0.06810   0.89439   0.30210   0.00000  Uiso   1.00
N366   N     0.18513   0.46753   0.47305   0.00000  Uiso   1.00
N367   N     0.19642   0.23369   0.77450   0.00000  Uiso   1.00
N368   N     0.03915   0.02752   0.25221   0.00000  Uiso   1.00
