data_job_05469
_audit_creation_date              2018-12-19
_audit_creation_method            'Materials Studio'
_symmetry_space_group_name_H-M    'P1'
_symmetry_Int_Tables_number       1
_symmetry_cell_setting            triclinic
loop_
_symmetry_equiv_pos_as_xyz
  x,y,z
_cell_length_a                    15.5333
_cell_length_b                    9.6300
_cell_length_c                    23.8770
_cell_angle_alpha                 90.0000
_cell_angle_beta                  136.3244
_cell_angle_gamma                 90.0000
loop_
_atom_site_label
_atom_site_type_symbol
_atom_site_fract_x
_atom_site_fract_y
_atom_site_fract_z
_atom_site_U_iso_or_equiv
_atom_site_adp_type
_atom_site_occupancy
C1     C     0.28593   0.39854   0.85647   0.00000  Uiso   1.00
C2     C     0.30236   0.24171   0.85936   0.00000  Uiso   1.00
C3     C     0.41294   0.17345   0.89904   0.00000  Uiso   1.00
C4     C     0.40862   0.02949   0.89447   0.00000  Uiso   1.00
C5     C     0.45100   0.79707   0.90542   0.00000  Uiso   1.00
C6     C     0.18333   0.43723   0.76683   0.00000  Uiso   1.00
C7     C     0.19383   0.53337   0.72873   0.00000  Uiso   1.00
C8     C     0.08931   0.55401   0.64628   0.00000  Uiso   1.00
C9     C     0.94687   0.62521   0.51359   0.00000  Uiso   1.00
C10    C     0.23209   0.42468   0.88930   0.00000  Uiso   1.00
C11    C     0.28356   0.51030   0.95416   0.00000  Uiso   1.00
C12    C     0.22008   0.52040   0.97479   0.00000  Uiso   1.00
C13    C     0.15334   0.57211   0.03225   0.00000  Uiso   1.00
C14    C     0.08162   0.26427   0.77779   0.00000  Uiso   1.00
C15    C     0.19138   0.16878   0.81662   0.00000  Uiso   1.00
C16    C     0.18690   0.02489   0.81199   0.00000  Uiso   1.00
C17    C     0.29746   0.95643   0.85166   0.00000  Uiso   1.00
C18    C     0.07236   0.36430   0.72410   0.00000  Uiso   1.00
C19    C     0.96780   0.38482   0.64168   0.00000  Uiso   1.00
C20    C     0.97814   0.48096   0.60346   0.00000  Uiso   1.00
C21    C     0.12112   0.35175   0.84656   0.00000  Uiso   1.00
C22    C     0.05753   0.36173   0.86710   0.00000  Uiso   1.00
C23    C     0.10890   0.44734   0.93198   0.00000  Uiso   1.00
H24    H     0.37232   0.45533   0.88974   0.00000  Uiso   1.00
H25    H     0.49879   0.22992   0.93211   0.00000  Uiso   1.00
H26    H     0.27972   0.58980   0.76183   0.00000  Uiso   1.00
H27    H     0.36944   0.56672   0.98721   0.00000  Uiso   1.00
H28    H     0.59007   0.94786   0.96020   0.00000  Uiso   1.00
H29    H     0.12813   0.70672   0.60116   0.00000  Uiso   1.00
H30    H     0.31731   0.65805   0.07643   0.00000  Uiso   1.00
H31    H     0.99523   0.20750   0.74451   0.00000  Uiso   1.00
H32    H     0.10101   0.96848   0.77891   0.00000  Uiso   1.00
H33    H     0.88194   0.32837   0.60862   0.00000  Uiso   1.00
H34    H     0.97166   0.30528   0.83401   0.00000  Uiso   1.00
H35    H     0.26721   0.73567   0.83585   0.00000  Uiso   1.00
H36    H     0.80527   0.49454   0.47681   0.00000  Uiso   1.00
H37    H     0.99446   0.44586   0.95209   0.00000  Uiso   1.00
O38    O     0.50502   0.68901   0.92325   0.00000  Uiso   1.00
O39    O     0.89897   0.68462   0.45221   0.00000  Uiso   1.00
O40    O     0.14719   0.62076   0.07576   0.00000  Uiso   1.00
N41    N     0.49957   0.93072   0.92623   0.00000  Uiso   1.00
N42    N     0.06769   0.64019   0.59055   0.00000  Uiso   1.00
N43    N     0.24455   0.59472   0.03487   0.00000  Uiso   1.00
N44    N     0.32585   0.81654   0.85932   0.00000  Uiso   1.00
N45    N     0.89396   0.52601   0.52364   0.00000  Uiso   1.00
N46    N     0.07082   0.48054   0.96797   0.00000  Uiso   1.00
C47    C     0.71407   0.89854   0.64353   0.00000  Uiso   1.00
C48    C     0.69764   0.74171   0.64064   0.00000  Uiso   1.00
C49    C     0.58706   0.67345   0.60096   0.00000  Uiso   1.00
C50    C     0.59138   0.52949   0.60553   0.00000  Uiso   1.00
C51    C     0.54900   0.29707   0.59458   0.00000  Uiso   1.00
C52    C     0.81667   0.93723   0.73317   0.00000  Uiso   1.00
C53    C     0.80617   0.03337   0.77127   0.00000  Uiso   1.00
C54    C     0.91069   0.05401   0.85372   0.00000  Uiso   1.00
C55    C     0.05313   0.12521   0.98641   0.00000  Uiso   1.00
C56    C     0.76791   0.92468   0.61070   0.00000  Uiso   1.00
C57    C     0.71644   0.01030   0.54584   0.00000  Uiso   1.00
C58    C     0.77992   0.02040   0.52521   0.00000  Uiso   1.00
C59    C     0.84666   0.07211   0.46775   0.00000  Uiso   1.00
C60    C     0.91838   0.76427   0.72221   0.00000  Uiso   1.00
C61    C     0.80862   0.66878   0.68338   0.00000  Uiso   1.00
C62    C     0.81310   0.52489   0.68801   0.00000  Uiso   1.00
C63    C     0.70254   0.45643   0.64834   0.00000  Uiso   1.00
C64    C     0.92764   0.86430   0.77590   0.00000  Uiso   1.00
C65    C     0.03220   0.88482   0.85832   0.00000  Uiso   1.00
C66    C     0.02186   0.98096   0.89654   0.00000  Uiso   1.00
C67    C     0.87888   0.85175   0.65344   0.00000  Uiso   1.00
C68    C     0.94247   0.86173   0.63290   0.00000  Uiso   1.00
C69    C     0.89110   0.94734   0.56802   0.00000  Uiso   1.00
H70    H     0.62768   0.95533   0.61026   0.00000  Uiso   1.00
H71    H     0.50121   0.72992   0.56789   0.00000  Uiso   1.00
H72    H     0.72028   0.08980   0.73817   0.00000  Uiso   1.00
H73    H     0.63056   0.06672   0.51279   0.00000  Uiso   1.00
H74    H     0.40993   0.44786   0.53980   0.00000  Uiso   1.00
H75    H     0.87187   0.20672   0.89884   0.00000  Uiso   1.00
H76    H     0.68269   0.15805   0.42357   0.00000  Uiso   1.00
H77    H     0.00477   0.70750   0.75549   0.00000  Uiso   1.00
H78    H     0.89899   0.46848   0.72109   0.00000  Uiso   1.00
H79    H     0.11806   0.82837   0.89138   0.00000  Uiso   1.00
H80    H     0.02834   0.80528   0.66599   0.00000  Uiso   1.00
H81    H     0.73279   0.23567   0.66415   0.00000  Uiso   1.00
H82    H     0.19473   0.99454   0.02319   0.00000  Uiso   1.00
H83    H     0.00554   0.94586   0.54791   0.00000  Uiso   1.00
O84    O     0.49498   0.18901   0.57675   0.00000  Uiso   1.00
O85    O     0.10103   0.18462   0.04779   0.00000  Uiso   1.00
O86    O     0.85281   0.12076   0.42424   0.00000  Uiso   1.00
N87    N     0.50043   0.43072   0.57377   0.00000  Uiso   1.00
N88    N     0.93231   0.14019   0.90945   0.00000  Uiso   1.00
N89    N     0.75545   0.09472   0.46513   0.00000  Uiso   1.00
N90    N     0.67415   0.31654   0.64068   0.00000  Uiso   1.00
N91    N     0.10604   0.02601   0.97636   0.00000  Uiso   1.00
N92    N     0.92918   0.98054   0.53203   0.00000  Uiso   1.00
C93    C     0.71407   0.60146   0.14353   0.00000  Uiso   1.00
C94    C     0.69764   0.75829   0.14064   0.00000  Uiso   1.00
C95    C     0.58706   0.82655   0.10096   0.00000  Uiso   1.00
C96    C     0.59138   0.97051   0.10553   0.00000  Uiso   1.00
C97    C     0.54900   0.20293   0.09458   0.00000  Uiso   1.00
C98    C     0.81667   0.56277   0.23317   0.00000  Uiso   1.00
C99    C     0.80617   0.46663   0.27127   0.00000  Uiso   1.00
C100   C     0.91069   0.44599   0.35372   0.00000  Uiso   1.00
C101   C     0.05313   0.37479   0.48641   0.00000  Uiso   1.00
C102   C     0.76791   0.57532   0.11070   0.00000  Uiso   1.00
C103   C     0.71644   0.48970   0.04584   0.00000  Uiso   1.00
C104   C     0.77992   0.47960   0.02521   0.00000  Uiso   1.00
C105   C     0.84666   0.42789   0.96775   0.00000  Uiso   1.00
C106   C     0.91838   0.73573   0.22221   0.00000  Uiso   1.00
C107   C     0.80862   0.83122   0.18338   0.00000  Uiso   1.00
C108   C     0.81310   0.97511   0.18801   0.00000  Uiso   1.00
C109   C     0.70254   0.04357   0.14834   0.00000  Uiso   1.00
C110   C     0.92764   0.63570   0.27590   0.00000  Uiso   1.00
C111   C     0.03220   0.61518   0.35832   0.00000  Uiso   1.00
C112   C     0.02186   0.51904   0.39654   0.00000  Uiso   1.00
C113   C     0.87888   0.64825   0.15344   0.00000  Uiso   1.00
C114   C     0.94247   0.63827   0.13290   0.00000  Uiso   1.00
C115   C     0.89110   0.55266   0.06802   0.00000  Uiso   1.00
H116   H     0.62768   0.54467   0.11026   0.00000  Uiso   1.00
H117   H     0.50121   0.77008   0.06789   0.00000  Uiso   1.00
H118   H     0.72028   0.41020   0.23817   0.00000  Uiso   1.00
H119   H     0.63056   0.43328   0.01279   0.00000  Uiso   1.00
H120   H     0.40993   0.05214   0.03980   0.00000  Uiso   1.00
H121   H     0.87187   0.29328   0.39884   0.00000  Uiso   1.00
H122   H     0.68269   0.34195   0.92357   0.00000  Uiso   1.00
H123   H     0.00477   0.79250   0.25549   0.00000  Uiso   1.00
H124   H     0.89899   0.03152   0.22109   0.00000  Uiso   1.00
H125   H     0.11806   0.67163   0.39138   0.00000  Uiso   1.00
H126   H     0.02834   0.69472   0.16599   0.00000  Uiso   1.00
H127   H     0.73279   0.26433   0.16415   0.00000  Uiso   1.00
H128   H     0.19473   0.50546   0.52319   0.00000  Uiso   1.00
H129   H     0.00554   0.55414   0.04791   0.00000  Uiso   1.00
O130   O     0.49498   0.31099   0.07675   0.00000  Uiso   1.00
O131   O     0.10103   0.31538   0.54779   0.00000  Uiso   1.00
O132   O     0.85281   0.37924   0.92424   0.00000  Uiso   1.00
N133   N     0.50043   0.06928   0.07377   0.00000  Uiso   1.00
N134   N     0.93231   0.35981   0.40945   0.00000  Uiso   1.00
N135   N     0.75545   0.40528   0.96513   0.00000  Uiso   1.00
N136   N     0.67415   0.18346   0.14068   0.00000  Uiso   1.00
N137   N     0.10604   0.47399   0.47636   0.00000  Uiso   1.00
N138   N     0.92918   0.51946   0.03203   0.00000  Uiso   1.00
C139   C     0.28593   0.10146   0.35647   0.00000  Uiso   1.00
C140   C     0.30236   0.25829   0.35936   0.00000  Uiso   1.00
C141   C     0.41294   0.32655   0.39904   0.00000  Uiso   1.00
C142   C     0.40862   0.47051   0.39447   0.00000  Uiso   1.00
C143   C     0.45100   0.70293   0.40542   0.00000  Uiso   1.00
C144   C     0.18333   0.06277   0.26683   0.00000  Uiso   1.00
C145   C     0.19383   0.96663   0.22873   0.00000  Uiso   1.00
C146   C     0.08931   0.94599   0.14628   0.00000  Uiso   1.00
C147   C     0.94687   0.87479   0.01359   0.00000  Uiso   1.00
C148   C     0.23209   0.07532   0.38930   0.00000  Uiso   1.00
C149   C     0.28356   0.98970   0.45416   0.00000  Uiso   1.00
C150   C     0.22008   0.97960   0.47479   0.00000  Uiso   1.00
C151   C     0.15334   0.92789   0.53225   0.00000  Uiso   1.00
C152   C     0.08162   0.23573   0.27779   0.00000  Uiso   1.00
C153   C     0.19138   0.33122   0.31662   0.00000  Uiso   1.00
C154   C     0.18690   0.47511   0.31199   0.00000  Uiso   1.00
C155   C     0.29746   0.54357   0.35166   0.00000  Uiso   1.00
C156   C     0.07236   0.13570   0.22410   0.00000  Uiso   1.00
C157   C     0.96780   0.11518   0.14168   0.00000  Uiso   1.00
C158   C     0.97814   0.01904   0.10346   0.00000  Uiso   1.00
C159   C     0.12112   0.14825   0.34656   0.00000  Uiso   1.00
C160   C     0.05753   0.13827   0.36710   0.00000  Uiso   1.00
C161   C     0.10890   0.05266   0.43198   0.00000  Uiso   1.00
H162   H     0.37232   0.04467   0.38974   0.00000  Uiso   1.00
H163   H     0.49879   0.27008   0.43211   0.00000  Uiso   1.00
H164   H     0.27972   0.91020   0.26183   0.00000  Uiso   1.00
H165   H     0.36944   0.93328   0.48721   0.00000  Uiso   1.00
H166   H     0.59007   0.55214   0.46020   0.00000  Uiso   1.00
H167   H     0.12813   0.79328   0.10116   0.00000  Uiso   1.00
H168   H     0.31731   0.84195   0.57643   0.00000  Uiso   1.00
H169   H     0.99523   0.29250   0.24451   0.00000  Uiso   1.00
H170   H     0.10101   0.53152   0.27891   0.00000  Uiso   1.00
H171   H     0.88194   0.17163   0.10862   0.00000  Uiso   1.00
H172   H     0.97166   0.19472   0.33401   0.00000  Uiso   1.00
H173   H     0.26721   0.76433   0.33585   0.00000  Uiso   1.00
H174   H     0.80527   0.00546   0.97681   0.00000  Uiso   1.00
H175   H     0.99446   0.05414   0.45209   0.00000  Uiso   1.00
O176   O     0.50502   0.81099   0.42325   0.00000  Uiso   1.00
O177   O     0.89897   0.81538   0.95221   0.00000  Uiso   1.00
O178   O     0.14719   0.87924   0.57576   0.00000  Uiso   1.00
N179   N     0.49957   0.56928   0.42623   0.00000  Uiso   1.00
N180   N     0.06769   0.85981   0.09055   0.00000  Uiso   1.00
N181   N     0.24455   0.90528   0.53487   0.00000  Uiso   1.00
N182   N     0.32585   0.68346   0.35932   0.00000  Uiso   1.00
N183   N     0.89396   0.97399   0.02364   0.00000  Uiso   1.00
N184   N     0.07082   0.01946   0.46797   0.00000  Uiso   1.00
