data_job_03249
_audit_creation_date              2018-12-19
_audit_creation_method            'Materials Studio'
_symmetry_space_group_name_H-M    'P1'
_symmetry_Int_Tables_number       1
_symmetry_cell_setting            triclinic
loop_
_symmetry_equiv_pos_as_xyz
  x,y,z
_cell_length_a                    45.9534
_cell_length_b                    45.9534
_cell_length_c                    6.9667
_cell_angle_alpha                 90.0000
_cell_angle_beta                  90.0000
_cell_angle_gamma                 90.0000
loop_
_atom_site_label
_atom_site_type_symbol
_atom_site_fract_x
_atom_site_fract_y
_atom_site_fract_z
_atom_site_U_iso_or_equiv
_atom_site_adp_type
_atom_site_occupancy
C1     C     0.36031   0.65074   0.88983   0.00000  Uiso   1.00
C2     C     0.33597   0.66968   0.80910   0.00000  Uiso   1.00
C3     C     0.32100   0.69112   0.90880   0.00000  Uiso   1.00
C4     C     0.29947   0.70602   0.80943   0.00000  Uiso   1.00
C5     C     0.26262   0.73638   0.71334   0.00000  Uiso   1.00
C6     C     0.35062   0.61932   0.86031   0.00000  Uiso   1.00
C7     C     0.34798   0.59842   0.00307   0.00000  Uiso   1.00
C8     C     0.33879   0.57094   0.94680   0.00000  Uiso   1.00
C9     C     0.32470   0.52311   0.93019   0.00000  Uiso   1.00
C10    C     0.38638   0.65523   0.75764   0.00000  Uiso   1.00
C11    C     0.41381   0.66452   0.81408   0.00000  Uiso   1.00
C12    C     0.43472   0.66726   0.67138   0.00000  Uiso   1.00
C13    C     0.47616   0.67519   0.49537   0.00000  Uiso   1.00
C14    C     0.34867   0.63908   0.53605   0.00000  Uiso   1.00
C15    C     0.32964   0.66335   0.61694   0.00000  Uiso   1.00
C16    C     0.30813   0.67822   0.51739   0.00000  Uiso   1.00
C17    C     0.29314   0.69968   0.61693   0.00000  Uiso   1.00
C18    C     0.34430   0.61299   0.66816   0.00000  Uiso   1.00
C19    C     0.33511   0.58553   0.61166   0.00000  Uiso   1.00
C20    C     0.33245   0.56459   0.75430   0.00000  Uiso   1.00
C21    C     0.38006   0.64890   0.56548   0.00000  Uiso   1.00
C22    C     0.40093   0.65163   0.42267   0.00000  Uiso   1.00
C23    C     0.42839   0.66092   0.47888   0.00000  Uiso   1.00
H24    H     0.36524   0.65567   0.03943   0.00000  Uiso   1.00
H25    H     0.32590   0.69601   0.05751   0.00000  Uiso   1.00
H26    H     0.35288   0.60333   0.15175   0.00000  Uiso   1.00
H27    H     0.41870   0.66942   0.96279   0.00000  Uiso   1.00
H28    H     0.27950   0.73794   0.99284   0.00000  Uiso   1.00
H29    H     0.33639   0.54251   0.19155   0.00000  Uiso   1.00
H30    H     0.47518   0.68187   0.79309   0.00000  Uiso   1.00
H31    H     0.34375   0.63415   0.38645   0.00000  Uiso   1.00
H32    H     0.30324   0.67332   0.36869   0.00000  Uiso   1.00
H33    H     0.33022   0.58063   0.46295   0.00000  Uiso   1.00
H34    H     0.39603   0.64672   0.27399   0.00000  Uiso   1.00
H35    H     0.26110   0.71952   0.43377   0.00000  Uiso   1.00
H36    H     0.31800   0.52409   0.63249   0.00000  Uiso   1.00
H37    H     0.45678   0.66345   0.23403   0.00000  Uiso   1.00
O38    O     0.24403   0.75487   0.71343   0.00000  Uiso   1.00
O39    O     0.31868   0.49848   0.97413   0.00000  Uiso   1.00
O40    O     0.50076   0.68132   0.45136   0.00000  Uiso   1.00
N41    N     0.28073   0.72823   0.86369   0.00000  Uiso   1.00
N42    N     0.33392   0.54552   0.04948   0.00000  Uiso   1.00
N43    N     0.46368   0.67581   0.67696   0.00000  Uiso   1.00
N44    N     0.27083   0.71832   0.56286   0.00000  Uiso   1.00
N45    N     0.32402   0.53561   0.74865   0.00000  Uiso   1.00
N46    N     0.45378   0.66590   0.37613   0.00000  Uiso   1.00
C47    C     0.63969   0.34926   0.88983   0.00000  Uiso   1.00
C48    C     0.66403   0.33032   0.80910   0.00000  Uiso   1.00
C49    C     0.67900   0.30888   0.90880   0.00000  Uiso   1.00
C50    C     0.70053   0.29398   0.80943   0.00000  Uiso   1.00
C51    C     0.73738   0.26362   0.71334   0.00000  Uiso   1.00
C52    C     0.64938   0.38068   0.86031   0.00000  Uiso   1.00
C53    C     0.65202   0.40158   0.00307   0.00000  Uiso   1.00
C54    C     0.66121   0.42906   0.94680   0.00000  Uiso   1.00
C55    C     0.67530   0.47689   0.93019   0.00000  Uiso   1.00
C56    C     0.61362   0.34477   0.75764   0.00000  Uiso   1.00
C57    C     0.58619   0.33548   0.81408   0.00000  Uiso   1.00
C58    C     0.56528   0.33274   0.67138   0.00000  Uiso   1.00
C59    C     0.52384   0.32481   0.49537   0.00000  Uiso   1.00
C60    C     0.65133   0.36092   0.53605   0.00000  Uiso   1.00
C61    C     0.67036   0.33665   0.61694   0.00000  Uiso   1.00
C62    C     0.69187   0.32178   0.51739   0.00000  Uiso   1.00
C63    C     0.70686   0.30032   0.61693   0.00000  Uiso   1.00
C64    C     0.65570   0.38701   0.66816   0.00000  Uiso   1.00
C65    C     0.66489   0.41447   0.61166   0.00000  Uiso   1.00
C66    C     0.66755   0.43541   0.75430   0.00000  Uiso   1.00
C67    C     0.61994   0.35110   0.56548   0.00000  Uiso   1.00
C68    C     0.59907   0.34837   0.42267   0.00000  Uiso   1.00
C69    C     0.57161   0.33908   0.47888   0.00000  Uiso   1.00
H70    H     0.63476   0.34433   0.03943   0.00000  Uiso   1.00
H71    H     0.67410   0.30399   0.05751   0.00000  Uiso   1.00
H72    H     0.64712   0.39667   0.15175   0.00000  Uiso   1.00
H73    H     0.58130   0.33058   0.96279   0.00000  Uiso   1.00
H74    H     0.72050   0.26206   0.99284   0.00000  Uiso   1.00
H75    H     0.66361   0.45749   0.19155   0.00000  Uiso   1.00
H76    H     0.52482   0.31813   0.79309   0.00000  Uiso   1.00
H77    H     0.65625   0.36585   0.38645   0.00000  Uiso   1.00
H78    H     0.69676   0.32668   0.36869   0.00000  Uiso   1.00
H79    H     0.66978   0.41937   0.46295   0.00000  Uiso   1.00
H80    H     0.60397   0.35328   0.27399   0.00000  Uiso   1.00
H81    H     0.73890   0.28048   0.43377   0.00000  Uiso   1.00
H82    H     0.68200   0.47591   0.63249   0.00000  Uiso   1.00
H83    H     0.54322   0.33655   0.23403   0.00000  Uiso   1.00
O84    O     0.75597   0.24513   0.71343   0.00000  Uiso   1.00
O85    O     0.68132   0.50152   0.97413   0.00000  Uiso   1.00
O86    O     0.49924   0.31868   0.45136   0.00000  Uiso   1.00
N87    N     0.71927   0.27177   0.86369   0.00000  Uiso   1.00
N88    N     0.66608   0.45448   0.04948   0.00000  Uiso   1.00
N89    N     0.53632   0.32419   0.67696   0.00000  Uiso   1.00
N90    N     0.72917   0.28168   0.56286   0.00000  Uiso   1.00
N91    N     0.67598   0.46439   0.74865   0.00000  Uiso   1.00
N92    N     0.54622   0.33410   0.37613   0.00000  Uiso   1.00
C93    C     0.34926   0.36031   0.88983   0.00000  Uiso   1.00
C94    C     0.33032   0.33597   0.80910   0.00000  Uiso   1.00
C95    C     0.30888   0.32100   0.90880   0.00000  Uiso   1.00
C96    C     0.29398   0.29947   0.80943   0.00000  Uiso   1.00
C97    C     0.26362   0.26262   0.71334   0.00000  Uiso   1.00
C98    C     0.38068   0.35062   0.86031   0.00000  Uiso   1.00
C99    C     0.40158   0.34798   0.00307   0.00000  Uiso   1.00
C100   C     0.42906   0.33879   0.94680   0.00000  Uiso   1.00
C101   C     0.47689   0.32470   0.93019   0.00000  Uiso   1.00
C102   C     0.34477   0.38638   0.75764   0.00000  Uiso   1.00
C103   C     0.33548   0.41381   0.81408   0.00000  Uiso   1.00
C104   C     0.33274   0.43472   0.67138   0.00000  Uiso   1.00
C105   C     0.32481   0.47616   0.49537   0.00000  Uiso   1.00
C106   C     0.36092   0.34867   0.53605   0.00000  Uiso   1.00
C107   C     0.33665   0.32964   0.61694   0.00000  Uiso   1.00
C108   C     0.32178   0.30813   0.51739   0.00000  Uiso   1.00
C109   C     0.30032   0.29314   0.61693   0.00000  Uiso   1.00
C110   C     0.38701   0.34430   0.66816   0.00000  Uiso   1.00
C111   C     0.41447   0.33511   0.61166   0.00000  Uiso   1.00
C112   C     0.43541   0.33245   0.75430   0.00000  Uiso   1.00
C113   C     0.35110   0.38006   0.56548   0.00000  Uiso   1.00
C114   C     0.34837   0.40093   0.42267   0.00000  Uiso   1.00
C115   C     0.33908   0.42839   0.47888   0.00000  Uiso   1.00
H116   H     0.34433   0.36524   0.03943   0.00000  Uiso   1.00
H117   H     0.30399   0.32590   0.05751   0.00000  Uiso   1.00
H118   H     0.39667   0.35288   0.15175   0.00000  Uiso   1.00
H119   H     0.33058   0.41870   0.96279   0.00000  Uiso   1.00
H120   H     0.26206   0.27950   0.99284   0.00000  Uiso   1.00
H121   H     0.45749   0.33639   0.19155   0.00000  Uiso   1.00
H122   H     0.31813   0.47518   0.79309   0.00000  Uiso   1.00
H123   H     0.36585   0.34375   0.38645   0.00000  Uiso   1.00
H124   H     0.32668   0.30324   0.36869   0.00000  Uiso   1.00
H125   H     0.41937   0.33022   0.46295   0.00000  Uiso   1.00
H126   H     0.35328   0.39603   0.27399   0.00000  Uiso   1.00
H127   H     0.28048   0.26110   0.43377   0.00000  Uiso   1.00
H128   H     0.47591   0.31800   0.63249   0.00000  Uiso   1.00
H129   H     0.33655   0.45678   0.23403   0.00000  Uiso   1.00
O130   O     0.24513   0.24403   0.71343   0.00000  Uiso   1.00
O131   O     0.50152   0.31868   0.97413   0.00000  Uiso   1.00
O132   O     0.31868   0.50076   0.45136   0.00000  Uiso   1.00
N133   N     0.27177   0.28073   0.86369   0.00000  Uiso   1.00
N134   N     0.45448   0.33392   0.04948   0.00000  Uiso   1.00
N135   N     0.32419   0.46368   0.67696   0.00000  Uiso   1.00
N136   N     0.28168   0.27083   0.56286   0.00000  Uiso   1.00
N137   N     0.46439   0.32402   0.74865   0.00000  Uiso   1.00
N138   N     0.33410   0.45378   0.37613   0.00000  Uiso   1.00
C139   C     0.65074   0.63969   0.88983   0.00000  Uiso   1.00
C140   C     0.66968   0.66403   0.80910   0.00000  Uiso   1.00
C141   C     0.69112   0.67900   0.90880   0.00000  Uiso   1.00
C142   C     0.70602   0.70053   0.80943   0.00000  Uiso   1.00
C143   C     0.73638   0.73738   0.71334   0.00000  Uiso   1.00
C144   C     0.61932   0.64938   0.86031   0.00000  Uiso   1.00
C145   C     0.59842   0.65202   0.00307   0.00000  Uiso   1.00
C146   C     0.57094   0.66121   0.94680   0.00000  Uiso   1.00
C147   C     0.52311   0.67530   0.93019   0.00000  Uiso   1.00
C148   C     0.65523   0.61362   0.75764   0.00000  Uiso   1.00
C149   C     0.66452   0.58619   0.81408   0.00000  Uiso   1.00
C150   C     0.66726   0.56528   0.67138   0.00000  Uiso   1.00
C151   C     0.67519   0.52384   0.49537   0.00000  Uiso   1.00
C152   C     0.63908   0.65133   0.53605   0.00000  Uiso   1.00
C153   C     0.66335   0.67036   0.61694   0.00000  Uiso   1.00
C154   C     0.67822   0.69187   0.51739   0.00000  Uiso   1.00
C155   C     0.69968   0.70686   0.61693   0.00000  Uiso   1.00
C156   C     0.61299   0.65570   0.66816   0.00000  Uiso   1.00
C157   C     0.58553   0.66489   0.61166   0.00000  Uiso   1.00
C158   C     0.56459   0.66755   0.75430   0.00000  Uiso   1.00
C159   C     0.64890   0.61994   0.56548   0.00000  Uiso   1.00
C160   C     0.65163   0.59907   0.42267   0.00000  Uiso   1.00
C161   C     0.66092   0.57161   0.47888   0.00000  Uiso   1.00
H162   H     0.65567   0.63476   0.03943   0.00000  Uiso   1.00
H163   H     0.69601   0.67410   0.05751   0.00000  Uiso   1.00
H164   H     0.60333   0.64712   0.15175   0.00000  Uiso   1.00
H165   H     0.66942   0.58130   0.96279   0.00000  Uiso   1.00
H166   H     0.73794   0.72050   0.99284   0.00000  Uiso   1.00
H167   H     0.54251   0.66361   0.19155   0.00000  Uiso   1.00
H168   H     0.68187   0.52482   0.79309   0.00000  Uiso   1.00
H169   H     0.63415   0.65625   0.38645   0.00000  Uiso   1.00
H170   H     0.67332   0.69676   0.36869   0.00000  Uiso   1.00
H171   H     0.58063   0.66978   0.46295   0.00000  Uiso   1.00
H172   H     0.64672   0.60397   0.27399   0.00000  Uiso   1.00
H173   H     0.71952   0.73890   0.43377   0.00000  Uiso   1.00
H174   H     0.52409   0.68200   0.63249   0.00000  Uiso   1.00
H175   H     0.66345   0.54322   0.23403   0.00000  Uiso   1.00
O176   O     0.75487   0.75597   0.71343   0.00000  Uiso   1.00
O177   O     0.49848   0.68132   0.97413   0.00000  Uiso   1.00
O178   O     0.68132   0.49924   0.45136   0.00000  Uiso   1.00
N179   N     0.72823   0.71927   0.86369   0.00000  Uiso   1.00
N180   N     0.54552   0.66608   0.04948   0.00000  Uiso   1.00
N181   N     0.67581   0.53632   0.67696   0.00000  Uiso   1.00
N182   N     0.71832   0.72917   0.56286   0.00000  Uiso   1.00
N183   N     0.53561   0.67598   0.74865   0.00000  Uiso   1.00
N184   N     0.66590   0.54622   0.37613   0.00000  Uiso   1.00
C185   C     0.86031   0.84926   0.38983   0.00000  Uiso   1.00
C186   C     0.83597   0.83032   0.30910   0.00000  Uiso   1.00
C187   C     0.82100   0.80888   0.40880   0.00000  Uiso   1.00
C188   C     0.79947   0.79398   0.30943   0.00000  Uiso   1.00
C189   C     0.76262   0.76362   0.21334   0.00000  Uiso   1.00
C190   C     0.85062   0.88068   0.36031   0.00000  Uiso   1.00
C191   C     0.84798   0.90158   0.50307   0.00000  Uiso   1.00
C192   C     0.83879   0.92906   0.44680   0.00000  Uiso   1.00
C193   C     0.82470   0.97689   0.43019   0.00000  Uiso   1.00
C194   C     0.88638   0.84477   0.25764   0.00000  Uiso   1.00
C195   C     0.91381   0.83548   0.31408   0.00000  Uiso   1.00
C196   C     0.93472   0.83274   0.17138   0.00000  Uiso   1.00
C197   C     0.97616   0.82481   0.99537   0.00000  Uiso   1.00
C198   C     0.84867   0.86092   0.03605   0.00000  Uiso   1.00
C199   C     0.82964   0.83665   0.11694   0.00000  Uiso   1.00
C200   C     0.80813   0.82178   0.01739   0.00000  Uiso   1.00
C201   C     0.79314   0.80032   0.11693   0.00000  Uiso   1.00
C202   C     0.84430   0.88701   0.16816   0.00000  Uiso   1.00
C203   C     0.83511   0.91447   0.11166   0.00000  Uiso   1.00
C204   C     0.83245   0.93541   0.25430   0.00000  Uiso   1.00
C205   C     0.88006   0.85110   0.06548   0.00000  Uiso   1.00
C206   C     0.90093   0.84837   0.92267   0.00000  Uiso   1.00
C207   C     0.92839   0.83908   0.97888   0.00000  Uiso   1.00
H208   H     0.86524   0.84433   0.53943   0.00000  Uiso   1.00
H209   H     0.82590   0.80399   0.55751   0.00000  Uiso   1.00
H210   H     0.85288   0.89667   0.65175   0.00000  Uiso   1.00
H211   H     0.91870   0.83058   0.46279   0.00000  Uiso   1.00
H212   H     0.77950   0.76206   0.49284   0.00000  Uiso   1.00
H213   H     0.83639   0.95749   0.69155   0.00000  Uiso   1.00
H214   H     0.97518   0.81813   0.29309   0.00000  Uiso   1.00
H215   H     0.84375   0.86585   0.88645   0.00000  Uiso   1.00
H216   H     0.80324   0.82668   0.86869   0.00000  Uiso   1.00
H217   H     0.83022   0.91937   0.96295   0.00000  Uiso   1.00
H218   H     0.89603   0.85328   0.77399   0.00000  Uiso   1.00
H219   H     0.76110   0.78048   0.93377   0.00000  Uiso   1.00
H220   H     0.81800   0.97591   0.13249   0.00000  Uiso   1.00
H221   H     0.95678   0.83655   0.73403   0.00000  Uiso   1.00
O222   O     0.74403   0.74513   0.21343   0.00000  Uiso   1.00
O223   O     0.81868   0.00152   0.47413   0.00000  Uiso   1.00
O224   O     0.00076   0.81868   0.95136   0.00000  Uiso   1.00
N225   N     0.78073   0.77177   0.36369   0.00000  Uiso   1.00
N226   N     0.83392   0.95448   0.54948   0.00000  Uiso   1.00
N227   N     0.96368   0.82419   0.17696   0.00000  Uiso   1.00
N228   N     0.77083   0.78168   0.06286   0.00000  Uiso   1.00
N229   N     0.82402   0.96439   0.24865   0.00000  Uiso   1.00
N230   N     0.95378   0.83410   0.87613   0.00000  Uiso   1.00
C231   C     0.13969   0.15074   0.38983   0.00000  Uiso   1.00
C232   C     0.16403   0.16968   0.30910   0.00000  Uiso   1.00
C233   C     0.17900   0.19112   0.40880   0.00000  Uiso   1.00
C234   C     0.20053   0.20602   0.30943   0.00000  Uiso   1.00
C235   C     0.23738   0.23638   0.21334   0.00000  Uiso   1.00
C236   C     0.14938   0.11932   0.36031   0.00000  Uiso   1.00
C237   C     0.15202   0.09842   0.50307   0.00000  Uiso   1.00
C238   C     0.16121   0.07094   0.44680   0.00000  Uiso   1.00
C239   C     0.17530   0.02311   0.43019   0.00000  Uiso   1.00
C240   C     0.11362   0.15523   0.25764   0.00000  Uiso   1.00
C241   C     0.08619   0.16452   0.31408   0.00000  Uiso   1.00
C242   C     0.06528   0.16726   0.17138   0.00000  Uiso   1.00
C243   C     0.02384   0.17519   0.99537   0.00000  Uiso   1.00
C244   C     0.15133   0.13908   0.03605   0.00000  Uiso   1.00
C245   C     0.17036   0.16335   0.11694   0.00000  Uiso   1.00
C246   C     0.19187   0.17822   0.01739   0.00000  Uiso   1.00
C247   C     0.20686   0.19968   0.11693   0.00000  Uiso   1.00
C248   C     0.15570   0.11299   0.16816   0.00000  Uiso   1.00
C249   C     0.16489   0.08553   0.11166   0.00000  Uiso   1.00
C250   C     0.16755   0.06459   0.25430   0.00000  Uiso   1.00
C251   C     0.11994   0.14890   0.06548   0.00000  Uiso   1.00
C252   C     0.09907   0.15163   0.92267   0.00000  Uiso   1.00
C253   C     0.07161   0.16092   0.97888   0.00000  Uiso   1.00
H254   H     0.13476   0.15567   0.53943   0.00000  Uiso   1.00
H255   H     0.17410   0.19601   0.55751   0.00000  Uiso   1.00
H256   H     0.14712   0.10333   0.65175   0.00000  Uiso   1.00
H257   H     0.08130   0.16942   0.46279   0.00000  Uiso   1.00
H258   H     0.22050   0.23794   0.49284   0.00000  Uiso   1.00
H259   H     0.16361   0.04251   0.69155   0.00000  Uiso   1.00
H260   H     0.02482   0.18187   0.29309   0.00000  Uiso   1.00
H261   H     0.15625   0.13415   0.88645   0.00000  Uiso   1.00
H262   H     0.19676   0.17332   0.86869   0.00000  Uiso   1.00
H263   H     0.16978   0.08063   0.96295   0.00000  Uiso   1.00
H264   H     0.10397   0.14672   0.77399   0.00000  Uiso   1.00
H265   H     0.23890   0.21952   0.93377   0.00000  Uiso   1.00
H266   H     0.18200   0.02409   0.13249   0.00000  Uiso   1.00
H267   H     0.04322   0.16345   0.73403   0.00000  Uiso   1.00
O268   O     0.25597   0.25487   0.21343   0.00000  Uiso   1.00
O269   O     0.18132   0.99848   0.47413   0.00000  Uiso   1.00
O270   O     0.99924   0.18132   0.95136   0.00000  Uiso   1.00
N271   N     0.21927   0.22823   0.36369   0.00000  Uiso   1.00
N272   N     0.16608   0.04552   0.54948   0.00000  Uiso   1.00
N273   N     0.03632   0.17581   0.17696   0.00000  Uiso   1.00
N274   N     0.22917   0.21832   0.06286   0.00000  Uiso   1.00
N275   N     0.17598   0.03561   0.24865   0.00000  Uiso   1.00
N276   N     0.04622   0.16590   0.87613   0.00000  Uiso   1.00
C277   C     0.84926   0.13969   0.38983   0.00000  Uiso   1.00
C278   C     0.83032   0.16403   0.30910   0.00000  Uiso   1.00
C279   C     0.80888   0.17900   0.40880   0.00000  Uiso   1.00
C280   C     0.79398   0.20053   0.30943   0.00000  Uiso   1.00
C281   C     0.76362   0.23738   0.21334   0.00000  Uiso   1.00
C282   C     0.88068   0.14938   0.36031   0.00000  Uiso   1.00
C283   C     0.90158   0.15202   0.50307   0.00000  Uiso   1.00
C284   C     0.92906   0.16121   0.44680   0.00000  Uiso   1.00
C285   C     0.97689   0.17530   0.43019   0.00000  Uiso   1.00
C286   C     0.84477   0.11362   0.25764   0.00000  Uiso   1.00
C287   C     0.83548   0.08619   0.31408   0.00000  Uiso   1.00
C288   C     0.83274   0.06528   0.17138   0.00000  Uiso   1.00
C289   C     0.82481   0.02384   0.99537   0.00000  Uiso   1.00
C290   C     0.86092   0.15133   0.03605   0.00000  Uiso   1.00
C291   C     0.83665   0.17036   0.11694   0.00000  Uiso   1.00
C292   C     0.82178   0.19187   0.01739   0.00000  Uiso   1.00
C293   C     0.80032   0.20686   0.11693   0.00000  Uiso   1.00
C294   C     0.88701   0.15570   0.16816   0.00000  Uiso   1.00
C295   C     0.91447   0.16489   0.11166   0.00000  Uiso   1.00
C296   C     0.93541   0.16755   0.25430   0.00000  Uiso   1.00
C297   C     0.85110   0.11994   0.06548   0.00000  Uiso   1.00
C298   C     0.84837   0.09907   0.92267   0.00000  Uiso   1.00
C299   C     0.83908   0.07161   0.97888   0.00000  Uiso   1.00
H300   H     0.84433   0.13476   0.53943   0.00000  Uiso   1.00
H301   H     0.80399   0.17410   0.55751   0.00000  Uiso   1.00
H302   H     0.89667   0.14712   0.65175   0.00000  Uiso   1.00
H303   H     0.83058   0.08130   0.46279   0.00000  Uiso   1.00
H304   H     0.76206   0.22050   0.49284   0.00000  Uiso   1.00
H305   H     0.95749   0.16361   0.69155   0.00000  Uiso   1.00
H306   H     0.81813   0.02482   0.29309   0.00000  Uiso   1.00
H307   H     0.86585   0.15625   0.88645   0.00000  Uiso   1.00
H308   H     0.82668   0.19676   0.86869   0.00000  Uiso   1.00
H309   H     0.91937   0.16978   0.96295   0.00000  Uiso   1.00
H310   H     0.85328   0.10397   0.77399   0.00000  Uiso   1.00
H311   H     0.78048   0.23890   0.93377   0.00000  Uiso   1.00
H312   H     0.97591   0.18200   0.13249   0.00000  Uiso   1.00
H313   H     0.83655   0.04322   0.73403   0.00000  Uiso   1.00
O314   O     0.74513   0.25597   0.21343   0.00000  Uiso   1.00
O315   O     0.00152   0.18132   0.47413   0.00000  Uiso   1.00
O316   O     0.81868   0.99924   0.95136   0.00000  Uiso   1.00
N317   N     0.77177   0.21927   0.36369   0.00000  Uiso   1.00
N318   N     0.95448   0.16608   0.54948   0.00000  Uiso   1.00
N319   N     0.82419   0.03632   0.17696   0.00000  Uiso   1.00
N320   N     0.78168   0.22917   0.06286   0.00000  Uiso   1.00
N321   N     0.96439   0.17598   0.24865   0.00000  Uiso   1.00
N322   N     0.83410   0.04622   0.87613   0.00000  Uiso   1.00
C323   C     0.15074   0.86031   0.38983   0.00000  Uiso   1.00
C324   C     0.16968   0.83597   0.30910   0.00000  Uiso   1.00
C325   C     0.19112   0.82100   0.40880   0.00000  Uiso   1.00
C326   C     0.20602   0.79947   0.30943   0.00000  Uiso   1.00
C327   C     0.23638   0.76262   0.21334   0.00000  Uiso   1.00
C328   C     0.11932   0.85062   0.36031   0.00000  Uiso   1.00
C329   C     0.09842   0.84798   0.50307   0.00000  Uiso   1.00
C330   C     0.07094   0.83879   0.44680   0.00000  Uiso   1.00
C331   C     0.02311   0.82470   0.43019   0.00000  Uiso   1.00
C332   C     0.15523   0.88638   0.25764   0.00000  Uiso   1.00
C333   C     0.16452   0.91381   0.31408   0.00000  Uiso   1.00
C334   C     0.16726   0.93472   0.17138   0.00000  Uiso   1.00
C335   C     0.17519   0.97616   0.99537   0.00000  Uiso   1.00
C336   C     0.13908   0.84867   0.03605   0.00000  Uiso   1.00
C337   C     0.16335   0.82964   0.11694   0.00000  Uiso   1.00
C338   C     0.17822   0.80813   0.01739   0.00000  Uiso   1.00
C339   C     0.19968   0.79314   0.11693   0.00000  Uiso   1.00
C340   C     0.11299   0.84430   0.16816   0.00000  Uiso   1.00
C341   C     0.08553   0.83511   0.11166   0.00000  Uiso   1.00
C342   C     0.06459   0.83245   0.25430   0.00000  Uiso   1.00
C343   C     0.14890   0.88006   0.06548   0.00000  Uiso   1.00
C344   C     0.15163   0.90093   0.92267   0.00000  Uiso   1.00
C345   C     0.16092   0.92839   0.97888   0.00000  Uiso   1.00
H346   H     0.15567   0.86524   0.53943   0.00000  Uiso   1.00
H347   H     0.19601   0.82590   0.55751   0.00000  Uiso   1.00
H348   H     0.10333   0.85288   0.65175   0.00000  Uiso   1.00
H349   H     0.16942   0.91870   0.46279   0.00000  Uiso   1.00
H350   H     0.23794   0.77950   0.49284   0.00000  Uiso   1.00
H351   H     0.04251   0.83639   0.69155   0.00000  Uiso   1.00
H352   H     0.18187   0.97518   0.29309   0.00000  Uiso   1.00
H353   H     0.13415   0.84375   0.88645   0.00000  Uiso   1.00
H354   H     0.17332   0.80324   0.86869   0.00000  Uiso   1.00
H355   H     0.08063   0.83022   0.96295   0.00000  Uiso   1.00
H356   H     0.14672   0.89603   0.77399   0.00000  Uiso   1.00
H357   H     0.21952   0.76110   0.93377   0.00000  Uiso   1.00
H358   H     0.02409   0.81800   0.13249   0.00000  Uiso   1.00
H359   H     0.16345   0.95678   0.73403   0.00000  Uiso   1.00
O360   O     0.25487   0.74403   0.21343   0.00000  Uiso   1.00
O361   O     0.99848   0.81868   0.47413   0.00000  Uiso   1.00
O362   O     0.18132   0.00076   0.95136   0.00000  Uiso   1.00
N363   N     0.22823   0.78073   0.36369   0.00000  Uiso   1.00
N364   N     0.04552   0.83392   0.54948   0.00000  Uiso   1.00
N365   N     0.17581   0.96368   0.17696   0.00000  Uiso   1.00
N366   N     0.21832   0.77083   0.06286   0.00000  Uiso   1.00
N367   N     0.03561   0.82402   0.24865   0.00000  Uiso   1.00
N368   N     0.16590   0.95378   0.87613   0.00000  Uiso   1.00
