data_job_04726
_audit_creation_date              2018-12-19
_audit_creation_method            'Materials Studio'
_symmetry_space_group_name_H-M    'P1'
_symmetry_Int_Tables_number       1
_symmetry_cell_setting            triclinic
loop_
_symmetry_equiv_pos_as_xyz
  x,y,z
_cell_length_a                    12.2881
_cell_length_b                    28.4967
_cell_length_c                    16.0051
_cell_angle_alpha                 90.0000
_cell_angle_beta                  90.0000
_cell_angle_gamma                 90.0000
loop_
_atom_site_label
_atom_site_type_symbol
_atom_site_fract_x
_atom_site_fract_y
_atom_site_fract_z
_atom_site_U_iso_or_equiv
_atom_site_adp_type
_atom_site_occupancy
C1     C     0.73324   0.15268   0.64002   0.00000  Uiso   1.00
C2     C     0.68669   0.17264   0.72087   0.00000  Uiso   1.00
C3     C     0.60850   0.20763   0.72662   0.00000  Uiso   1.00
C4     C     0.57666   0.22104   0.80636   0.00000  Uiso   1.00
C5     C     0.49762   0.25523   0.92105   0.00000  Uiso   1.00
C6     C     0.85620   0.15916   0.64565   0.00000  Uiso   1.00
C7     C     0.92053   0.18282   0.58815   0.00000  Uiso   1.00
C8     C     0.03138   0.18487   0.60456   0.00000  Uiso   1.00
C9     C     0.21551   0.19810   0.60244   0.00000  Uiso   1.00
C10    C     0.71335   0.09989   0.64357   0.00000  Uiso   1.00
C11    C     0.65759   0.07371   0.58430   0.00000  Uiso   1.00
C12    C     0.64818   0.02586   0.59894   0.00000  Uiso   1.00
C13    C     0.61051   0.94707   0.59358   0.00000  Uiso   1.00
C14    C     0.81572   0.11425   0.77140   0.00000  Uiso   1.00
C15    C     0.73150   0.15177   0.79223   0.00000  Uiso   1.00
C16    C     0.69976   0.16512   0.87198   0.00000  Uiso   1.00
C17    C     0.62154   0.20013   0.87785   0.00000  Uiso   1.00
C18    C     0.90100   0.13829   0.71701   0.00000  Uiso   1.00
C19    C     0.01179   0.14031   0.73351   0.00000  Uiso   1.00
C20    C     0.07626   0.16396   0.67605   0.00000  Uiso   1.00
C21    C     0.75815   0.07902   0.71493   0.00000  Uiso   1.00
C22    C     0.74884   0.03120   0.72966   0.00000  Uiso   1.00
C23    C     0.69307   0.00495   0.67043   0.00000  Uiso   1.00
H24    H     0.69836   0.16892   0.58446   0.00000  Uiso   1.00
H25    H     0.57386   0.22378   0.67138   0.00000  Uiso   1.00
H26    H     0.88584   0.19896   0.53293   0.00000  Uiso   1.00
H27    H     0.62293   0.08987   0.52909   0.00000  Uiso   1.00
H28    H     0.45561   0.27540   0.79923   0.00000  Uiso   1.00
H29    H     0.11344   0.22306   0.50727   0.00000  Uiso   1.00
H30    H     0.55905   0.99302   0.49916   0.00000  Uiso   1.00
H31    H     0.85060   0.09800   0.82696   0.00000  Uiso   1.00
H32    H     0.73445   0.14897   0.92719   0.00000  Uiso   1.00
H33    H     0.04643   0.12415   0.78873   0.00000  Uiso   1.00
H34    H     0.78352   0.01506   0.78489   0.00000  Uiso   1.00
H35    H     0.58595   0.21469   0.00685   0.00000  Uiso   1.00
H36    H     0.24378   0.16234   0.71489   0.00000  Uiso   1.00
H37    H     0.68939   0.93231   0.70678   0.00000  Uiso   1.00
O38    O     0.44165   0.27986   0.96460   0.00000  Uiso   1.00
O39    O     0.30469   0.21118   0.58155   0.00000  Uiso   1.00
O40    O     0.57734   0.90938   0.57092   0.00000  Uiso   1.00
N41    N     0.50221   0.25411   0.83433   0.00000  Uiso   1.00
N42    N     0.11724   0.20518   0.56138   0.00000  Uiso   1.00
N43    N     0.59895   0.99011   0.55379   0.00000  Uiso   1.00
N44    N     0.57235   0.22144   0.94605   0.00000  Uiso   1.00
N45    N     0.18737   0.17251   0.67310   0.00000  Uiso   1.00
N46    N     0.66909   0.95744   0.66551   0.00000  Uiso   1.00
C47    C     0.69184   0.12242   0.35542   0.00000  Uiso   1.00
C48    C     0.76857   0.14800   0.29598   0.00000  Uiso   1.00
C49    C     0.86262   0.17173   0.31876   0.00000  Uiso   1.00
C50    C     0.92167   0.19286   0.25509   0.00000  Uiso   1.00
C51    C     0.04595   0.23299   0.17550   0.00000  Uiso   1.00
C52    C     0.57965   0.14394   0.34159   0.00000  Uiso   1.00
C53    C     0.51486   0.16424   0.40273   0.00000  Uiso   1.00
C54    C     0.41487   0.18195   0.37745   0.00000  Uiso   1.00
C55    C     0.24580   0.21574   0.36868   0.00000  Uiso   1.00
C56    C     0.68454   0.07211   0.32343   0.00000  Uiso   1.00
C57    C     0.70791   0.03202   0.36929   0.00000  Uiso   1.00
C58    C     0.69621   0.98925   0.32872   0.00000  Uiso   1.00
C59    C     0.69000   0.91153   0.29174   0.00000  Uiso   1.00
C60    C     0.62947   0.11774   0.20183   0.00000  Uiso   1.00
C61    C     0.73469   0.14546   0.21256   0.00000  Uiso   1.00
C62    C     0.79362   0.16655   0.14884   0.00000  Uiso   1.00
C63    C     0.88774   0.19031   0.17152   0.00000  Uiso   1.00
C64    C     0.54577   0.14139   0.25818   0.00000  Uiso   1.00
C65    C     0.44585   0.15907   0.23280   0.00000  Uiso   1.00
C66    C     0.38093   0.17940   0.29387   0.00000  Uiso   1.00
C67    C     0.65067   0.06957   0.24001   0.00000  Uiso   1.00
C68    C     0.63891   0.02685   0.19936   0.00000  Uiso   1.00
C69    C     0.66227   0.98671   0.24515   0.00000  Uiso   1.00
H70    H     0.71820   0.12440   0.42037   0.00000  Uiso   1.00
H71    H     0.88880   0.17369   0.38333   0.00000  Uiso   1.00
H72    H     0.54109   0.16620   0.46728   0.00000  Uiso   1.00
H73    H     0.73412   0.03401   0.43384   0.00000  Uiso   1.00
H74    H     0.06299   0.22724   0.30548   0.00000  Uiso   1.00
H75    H     0.32980   0.21144   0.48250   0.00000  Uiso   1.00
H76    H     0.73684   0.93267   0.41200   0.00000  Uiso   1.00
H77    H     0.60309   0.11576   0.13688   0.00000  Uiso   1.00
H78    H     0.76738   0.16458   0.08429   0.00000  Uiso   1.00
H79    H     0.41966   0.15709   0.16824   0.00000  Uiso   1.00
H80    H     0.61270   0.02490   0.13480   0.00000  Uiso   1.00
H81    H     0.96443   0.21985   0.06277   0.00000  Uiso   1.00
H82    H     0.23123   0.20404   0.23979   0.00000  Uiso   1.00
H83    H     0.63828   0.92528   0.16928   0.00000  Uiso   1.00
O84    O     0.12384   0.25583   0.15465   0.00000  Uiso   1.00
O85    O     0.16192   0.23509   0.38689   0.00000  Uiso   1.00
O86    O     0.69595   0.86935   0.29439   0.00000  Uiso   1.00
N87    N     0.01726   0.21879   0.25558   0.00000  Uiso   1.00
N88    N     0.33177   0.20402   0.42107   0.00000  Uiso   1.00
N89    N     0.71230   0.94340   0.35517   0.00000  Uiso   1.00
N90    N     0.96423   0.21481   0.12497   0.00000  Uiso   1.00
N91    N     0.27874   0.20004   0.29047   0.00000  Uiso   1.00
N92    N     0.65927   0.93942   0.22456   0.00000  Uiso   1.00
C93    C     0.26676   0.84732   0.14002   0.00000  Uiso   1.00
C94    C     0.31331   0.82736   0.22087   0.00000  Uiso   1.00
C95    C     0.39150   0.79237   0.22662   0.00000  Uiso   1.00
C96    C     0.42334   0.77896   0.30636   0.00000  Uiso   1.00
C97    C     0.50238   0.74477   0.42105   0.00000  Uiso   1.00
C98    C     0.14380   0.84084   0.14565   0.00000  Uiso   1.00
C99    C     0.07947   0.81718   0.08815   0.00000  Uiso   1.00
C100   C     0.96862   0.81513   0.10456   0.00000  Uiso   1.00
C101   C     0.78449   0.80190   0.10244   0.00000  Uiso   1.00
C102   C     0.28665   0.90011   0.14357   0.00000  Uiso   1.00
C103   C     0.34241   0.92629   0.08430   0.00000  Uiso   1.00
C104   C     0.35182   0.97414   0.09894   0.00000  Uiso   1.00
C105   C     0.38949   0.05293   0.09358   0.00000  Uiso   1.00
C106   C     0.18428   0.88575   0.27140   0.00000  Uiso   1.00
C107   C     0.26850   0.84823   0.29223   0.00000  Uiso   1.00
C108   C     0.30024   0.83488   0.37198   0.00000  Uiso   1.00
C109   C     0.37846   0.79987   0.37785   0.00000  Uiso   1.00
C110   C     0.09900   0.86171   0.21701   0.00000  Uiso   1.00
C111   C     0.98821   0.85969   0.23351   0.00000  Uiso   1.00
C112   C     0.92374   0.83604   0.17605   0.00000  Uiso   1.00
C113   C     0.24185   0.92098   0.21493   0.00000  Uiso   1.00
C114   C     0.25116   0.96880   0.22966   0.00000  Uiso   1.00
C115   C     0.30693   0.99505   0.17043   0.00000  Uiso   1.00
H116   H     0.30164   0.83108   0.08446   0.00000  Uiso   1.00
H117   H     0.42614   0.77622   0.17138   0.00000  Uiso   1.00
H118   H     0.11416   0.80104   0.03293   0.00000  Uiso   1.00
H119   H     0.37707   0.91013   0.02909   0.00000  Uiso   1.00
H120   H     0.54439   0.72460   0.29923   0.00000  Uiso   1.00
H121   H     0.88656   0.77694   0.00727   0.00000  Uiso   1.00
H122   H     0.44095   0.00698   0.99916   0.00000  Uiso   1.00
H123   H     0.14940   0.90200   0.32696   0.00000  Uiso   1.00
H124   H     0.26555   0.85103   0.42719   0.00000  Uiso   1.00
H125   H     0.95357   0.87585   0.28873   0.00000  Uiso   1.00
H126   H     0.21648   0.98494   0.28489   0.00000  Uiso   1.00
H127   H     0.41405   0.78531   0.50685   0.00000  Uiso   1.00
H128   H     0.75622   0.83766   0.21489   0.00000  Uiso   1.00
H129   H     0.31061   0.06769   0.20678   0.00000  Uiso   1.00
O130   O     0.55835   0.72014   0.46460   0.00000  Uiso   1.00
O131   O     0.69531   0.78882   0.08155   0.00000  Uiso   1.00
O132   O     0.42266   0.09062   0.07092   0.00000  Uiso   1.00
N133   N     0.49779   0.74589   0.33433   0.00000  Uiso   1.00
N134   N     0.88276   0.79482   0.06138   0.00000  Uiso   1.00
N135   N     0.40105   0.00989   0.05379   0.00000  Uiso   1.00
N136   N     0.42765   0.77856   0.44605   0.00000  Uiso   1.00
N137   N     0.81263   0.82749   0.17310   0.00000  Uiso   1.00
N138   N     0.33091   0.04256   0.16551   0.00000  Uiso   1.00
C139   C     0.30816   0.87758   0.85542   0.00000  Uiso   1.00
C140   C     0.23143   0.85200   0.79598   0.00000  Uiso   1.00
C141   C     0.13738   0.82827   0.81876   0.00000  Uiso   1.00
C142   C     0.07833   0.80714   0.75509   0.00000  Uiso   1.00
C143   C     0.95405   0.76701   0.67550   0.00000  Uiso   1.00
C144   C     0.42035   0.85606   0.84159   0.00000  Uiso   1.00
C145   C     0.48514   0.83576   0.90273   0.00000  Uiso   1.00
C146   C     0.58513   0.81805   0.87745   0.00000  Uiso   1.00
C147   C     0.75420   0.78426   0.86868   0.00000  Uiso   1.00
C148   C     0.31546   0.92789   0.82343   0.00000  Uiso   1.00
C149   C     0.29209   0.96798   0.86929   0.00000  Uiso   1.00
C150   C     0.30379   0.01075   0.82872   0.00000  Uiso   1.00
C151   C     0.31000   0.08847   0.79174   0.00000  Uiso   1.00
C152   C     0.37053   0.88226   0.70183   0.00000  Uiso   1.00
C153   C     0.26531   0.85454   0.71256   0.00000  Uiso   1.00
C154   C     0.20638   0.83345   0.64884   0.00000  Uiso   1.00
C155   C     0.11226   0.80969   0.67152   0.00000  Uiso   1.00
C156   C     0.45423   0.85861   0.75818   0.00000  Uiso   1.00
C157   C     0.55415   0.84093   0.73280   0.00000  Uiso   1.00
C158   C     0.61907   0.82060   0.79387   0.00000  Uiso   1.00
C159   C     0.34933   0.93043   0.74001   0.00000  Uiso   1.00
C160   C     0.36109   0.97315   0.69936   0.00000  Uiso   1.00
C161   C     0.33773   0.01329   0.74515   0.00000  Uiso   1.00
H162   H     0.28180   0.87560   0.92037   0.00000  Uiso   1.00
H163   H     0.11120   0.82631   0.88333   0.00000  Uiso   1.00
H164   H     0.45891   0.83380   0.96728   0.00000  Uiso   1.00
H165   H     0.26588   0.96599   0.93384   0.00000  Uiso   1.00
H166   H     0.93701   0.77276   0.80548   0.00000  Uiso   1.00
H167   H     0.67020   0.78856   0.98250   0.00000  Uiso   1.00
H168   H     0.26316   0.06733   0.91200   0.00000  Uiso   1.00
H169   H     0.39691   0.88424   0.63688   0.00000  Uiso   1.00
H170   H     0.23262   0.83542   0.58429   0.00000  Uiso   1.00
H171   H     0.58034   0.84291   0.66824   0.00000  Uiso   1.00
H172   H     0.38730   0.97510   0.63480   0.00000  Uiso   1.00
H173   H     0.03557   0.78015   0.56277   0.00000  Uiso   1.00
H174   H     0.76877   0.79596   0.73979   0.00000  Uiso   1.00
H175   H     0.36172   0.07472   0.66928   0.00000  Uiso   1.00
O176   O     0.87616   0.74417   0.65465   0.00000  Uiso   1.00
O177   O     0.83808   0.76491   0.88689   0.00000  Uiso   1.00
O178   O     0.30405   0.13065   0.79439   0.00000  Uiso   1.00
N179   N     0.98274   0.78121   0.75558   0.00000  Uiso   1.00
N180   N     0.66823   0.79598   0.92107   0.00000  Uiso   1.00
N181   N     0.28770   0.05660   0.85517   0.00000  Uiso   1.00
N182   N     0.03577   0.78519   0.62497   0.00000  Uiso   1.00
N183   N     0.72126   0.79996   0.79047   0.00000  Uiso   1.00
N184   N     0.34073   0.06058   0.72456   0.00000  Uiso   1.00
C185   C     0.23324   0.34732   0.64002   0.00000  Uiso   1.00
C186   C     0.18669   0.32736   0.72087   0.00000  Uiso   1.00
C187   C     0.10850   0.29237   0.72662   0.00000  Uiso   1.00
C188   C     0.07666   0.27896   0.80636   0.00000  Uiso   1.00
C189   C     0.99762   0.24477   0.92105   0.00000  Uiso   1.00
C190   C     0.35620   0.34084   0.64565   0.00000  Uiso   1.00
C191   C     0.42053   0.31718   0.58815   0.00000  Uiso   1.00
C192   C     0.53138   0.31513   0.60456   0.00000  Uiso   1.00
C193   C     0.71551   0.30190   0.60244   0.00000  Uiso   1.00
C194   C     0.21335   0.40011   0.64357   0.00000  Uiso   1.00
C195   C     0.15759   0.42629   0.58430   0.00000  Uiso   1.00
C196   C     0.14818   0.47414   0.59894   0.00000  Uiso   1.00
C197   C     0.11051   0.55293   0.59358   0.00000  Uiso   1.00
C198   C     0.31572   0.38575   0.77140   0.00000  Uiso   1.00
C199   C     0.23150   0.34823   0.79223   0.00000  Uiso   1.00
C200   C     0.19976   0.33488   0.87198   0.00000  Uiso   1.00
C201   C     0.12154   0.29987   0.87785   0.00000  Uiso   1.00
C202   C     0.40100   0.36171   0.71701   0.00000  Uiso   1.00
C203   C     0.51179   0.35969   0.73351   0.00000  Uiso   1.00
C204   C     0.57626   0.33604   0.67605   0.00000  Uiso   1.00
C205   C     0.25815   0.42098   0.71493   0.00000  Uiso   1.00
C206   C     0.24884   0.46880   0.72966   0.00000  Uiso   1.00
C207   C     0.19307   0.49505   0.67043   0.00000  Uiso   1.00
H208   H     0.19836   0.33108   0.58446   0.00000  Uiso   1.00
H209   H     0.07386   0.27622   0.67138   0.00000  Uiso   1.00
H210   H     0.38584   0.30104   0.53293   0.00000  Uiso   1.00
H211   H     0.12293   0.41013   0.52909   0.00000  Uiso   1.00
H212   H     0.95561   0.22460   0.79923   0.00000  Uiso   1.00
H213   H     0.61344   0.27694   0.50727   0.00000  Uiso   1.00
H214   H     0.05905   0.50698   0.49916   0.00000  Uiso   1.00
H215   H     0.35060   0.40200   0.82696   0.00000  Uiso   1.00
H216   H     0.23445   0.35103   0.92719   0.00000  Uiso   1.00
H217   H     0.54643   0.37585   0.78873   0.00000  Uiso   1.00
H218   H     0.28352   0.48494   0.78489   0.00000  Uiso   1.00
H219   H     0.08595   0.28531   0.00685   0.00000  Uiso   1.00
H220   H     0.74378   0.33766   0.71489   0.00000  Uiso   1.00
H221   H     0.18939   0.56769   0.70678   0.00000  Uiso   1.00
O222   O     0.94165   0.22014   0.96460   0.00000  Uiso   1.00
O223   O     0.80469   0.28882   0.58155   0.00000  Uiso   1.00
O224   O     0.07734   0.59062   0.57092   0.00000  Uiso   1.00
N225   N     0.00221   0.24589   0.83433   0.00000  Uiso   1.00
N226   N     0.61724   0.29482   0.56138   0.00000  Uiso   1.00
N227   N     0.09895   0.50989   0.55379   0.00000  Uiso   1.00
N228   N     0.07235   0.27856   0.94605   0.00000  Uiso   1.00
N229   N     0.68737   0.32749   0.67310   0.00000  Uiso   1.00
N230   N     0.16909   0.54256   0.66551   0.00000  Uiso   1.00
C231   C     0.19184   0.37758   0.35542   0.00000  Uiso   1.00
C232   C     0.26857   0.35200   0.29598   0.00000  Uiso   1.00
C233   C     0.36262   0.32827   0.31876   0.00000  Uiso   1.00
C234   C     0.42167   0.30714   0.25509   0.00000  Uiso   1.00
C235   C     0.54595   0.26701   0.17550   0.00000  Uiso   1.00
C236   C     0.07965   0.35606   0.34159   0.00000  Uiso   1.00
C237   C     0.01486   0.33576   0.40273   0.00000  Uiso   1.00
C238   C     0.91487   0.31805   0.37745   0.00000  Uiso   1.00
C239   C     0.74580   0.28426   0.36868   0.00000  Uiso   1.00
C240   C     0.18454   0.42789   0.32343   0.00000  Uiso   1.00
C241   C     0.20791   0.46798   0.36929   0.00000  Uiso   1.00
C242   C     0.19621   0.51075   0.32872   0.00000  Uiso   1.00
C243   C     0.19000   0.58847   0.29174   0.00000  Uiso   1.00
C244   C     0.12947   0.38226   0.20183   0.00000  Uiso   1.00
C245   C     0.23469   0.35454   0.21256   0.00000  Uiso   1.00
C246   C     0.29362   0.33345   0.14884   0.00000  Uiso   1.00
C247   C     0.38774   0.30969   0.17152   0.00000  Uiso   1.00
C248   C     0.04577   0.35861   0.25818   0.00000  Uiso   1.00
C249   C     0.94585   0.34093   0.23280   0.00000  Uiso   1.00
C250   C     0.88093   0.32060   0.29387   0.00000  Uiso   1.00
C251   C     0.15067   0.43043   0.24001   0.00000  Uiso   1.00
C252   C     0.13891   0.47315   0.19936   0.00000  Uiso   1.00
C253   C     0.16227   0.51329   0.24515   0.00000  Uiso   1.00
H254   H     0.21820   0.37560   0.42037   0.00000  Uiso   1.00
H255   H     0.38880   0.32631   0.38333   0.00000  Uiso   1.00
H256   H     0.04109   0.33380   0.46728   0.00000  Uiso   1.00
H257   H     0.23412   0.46599   0.43384   0.00000  Uiso   1.00
H258   H     0.56299   0.27276   0.30548   0.00000  Uiso   1.00
H259   H     0.82980   0.28856   0.48250   0.00000  Uiso   1.00
H260   H     0.23684   0.56733   0.41200   0.00000  Uiso   1.00
H261   H     0.10309   0.38424   0.13688   0.00000  Uiso   1.00
H262   H     0.26738   0.33542   0.08429   0.00000  Uiso   1.00
H263   H     0.91966   0.34291   0.16824   0.00000  Uiso   1.00
H264   H     0.11270   0.47510   0.13480   0.00000  Uiso   1.00
H265   H     0.46443   0.28015   0.06277   0.00000  Uiso   1.00
H266   H     0.73123   0.29596   0.23979   0.00000  Uiso   1.00
H267   H     0.13828   0.57472   0.16928   0.00000  Uiso   1.00
O268   O     0.62384   0.24417   0.15465   0.00000  Uiso   1.00
O269   O     0.66192   0.26491   0.38689   0.00000  Uiso   1.00
O270   O     0.19595   0.63065   0.29439   0.00000  Uiso   1.00
N271   N     0.51726   0.28121   0.25558   0.00000  Uiso   1.00
N272   N     0.83177   0.29598   0.42107   0.00000  Uiso   1.00
N273   N     0.21230   0.55660   0.35517   0.00000  Uiso   1.00
N274   N     0.46423   0.28519   0.12497   0.00000  Uiso   1.00
N275   N     0.77874   0.29996   0.29047   0.00000  Uiso   1.00
N276   N     0.15927   0.56058   0.22456   0.00000  Uiso   1.00
C277   C     0.76676   0.65268   0.14002   0.00000  Uiso   1.00
C278   C     0.81331   0.67264   0.22087   0.00000  Uiso   1.00
C279   C     0.89150   0.70763   0.22662   0.00000  Uiso   1.00
C280   C     0.92334   0.72104   0.30636   0.00000  Uiso   1.00
C281   C     0.00238   0.75523   0.42105   0.00000  Uiso   1.00
C282   C     0.64380   0.65916   0.14565   0.00000  Uiso   1.00
C283   C     0.57947   0.68282   0.08815   0.00000  Uiso   1.00
C284   C     0.46862   0.68487   0.10456   0.00000  Uiso   1.00
C285   C     0.28449   0.69810   0.10244   0.00000  Uiso   1.00
C286   C     0.78665   0.59989   0.14357   0.00000  Uiso   1.00
C287   C     0.84241   0.57371   0.08430   0.00000  Uiso   1.00
C288   C     0.85182   0.52586   0.09894   0.00000  Uiso   1.00
C289   C     0.88949   0.44707   0.09358   0.00000  Uiso   1.00
C290   C     0.68428   0.61425   0.27140   0.00000  Uiso   1.00
C291   C     0.76850   0.65177   0.29223   0.00000  Uiso   1.00
C292   C     0.80024   0.66512   0.37198   0.00000  Uiso   1.00
C293   C     0.87846   0.70013   0.37785   0.00000  Uiso   1.00
C294   C     0.59900   0.63829   0.21701   0.00000  Uiso   1.00
C295   C     0.48821   0.64031   0.23351   0.00000  Uiso   1.00
C296   C     0.42374   0.66396   0.17605   0.00000  Uiso   1.00
C297   C     0.74185   0.57902   0.21493   0.00000  Uiso   1.00
C298   C     0.75116   0.53120   0.22966   0.00000  Uiso   1.00
C299   C     0.80693   0.50495   0.17043   0.00000  Uiso   1.00
H300   H     0.80164   0.66892   0.08446   0.00000  Uiso   1.00
H301   H     0.92614   0.72378   0.17138   0.00000  Uiso   1.00
H302   H     0.61416   0.69896   0.03293   0.00000  Uiso   1.00
H303   H     0.87707   0.58987   0.02909   0.00000  Uiso   1.00
H304   H     0.04439   0.77540   0.29923   0.00000  Uiso   1.00
H305   H     0.38656   0.72306   0.00727   0.00000  Uiso   1.00
H306   H     0.94095   0.49302   0.99916   0.00000  Uiso   1.00
H307   H     0.64940   0.59800   0.32696   0.00000  Uiso   1.00
H308   H     0.76555   0.64897   0.42719   0.00000  Uiso   1.00
H309   H     0.45357   0.62415   0.28873   0.00000  Uiso   1.00
H310   H     0.71648   0.51506   0.28489   0.00000  Uiso   1.00
H311   H     0.91405   0.71469   0.50685   0.00000  Uiso   1.00
H312   H     0.25622   0.66234   0.21489   0.00000  Uiso   1.00
H313   H     0.81061   0.43231   0.20678   0.00000  Uiso   1.00
O314   O     0.05835   0.77986   0.46460   0.00000  Uiso   1.00
O315   O     0.19531   0.71118   0.08155   0.00000  Uiso   1.00
O316   O     0.92266   0.40938   0.07092   0.00000  Uiso   1.00
N317   N     0.99779   0.75411   0.33433   0.00000  Uiso   1.00
N318   N     0.38276   0.70518   0.06138   0.00000  Uiso   1.00
N319   N     0.90105   0.49011   0.05379   0.00000  Uiso   1.00
N320   N     0.92765   0.72144   0.44605   0.00000  Uiso   1.00
N321   N     0.31263   0.67251   0.17310   0.00000  Uiso   1.00
N322   N     0.83091   0.45744   0.16551   0.00000  Uiso   1.00
C323   C     0.80816   0.62242   0.85542   0.00000  Uiso   1.00
C324   C     0.73143   0.64800   0.79598   0.00000  Uiso   1.00
C325   C     0.63738   0.67173   0.81876   0.00000  Uiso   1.00
C326   C     0.57833   0.69286   0.75509   0.00000  Uiso   1.00
C327   C     0.45405   0.73299   0.67550   0.00000  Uiso   1.00
C328   C     0.92035   0.64394   0.84159   0.00000  Uiso   1.00
C329   C     0.98514   0.66424   0.90273   0.00000  Uiso   1.00
C330   C     0.08513   0.68195   0.87745   0.00000  Uiso   1.00
C331   C     0.25420   0.71574   0.86868   0.00000  Uiso   1.00
C332   C     0.81546   0.57211   0.82343   0.00000  Uiso   1.00
C333   C     0.79209   0.53202   0.86929   0.00000  Uiso   1.00
C334   C     0.80379   0.48925   0.82872   0.00000  Uiso   1.00
C335   C     0.81000   0.41153   0.79174   0.00000  Uiso   1.00
C336   C     0.87053   0.61774   0.70183   0.00000  Uiso   1.00
C337   C     0.76531   0.64546   0.71256   0.00000  Uiso   1.00
C338   C     0.70638   0.66655   0.64884   0.00000  Uiso   1.00
C339   C     0.61226   0.69031   0.67152   0.00000  Uiso   1.00
C340   C     0.95423   0.64139   0.75818   0.00000  Uiso   1.00
C341   C     0.05415   0.65907   0.73280   0.00000  Uiso   1.00
C342   C     0.11907   0.67940   0.79387   0.00000  Uiso   1.00
C343   C     0.84933   0.56957   0.74001   0.00000  Uiso   1.00
C344   C     0.86109   0.52685   0.69936   0.00000  Uiso   1.00
C345   C     0.83773   0.48671   0.74515   0.00000  Uiso   1.00
H346   H     0.78180   0.62440   0.92037   0.00000  Uiso   1.00
H347   H     0.61120   0.67369   0.88333   0.00000  Uiso   1.00
H348   H     0.95891   0.66620   0.96728   0.00000  Uiso   1.00
H349   H     0.76588   0.53401   0.93384   0.00000  Uiso   1.00
H350   H     0.43701   0.72724   0.80548   0.00000  Uiso   1.00
H351   H     0.17020   0.71144   0.98250   0.00000  Uiso   1.00
H352   H     0.76316   0.43267   0.91200   0.00000  Uiso   1.00
H353   H     0.89691   0.61576   0.63688   0.00000  Uiso   1.00
H354   H     0.73262   0.66458   0.58429   0.00000  Uiso   1.00
H355   H     0.08034   0.65709   0.66824   0.00000  Uiso   1.00
H356   H     0.88730   0.52490   0.63480   0.00000  Uiso   1.00
H357   H     0.53557   0.71985   0.56277   0.00000  Uiso   1.00
H358   H     0.26877   0.70404   0.73979   0.00000  Uiso   1.00
H359   H     0.86172   0.42528   0.66928   0.00000  Uiso   1.00
O360   O     0.37616   0.75583   0.65465   0.00000  Uiso   1.00
O361   O     0.33808   0.73509   0.88689   0.00000  Uiso   1.00
O362   O     0.80405   0.36935   0.79439   0.00000  Uiso   1.00
N363   N     0.48274   0.71879   0.75558   0.00000  Uiso   1.00
N364   N     0.16823   0.70402   0.92107   0.00000  Uiso   1.00
N365   N     0.78770   0.44340   0.85517   0.00000  Uiso   1.00
N366   N     0.53577   0.71481   0.62497   0.00000  Uiso   1.00
N367   N     0.22126   0.70004   0.79047   0.00000  Uiso   1.00
N368   N     0.84073   0.43942   0.72456   0.00000  Uiso   1.00
