data_job_06292
_audit_creation_date              2018-12-19
_audit_creation_method            'Materials Studio'
_symmetry_space_group_name_H-M    'P1'
_symmetry_Int_Tables_number       1
_symmetry_cell_setting            triclinic
loop_
_symmetry_equiv_pos_as_xyz
  x,y,z
_cell_length_a                    9.4918
_cell_length_b                    21.4481
_cell_length_c                    22.1355
_cell_angle_alpha                 117.7020
_cell_angle_beta                  79.4943
_cell_angle_gamma                 86.7296
loop_
_atom_site_label
_atom_site_type_symbol
_atom_site_fract_x
_atom_site_fract_y
_atom_site_fract_z
_atom_site_U_iso_or_equiv
_atom_site_adp_type
_atom_site_occupancy
C1     C     0.59059   0.22499   0.89155   0.00000  Uiso   1.00
C2     C     0.53073   0.26855   0.86089   0.00000  Uiso   1.00
C3     C     0.59839   0.26858   0.79979   0.00000  Uiso   1.00
C4     C     0.52588   0.31211   0.78061   0.00000  Uiso   1.00
C5     C     0.45354   0.37338   0.72686   0.00000  Uiso   1.00
C6     C     0.59555   0.27859   0.96625   0.00000  Uiso   1.00
C7     C     0.71771   0.28706   0.99374   0.00000  Uiso   1.00
C8     C     0.69976   0.33905   0.06325   0.00000  Uiso   1.00
C9     C     0.72804   0.41589   0.17310   0.00000  Uiso   1.00
C10    C     0.47481   0.18079   0.89862   0.00000  Uiso   1.00
C11    C     0.49546   0.10702   0.86925   0.00000  Uiso   1.00
C12    C     0.37586   0.07667   0.88185   0.00000  Uiso   1.00
C13    C     0.21667   0.00164   0.88668   0.00000  Uiso   1.00
C14    C     0.34150   0.30225   0.96614   0.00000  Uiso   1.00
C15    C     0.39543   0.31051   0.90141   0.00000  Uiso   1.00
C16    C     0.32279   0.35406   0.88231   0.00000  Uiso   1.00
C17    C     0.39034   0.35415   0.82119   0.00000  Uiso   1.00
C18    C     0.46026   0.32056   0.00677   0.00000  Uiso   1.00
C19    C     0.44212   0.37254   0.07626   0.00000  Uiso   1.00
C20    C     0.56422   0.38109   0.10384   0.00000  Uiso   1.00
C21    C     0.33951   0.22275   0.93913   0.00000  Uiso   1.00
C22    C     0.21986   0.19250   0.95178   0.00000  Uiso   1.00
C23    C     0.24032   0.11871   0.92243   0.00000  Uiso   1.00
H24    H     0.69593   0.19232   0.86001   0.00000  Uiso   1.00
H25    H     0.70310   0.23610   0.76845   0.00000  Uiso   1.00
H26    H     0.82240   0.25458   0.96237   0.00000  Uiso   1.00
H27    H     0.60017   0.07457   0.83791   0.00000  Uiso   1.00
H28    H     0.65141   0.30316   0.68483   0.00000  Uiso   1.00
H29    H     0.90294   0.34210   0.09372   0.00000  Uiso   1.00
H30    H     0.43434   0.96252   0.83126   0.00000  Uiso   1.00
H31    H     0.23616   0.33492   0.99768   0.00000  Uiso   1.00
H32    H     0.21809   0.38652   0.91368   0.00000  Uiso   1.00
H33    H     0.33740   0.40500   0.10760   0.00000  Uiso   1.00
H34    H     0.11517   0.22499   0.98313   0.00000  Uiso   1.00
H35    H     0.25776   0.42525   0.80270   0.00000  Uiso   1.00
H36    H     0.50930   0.46419   0.21160   0.00000  Uiso   1.00
H37    H     0.04069   0.08461   0.94914   0.00000  Uiso   1.00
O38    O     0.45102   0.39560   0.68603   0.00000  Uiso   1.00
O39    O     0.78102   0.44668   0.22249   0.00000  Uiso   1.00
O40    O     0.16623   0.94867   0.87815   0.00000  Uiso   1.00
N41    N     0.56123   0.32480   0.72409   0.00000  Uiso   1.00
N42    N     0.79640   0.36122   0.10638   0.00000  Uiso   1.00
N43    N     0.35831   0.00634   0.86102   0.00000  Uiso   1.00
N44    N     0.34941   0.39050   0.78751   0.00000  Uiso   1.00
N45    N     0.58458   0.42692   0.16981   0.00000  Uiso   1.00
N46    N     0.14649   0.07204   0.92444   0.00000  Uiso   1.00
C47    C     0.48871   0.11056   0.33359   0.00000  Uiso   1.00
C48    C     0.39413   0.13887   0.40741   0.00000  Uiso   1.00
C49    C     0.40158   0.20150   0.46633   0.00000  Uiso   1.00
C50    C     0.30567   0.21804   0.52908   0.00000  Uiso   1.00
C51    C     0.17403   0.26875   0.64316   0.00000  Uiso   1.00
C52    C     0.56198   0.03565   0.31166   0.00000  Uiso   1.00
C53    C     0.71056   0.01149   0.29006   0.00000  Uiso   1.00
C54    C     0.75594   0.94114   0.27219   0.00000  Uiso   1.00
C55    C     0.88489   0.83157   0.23757   0.00000  Uiso   1.00
C56    C     0.38423   0.10098   0.28626   0.00000  Uiso   1.00
C57    C     0.38336   0.13174   0.24328   0.00000  Uiso   1.00
C58    C     0.27911   0.11638   0.20402   0.00000  Uiso   1.00
C59    C     0.13206   0.10826   0.12996   0.00000  Uiso   1.00
C60    C     0.30513   0.02857   0.34025   0.00000  Uiso   1.00
C61    C     0.29442   0.09433   0.41103   0.00000  Uiso   1.00
C62    C     0.19847   0.11078   0.47371   0.00000  Uiso   1.00
C63    C     0.20577   0.17343   0.53270   0.00000  Uiso   1.00
C64    C     0.46228   0.99111   0.31528   0.00000  Uiso   1.00
C65    C     0.50745   0.92077   0.29744   0.00000  Uiso   1.00
C66    C     0.65605   0.89652   0.27582   0.00000  Uiso   1.00
C67    C     0.28451   0.05645   0.28988   0.00000  Uiso   1.00
C68    C     0.18025   0.04103   0.25067   0.00000  Uiso   1.00
C69    C     0.17922   0.07176   0.20764   0.00000  Uiso   1.00
H70    H     0.56635   0.14523   0.33077   0.00000  Uiso   1.00
H71    H     0.47877   0.23595   0.46351   0.00000  Uiso   1.00
H72    H     0.78769   0.04596   0.28726   0.00000  Uiso   1.00
H73    H     0.46054   0.16620   0.24049   0.00000  Uiso   1.00
H74    H     0.33774   0.31687   0.61228   0.00000  Uiso   1.00
H75    H     0.98912   0.91627   0.24062   0.00000  Uiso   1.00
H76    H     0.29926   0.16982   0.14201   0.00000  Uiso   1.00
H77    H     0.22750   0.99389   0.34307   0.00000  Uiso   1.00
H78    H     0.12132   0.07631   0.47649   0.00000  Uiso   1.00
H79    H     0.43025   0.88633   0.30024   0.00000  Uiso   1.00
H80    H     0.10310   0.00657   0.25348   0.00000  Uiso   1.00
H81    H     0.04762   0.18730   0.62282   0.00000  Uiso   1.00
H82    H     0.69901   0.78670   0.25116   0.00000  Uiso   1.00
H83    H     0.00915   0.04025   0.15255   0.00000  Uiso   1.00
O84    O     0.12898   0.30902   0.70510   0.00000  Uiso   1.00
O85    O     0.98357   0.78345   0.21749   0.00000  Uiso   1.00
O86    O     0.07849   0.11609   0.08812   0.00000  Uiso   1.00
N87    N     0.28401   0.27507   0.59644   0.00000  Uiso   1.00
N88    N     0.89302   0.90054   0.24898   0.00000  Uiso   1.00
N89    N     0.24808   0.13757   0.15677   0.00000  Uiso   1.00
N90    N     0.12790   0.20535   0.60212   0.00000  Uiso   1.00
N91    N     0.73691   0.83082   0.25465   0.00000  Uiso   1.00
N92    N     0.09197   0.06785   0.16245   0.00000  Uiso   1.00
C93    C     0.81892   0.66657   0.77499   0.00000  Uiso   1.00
C94    C     0.79422   0.59017   0.73157   0.00000  Uiso   1.00
C95    C     0.85350   0.53092   0.73394   0.00000  Uiso   1.00
C96    C     0.81772   0.46566   0.69009   0.00000  Uiso   1.00
C97    C     0.79339   0.34790   0.62943   0.00000  Uiso   1.00
C98    C     0.87820   0.69137   0.72240   0.00000  Uiso   1.00
C99    C     0.00807   0.71721   0.71707   0.00000  Uiso   1.00
C100   C     0.04297   0.73715   0.66551   0.00000  Uiso   1.00
C101   C     0.14896   0.77654   0.59065   0.00000  Uiso   1.00
C102   C     0.66858   0.71097   0.81473   0.00000  Uiso   1.00
C103   C     0.62221   0.75330   0.88703   0.00000  Uiso   1.00
C104   C     0.48063   0.78975   0.91320   0.00000  Uiso   1.00
C105   C     0.26115   0.85958   0.98169   0.00000  Uiso   1.00
C106   C     0.64997   0.65606   0.69289   0.00000  Uiso   1.00
C107   C     0.70246   0.58447   0.68698   0.00000  Uiso   1.00
C108   C     0.66658   0.51929   0.64311   0.00000  Uiso   1.00
C109   C     0.72579   0.45994   0.64542   0.00000  Uiso   1.00
C110   C     0.78644   0.68566   0.67781   0.00000  Uiso   1.00
C111   C     0.82115   0.70558   0.62624   0.00000  Uiso   1.00
C112   C     0.95104   0.73143   0.62084   0.00000  Uiso   1.00
C113   C     0.57681   0.70526   0.77014   0.00000  Uiso   1.00
C114   C     0.43528   0.74166   0.79620   0.00000  Uiso   1.00
C115   C     0.38870   0.78404   0.86853   0.00000  Uiso   1.00
H116   H     0.89037   0.67102   0.80970   0.00000  Uiso   1.00
H117   H     0.92452   0.53535   0.76845   0.00000  Uiso   1.00
H118   H     0.07906   0.72162   0.75159   0.00000  Uiso   1.00
H119   H     0.69325   0.75770   0.92152   0.00000  Uiso   1.00
H120   H     0.92196   0.38243   0.70303   0.00000  Uiso   1.00
H121   H     0.24778   0.77521   0.66750   0.00000  Uiso   1.00
H122   H     0.43423   0.85129   0.02583   0.00000  Uiso   1.00
H123   H     0.57853   0.65162   0.65817   0.00000  Uiso   1.00
H124   H     0.59556   0.51489   0.60861   0.00000  Uiso   1.00
H125   H     0.75010   0.70116   0.59175   0.00000  Uiso   1.00
H126   H     0.36430   0.73724   0.76168   0.00000  Uiso   1.00
H127   H     0.65497   0.36581   0.57330   0.00000  Uiso   1.00
H128   H     0.98079   0.75860   0.53777   0.00000  Uiso   1.00
H129   H     0.16724   0.83468   0.89609   0.00000  Uiso   1.00
O130   O     0.80533   0.28452   0.60828   0.00000  Uiso   1.00
O131   O     0.23279   0.79985   0.56167   0.00000  Uiso   1.00
O132   O     0.16544   0.89966   0.03179   0.00000  Uiso   1.00
N133   N     0.85676   0.39728   0.67931   0.00000  Uiso   1.00
N134   N     0.16140   0.76450   0.64608   0.00000  Uiso   1.00
N135   N     0.40081   0.83564   0.98109   0.00000  Uiso   1.00
N136   N     0.71309   0.38834   0.60951   0.00000  Uiso   1.00
N137   N     0.01773   0.75556   0.57627   0.00000  Uiso   1.00
N138   N     0.25715   0.82671   0.91128   0.00000  Uiso   1.00
C139   C     0.40941   0.77501   0.10845   0.00000  Uiso   1.00
C140   C     0.46927   0.73145   0.13911   0.00000  Uiso   1.00
C141   C     0.40161   0.73142   0.20021   0.00000  Uiso   1.00
C142   C     0.47412   0.68789   0.21939   0.00000  Uiso   1.00
C143   C     0.54646   0.62662   0.27314   0.00000  Uiso   1.00
C144   C     0.40445   0.72141   0.03375   0.00000  Uiso   1.00
C145   C     0.28229   0.71294   0.00626   0.00000  Uiso   1.00
C146   C     0.30024   0.66095   0.93675   0.00000  Uiso   1.00
C147   C     0.27196   0.58411   0.82690   0.00000  Uiso   1.00
C148   C     0.52519   0.81921   0.10138   0.00000  Uiso   1.00
C149   C     0.50454   0.89298   0.13075   0.00000  Uiso   1.00
C150   C     0.62414   0.92333   0.11815   0.00000  Uiso   1.00
C151   C     0.78333   0.99836   0.11332   0.00000  Uiso   1.00
C152   C     0.65850   0.69775   0.03386   0.00000  Uiso   1.00
C153   C     0.60457   0.68949   0.09859   0.00000  Uiso   1.00
C154   C     0.67721   0.64594   0.11769   0.00000  Uiso   1.00
C155   C     0.60966   0.64585   0.17881   0.00000  Uiso   1.00
C156   C     0.53974   0.67944   0.99323   0.00000  Uiso   1.00
C157   C     0.55788   0.62746   0.92374   0.00000  Uiso   1.00
C158   C     0.43578   0.61891   0.89616   0.00000  Uiso   1.00
C159   C     0.66049   0.77725   0.06087   0.00000  Uiso   1.00
C160   C     0.78014   0.80750   0.04822   0.00000  Uiso   1.00
C161   C     0.75968   0.88129   0.07756   0.00000  Uiso   1.00
H162   H     0.30407   0.80768   0.13999   0.00000  Uiso   1.00
H163   H     0.29689   0.76390   0.23155   0.00000  Uiso   1.00
H164   H     0.17760   0.74542   0.03763   0.00000  Uiso   1.00
H165   H     0.39982   0.92543   0.16209   0.00000  Uiso   1.00
H166   H     0.34859   0.69684   0.31517   0.00000  Uiso   1.00
H167   H     0.09706   0.65790   0.90628   0.00000  Uiso   1.00
H168   H     0.56566   0.03748   0.16874   0.00000  Uiso   1.00
H169   H     0.76384   0.66508   0.00232   0.00000  Uiso   1.00
H170   H     0.78191   0.61348   0.08632   0.00000  Uiso   1.00
H171   H     0.66260   0.59500   0.89240   0.00000  Uiso   1.00
H172   H     0.88483   0.77501   0.01687   0.00000  Uiso   1.00
H173   H     0.74224   0.57475   0.19730   0.00000  Uiso   1.00
H174   H     0.49070   0.53581   0.78840   0.00000  Uiso   1.00
H175   H     0.95930   0.91539   0.05086   0.00000  Uiso   1.00
O176   O     0.54898   0.60440   0.31397   0.00000  Uiso   1.00
O177   O     0.21898   0.55332   0.77751   0.00000  Uiso   1.00
O178   O     0.83377   0.05133   0.12185   0.00000  Uiso   1.00
N179   N     0.43877   0.67520   0.27591   0.00000  Uiso   1.00
N180   N     0.20360   0.63878   0.89362   0.00000  Uiso   1.00
N181   N     0.64169   0.99366   0.13898   0.00000  Uiso   1.00
N182   N     0.65059   0.60950   0.21249   0.00000  Uiso   1.00
N183   N     0.41542   0.57308   0.83019   0.00000  Uiso   1.00
N184   N     0.85351   0.92796   0.07556   0.00000  Uiso   1.00
C185   C     0.51129   0.88944   0.66641   0.00000  Uiso   1.00
C186   C     0.60587   0.86113   0.59259   0.00000  Uiso   1.00
C187   C     0.59842   0.79850   0.53367   0.00000  Uiso   1.00
C188   C     0.69433   0.78196   0.47092   0.00000  Uiso   1.00
C189   C     0.82597   0.73125   0.35684   0.00000  Uiso   1.00
C190   C     0.43802   0.96435   0.68834   0.00000  Uiso   1.00
C191   C     0.28944   0.98851   0.70994   0.00000  Uiso   1.00
C192   C     0.24406   0.05886   0.72781   0.00000  Uiso   1.00
C193   C     0.11511   0.16843   0.76243   0.00000  Uiso   1.00
C194   C     0.61577   0.89902   0.71374   0.00000  Uiso   1.00
C195   C     0.61663   0.86826   0.75672   0.00000  Uiso   1.00
C196   C     0.72089   0.88362   0.79598   0.00000  Uiso   1.00
C197   C     0.86794   0.89174   0.87004   0.00000  Uiso   1.00
C198   C     0.69487   0.97143   0.65974   0.00000  Uiso   1.00
C199   C     0.70558   0.90567   0.58897   0.00000  Uiso   1.00
C200   C     0.80153   0.88922   0.52629   0.00000  Uiso   1.00
C201   C     0.79423   0.82657   0.46730   0.00000  Uiso   1.00
C202   C     0.53772   0.00889   0.68472   0.00000  Uiso   1.00
C203   C     0.49255   0.07923   0.70256   0.00000  Uiso   1.00
C204   C     0.34395   0.10348   0.72418   0.00000  Uiso   1.00
C205   C     0.71549   0.94355   0.71012   0.00000  Uiso   1.00
C206   C     0.81975   0.95897   0.74933   0.00000  Uiso   1.00
C207   C     0.82078   0.92824   0.79236   0.00000  Uiso   1.00
H208   H     0.43365   0.85477   0.66923   0.00000  Uiso   1.00
H209   H     0.52123   0.76405   0.53649   0.00000  Uiso   1.00
H210   H     0.21231   0.95404   0.71274   0.00000  Uiso   1.00
H211   H     0.53946   0.83380   0.75951   0.00000  Uiso   1.00
H212   H     0.66226   0.68313   0.38772   0.00000  Uiso   1.00
H213   H     0.01088   0.08373   0.75938   0.00000  Uiso   1.00
H214   H     0.70074   0.83018   0.85799   0.00000  Uiso   1.00
H215   H     0.77250   0.00611   0.65693   0.00000  Uiso   1.00
H216   H     0.87868   0.92369   0.52351   0.00000  Uiso   1.00
H217   H     0.56975   0.11367   0.69976   0.00000  Uiso   1.00
H218   H     0.89690   0.99343   0.74652   0.00000  Uiso   1.00
H219   H     0.95238   0.81270   0.37718   0.00000  Uiso   1.00
H220   H     0.30099   0.21330   0.74884   0.00000  Uiso   1.00
H221   H     0.99085   0.95975   0.84745   0.00000  Uiso   1.00
O222   O     0.87102   0.69098   0.29490   0.00000  Uiso   1.00
O223   O     0.01643   0.21655   0.78251   0.00000  Uiso   1.00
O224   O     0.92151   0.88390   0.91188   0.00000  Uiso   1.00
N225   N     0.71599   0.72493   0.40356   0.00000  Uiso   1.00
N226   N     0.10698   0.09946   0.75102   0.00000  Uiso   1.00
N227   N     0.75192   0.86243   0.84323   0.00000  Uiso   1.00
N228   N     0.87210   0.79465   0.39788   0.00000  Uiso   1.00
N229   N     0.26309   0.16918   0.74535   0.00000  Uiso   1.00
N230   N     0.90803   0.93215   0.83755   0.00000  Uiso   1.00
C231   C     0.18108   0.33343   0.22501   0.00000  Uiso   1.00
C232   C     0.20578   0.40983   0.26843   0.00000  Uiso   1.00
C233   C     0.14650   0.46908   0.26606   0.00000  Uiso   1.00
C234   C     0.18228   0.53434   0.30991   0.00000  Uiso   1.00
C235   C     0.20661   0.65210   0.37057   0.00000  Uiso   1.00
C236   C     0.12180   0.30863   0.27760   0.00000  Uiso   1.00
C237   C     0.99193   0.28279   0.28293   0.00000  Uiso   1.00
C238   C     0.95703   0.26285   0.33449   0.00000  Uiso   1.00
C239   C     0.85104   0.22346   0.40935   0.00000  Uiso   1.00
C240   C     0.33142   0.28903   0.18527   0.00000  Uiso   1.00
C241   C     0.37779   0.24670   0.11297   0.00000  Uiso   1.00
C242   C     0.51937   0.21025   0.08680   0.00000  Uiso   1.00
C243   C     0.73885   0.14042   0.01831   0.00000  Uiso   1.00
C244   C     0.35003   0.34394   0.30711   0.00000  Uiso   1.00
C245   C     0.29754   0.41553   0.31302   0.00000  Uiso   1.00
C246   C     0.33342   0.48071   0.35689   0.00000  Uiso   1.00
C247   C     0.27421   0.54006   0.35458   0.00000  Uiso   1.00
C248   C     0.21356   0.31434   0.32219   0.00000  Uiso   1.00
C249   C     0.17885   0.29442   0.37376   0.00000  Uiso   1.00
C250   C     0.04896   0.26857   0.37916   0.00000  Uiso   1.00
C251   C     0.42319   0.29474   0.22986   0.00000  Uiso   1.00
C252   C     0.56472   0.25834   0.20380   0.00000  Uiso   1.00
C253   C     0.61130   0.21596   0.13147   0.00000  Uiso   1.00
H254   H     0.10963   0.32898   0.19030   0.00000  Uiso   1.00
H255   H     0.07548   0.46465   0.23155   0.00000  Uiso   1.00
H256   H     0.92094   0.27838   0.24841   0.00000  Uiso   1.00
H257   H     0.30675   0.24230   0.07848   0.00000  Uiso   1.00
H258   H     0.07804   0.61757   0.29697   0.00000  Uiso   1.00
H259   H     0.75222   0.22479   0.33250   0.00000  Uiso   1.00
H260   H     0.56577   0.14871   0.97417   0.00000  Uiso   1.00
H261   H     0.42147   0.34838   0.34183   0.00000  Uiso   1.00
H262   H     0.40444   0.48511   0.39139   0.00000  Uiso   1.00
H263   H     0.24990   0.29884   0.40825   0.00000  Uiso   1.00
H264   H     0.63570   0.26276   0.23832   0.00000  Uiso   1.00
H265   H     0.34503   0.63419   0.42670   0.00000  Uiso   1.00
H266   H     0.01921   0.24140   0.46223   0.00000  Uiso   1.00
H267   H     0.83276   0.16532   0.10390   0.00000  Uiso   1.00
O268   O     0.19467   0.71548   0.39172   0.00000  Uiso   1.00
O269   O     0.76721   0.20015   0.43833   0.00000  Uiso   1.00
O270   O     0.83456   0.10034   0.96821   0.00000  Uiso   1.00
N271   N     0.14324   0.60272   0.32069   0.00000  Uiso   1.00
N272   N     0.83860   0.23550   0.35392   0.00000  Uiso   1.00
N273   N     0.59919   0.16436   0.01891   0.00000  Uiso   1.00
N274   N     0.28691   0.61166   0.39049   0.00000  Uiso   1.00
N275   N     0.98227   0.24444   0.42373   0.00000  Uiso   1.00
N276   N     0.74285   0.17329   0.08872   0.00000  Uiso   1.00
