data_job_04453
_audit_creation_date              2018-12-19
_audit_creation_method            'Materials Studio'
_symmetry_space_group_name_H-M    'P1'
_symmetry_Int_Tables_number       1
_symmetry_cell_setting            triclinic
loop_
_symmetry_equiv_pos_as_xyz
  x,y,z
_cell_length_a                    15.5998
_cell_length_b                    27.7055
_cell_length_c                    12.3972
_cell_angle_alpha                 90.0000
_cell_angle_beta                  119.4430
_cell_angle_gamma                 90.0000
loop_
_atom_site_label
_atom_site_type_symbol
_atom_site_fract_x
_atom_site_fract_y
_atom_site_fract_z
_atom_site_U_iso_or_equiv
_atom_site_adp_type
_atom_site_occupancy
C1     C     0.14869   0.15370   0.92825   0.00000  Uiso   1.00
C2     C     0.08509   0.19888   0.88010   0.00000  Uiso   1.00
C3     C     0.11581   0.24573   0.91995   0.00000  Uiso   1.00
C4     C     0.04647   0.28210   0.86437   0.00000  Uiso   1.00
C5     C     0.96237   0.35380   0.80366   0.00000  Uiso   1.00
C6     C     0.09531   0.12016   0.97327   0.00000  Uiso   1.00
C7     C     0.13464   0.10081   0.09144   0.00000  Uiso   1.00
C8     C     0.07391   0.07091   0.11427   0.00000  Uiso   1.00
C9     C     0.00573   0.02036   0.19818   0.00000  Uiso   1.00
C10    C     0.14385   0.12924   0.81520   0.00000  Uiso   1.00
C11    C     0.22399   0.11752   0.80048   0.00000  Uiso   1.00
C12    C     0.20413   0.09525   0.69024   0.00000  Uiso   1.00
C13    C     0.21130   0.05880   0.52872   0.00000  Uiso   1.00
C14    C     0.97092   0.13498   0.75869   0.00000  Uiso   1.00
C15    C     0.98852   0.18871   0.78801   0.00000  Uiso   1.00
C16    C     0.91912   0.22502   0.73235   0.00000  Uiso   1.00
C17    C     0.94973   0.27192   0.77210   0.00000  Uiso   1.00
C18    C     0.99875   0.10999   0.88117   0.00000  Uiso   1.00
C19    C     0.93795   0.08010   0.90384   0.00000  Uiso   1.00
C20    C     0.97718   0.06072   0.02201   0.00000  Uiso   1.00
C21    C     0.04729   0.11907   0.72310   0.00000  Uiso   1.00
C22    C     0.02730   0.09681   0.61288   0.00000  Uiso   1.00
C23    C     0.10739   0.08506   0.59798   0.00000  Uiso   1.00
H24    H     0.22387   0.16161   0.99996   0.00000  Uiso   1.00
H25    H     0.19054   0.25358   0.99123   0.00000  Uiso   1.00
H26    H     0.20937   0.10868   0.16268   0.00000  Uiso   1.00
H27    H     0.29870   0.12539   0.87177   0.00000  Uiso   1.00
H28    H     0.11099   0.35107   0.94097   0.00000  Uiso   1.00
H29    H     0.15072   0.04552   0.30248   0.00000  Uiso   1.00
H30    H     0.33909   0.08075   0.68902   0.00000  Uiso   1.00
H31    H     0.89573   0.12706   0.68699   0.00000  Uiso   1.00
H32    H     0.84440   0.21714   0.66108   0.00000  Uiso   1.00
H33    H     0.86323   0.07224   0.83254   0.00000  Uiso   1.00
H34    H     0.95256   0.08895   0.54163   0.00000  Uiso   1.00
H35    H     0.83005   0.32149   0.67301   0.00000  Uiso   1.00
H36    H     0.86978   0.01594   0.03453   0.00000  Uiso   1.00
H37    H     0.05815   0.05117   0.42107   0.00000  Uiso   1.00
O38    O     0.94266   0.39616   0.79563   0.00000  Uiso   1.00
O39    O     0.99479   0.99529   0.26991   0.00000  Uiso   1.00
O40    O     0.24193   0.04150   0.46507   0.00000  Uiso   1.00
N41    N     0.05192   0.33174   0.88144   0.00000  Uiso   1.00
N42    N     0.08906   0.04608   0.21944   0.00000  Uiso   1.00
N43    N     0.26517   0.07901   0.64593   0.00000  Uiso   1.00
N44    N     0.90075   0.31583   0.73726   0.00000  Uiso   1.00
N45    N     0.93789   0.03017   0.07526   0.00000  Uiso   1.00
N46    N     0.11400   0.06309   0.50174   0.00000  Uiso   1.00
C47    C     0.45502   0.62322   0.26872   0.00000  Uiso   1.00
C48    C     0.39357   0.66927   0.22916   0.00000  Uiso   1.00
C49    C     0.42675   0.71506   0.27687   0.00000  Uiso   1.00
C50    C     0.35911   0.75251   0.22841   0.00000  Uiso   1.00
C51    C     0.27849   0.82525   0.18115   0.00000  Uiso   1.00
C52    C     0.40064   0.58811   0.30874   0.00000  Uiso   1.00
C53    C     0.43978   0.56564   0.42336   0.00000  Uiso   1.00
C54    C     0.37809   0.53476   0.44187   0.00000  Uiso   1.00
C55    C     0.30848   0.48146   0.51812   0.00000  Uiso   1.00
C56    C     0.44808   0.60205   0.15115   0.00000  Uiso   1.00
C57    C     0.52709   0.59130   0.13326   0.00000  Uiso   1.00
C58    C     0.50535   0.57214   0.01909   0.00000  Uiso   1.00
C59    C     0.50938   0.54049   0.85065   0.00000  Uiso   1.00
C60    C     0.27589   0.60831   0.09780   0.00000  Uiso   1.00
C61    C     0.29628   0.66117   0.13633   0.00000  Uiso   1.00
C62    C     0.22857   0.69856   0.08777   0.00000  Uiso   1.00
C63    C     0.26165   0.74440   0.13540   0.00000  Uiso   1.00
C64    C     0.30336   0.58001   0.21591   0.00000  Uiso   1.00
C65    C     0.24160   0.54915   0.23425   0.00000  Uiso   1.00
C66    C     0.28063   0.52665   0.34886   0.00000  Uiso   1.00
C67    C     0.35079   0.59395   0.05831   0.00000  Uiso   1.00
C68    C     0.32891   0.57480   0.94415   0.00000  Uiso   1.00
C69    C     0.40788   0.56403   0.92609   0.00000  Uiso   1.00
H70    H     0.53076   0.62952   0.34101   0.00000  Uiso   1.00
H71    H     0.50205   0.72131   0.34873   0.00000  Uiso   1.00
H72    H     0.51507   0.57191   0.49518   0.00000  Uiso   1.00
H73    H     0.60237   0.59757   0.20512   0.00000  Uiso   1.00
H74    H     0.42730   0.81951   0.31638   0.00000  Uiso   1.00
H75    H     0.45478   0.50448   0.62516   0.00000  Uiso   1.00
H76    H     0.63887   0.55858   0.01352   0.00000  Uiso   1.00
H77    H     0.20014   0.60200   0.02552   0.00000  Uiso   1.00
H78    H     0.15329   0.69229   0.01593   0.00000  Uiso   1.00
H79    H     0.16632   0.54289   0.16239   0.00000  Uiso   1.00
H80    H     0.25361   0.56854   0.87233   0.00000  Uiso   1.00
H81    H     0.14423   0.79595   0.04627   0.00000  Uiso   1.00
H82    H     0.17171   0.48092   0.35506   0.00000  Uiso   1.00
H83    H     0.35580   0.53502   0.74342   0.00000  Uiso   1.00
O84    O     0.26090   0.86761   0.18074   0.00000  Uiso   1.00
O85    O     0.29696   0.45431   0.58584   0.00000  Uiso   1.00
O86    O     0.53848   0.52528   0.78339   0.00000  Uiso   1.00
N87    N     0.36711   0.80157   0.25411   0.00000  Uiso   1.00
N88    N     0.39280   0.50705   0.54281   0.00000  Uiso   1.00
N89    N     0.56491   0.55761   0.97099   0.00000  Uiso   1.00
N90    N     0.21480   0.78890   0.10877   0.00000  Uiso   1.00
N91    N     0.24048   0.49437   0.39747   0.00000  Uiso   1.00
N92    N     0.41259   0.54493   0.82565   0.00000  Uiso   1.00
C93    C     0.85131   0.65370   0.57175   0.00000  Uiso   1.00
C94    C     0.91491   0.69888   0.61990   0.00000  Uiso   1.00
C95    C     0.88419   0.74573   0.58005   0.00000  Uiso   1.00
C96    C     0.95353   0.78210   0.63563   0.00000  Uiso   1.00
C97    C     0.03763   0.85380   0.69634   0.00000  Uiso   1.00
C98    C     0.90469   0.62016   0.52673   0.00000  Uiso   1.00
C99    C     0.86536   0.60081   0.40856   0.00000  Uiso   1.00
C100   C     0.92609   0.57091   0.38573   0.00000  Uiso   1.00
C101   C     0.99427   0.52036   0.30182   0.00000  Uiso   1.00
C102   C     0.85615   0.62924   0.68480   0.00000  Uiso   1.00
C103   C     0.77601   0.61752   0.69952   0.00000  Uiso   1.00
C104   C     0.79587   0.59525   0.80976   0.00000  Uiso   1.00
C105   C     0.78870   0.55880   0.97128   0.00000  Uiso   1.00
C106   C     0.02908   0.63498   0.74131   0.00000  Uiso   1.00
C107   C     0.01148   0.68871   0.71199   0.00000  Uiso   1.00
C108   C     0.08088   0.72502   0.76765   0.00000  Uiso   1.00
C109   C     0.05027   0.77192   0.72790   0.00000  Uiso   1.00
C110   C     0.00125   0.60999   0.61883   0.00000  Uiso   1.00
C111   C     0.06205   0.58010   0.59616   0.00000  Uiso   1.00
C112   C     0.02282   0.56072   0.47799   0.00000  Uiso   1.00
C113   C     0.95271   0.61907   0.77690   0.00000  Uiso   1.00
C114   C     0.97270   0.59681   0.88712   0.00000  Uiso   1.00
C115   C     0.89261   0.58506   0.90202   0.00000  Uiso   1.00
H116   H     0.77613   0.66161   0.50004   0.00000  Uiso   1.00
H117   H     0.80946   0.75358   0.50877   0.00000  Uiso   1.00
H118   H     0.79063   0.60868   0.33732   0.00000  Uiso   1.00
H119   H     0.70130   0.62539   0.62823   0.00000  Uiso   1.00
H120   H     0.88901   0.85107   0.55903   0.00000  Uiso   1.00
H121   H     0.84928   0.54552   0.19752   0.00000  Uiso   1.00
H122   H     0.66091   0.58075   0.81098   0.00000  Uiso   1.00
H123   H     0.10427   0.62706   0.81301   0.00000  Uiso   1.00
H124   H     0.15560   0.71714   0.83892   0.00000  Uiso   1.00
H125   H     0.13677   0.57224   0.66746   0.00000  Uiso   1.00
H126   H     0.04744   0.58895   0.95837   0.00000  Uiso   1.00
H127   H     0.16995   0.82149   0.82699   0.00000  Uiso   1.00
H128   H     0.13022   0.51594   0.46547   0.00000  Uiso   1.00
H129   H     0.94185   0.55117   0.07893   0.00000  Uiso   1.00
O130   O     0.05734   0.89616   0.70437   0.00000  Uiso   1.00
O131   O     0.00521   0.49529   0.23009   0.00000  Uiso   1.00
O132   O     0.75807   0.54150   0.03493   0.00000  Uiso   1.00
N133   N     0.94808   0.83174   0.61856   0.00000  Uiso   1.00
N134   N     0.91094   0.54608   0.28056   0.00000  Uiso   1.00
N135   N     0.73483   0.57901   0.85407   0.00000  Uiso   1.00
N136   N     0.09925   0.81583   0.76274   0.00000  Uiso   1.00
N137   N     0.06211   0.53017   0.42474   0.00000  Uiso   1.00
N138   N     0.88600   0.56309   0.99826   0.00000  Uiso   1.00
C139   C     0.54498   0.12322   0.23128   0.00000  Uiso   1.00
C140   C     0.60643   0.16927   0.27084   0.00000  Uiso   1.00
C141   C     0.57325   0.21506   0.22313   0.00000  Uiso   1.00
C142   C     0.64089   0.25251   0.27159   0.00000  Uiso   1.00
C143   C     0.72151   0.32525   0.31885   0.00000  Uiso   1.00
C144   C     0.59936   0.08811   0.19126   0.00000  Uiso   1.00
C145   C     0.56022   0.06564   0.07664   0.00000  Uiso   1.00
C146   C     0.62191   0.03476   0.05813   0.00000  Uiso   1.00
C147   C     0.69152   0.98146   0.98188   0.00000  Uiso   1.00
C148   C     0.55192   0.10205   0.34885   0.00000  Uiso   1.00
C149   C     0.47291   0.09130   0.36674   0.00000  Uiso   1.00
C150   C     0.49465   0.07214   0.48091   0.00000  Uiso   1.00
C151   C     0.49062   0.04049   0.64935   0.00000  Uiso   1.00
C152   C     0.72411   0.10831   0.40220   0.00000  Uiso   1.00
C153   C     0.70372   0.16117   0.36367   0.00000  Uiso   1.00
C154   C     0.77143   0.19856   0.41223   0.00000  Uiso   1.00
C155   C     0.73835   0.24440   0.36460   0.00000  Uiso   1.00
C156   C     0.69664   0.08001   0.28409   0.00000  Uiso   1.00
C157   C     0.75840   0.04915   0.26575   0.00000  Uiso   1.00
C158   C     0.71937   0.02665   0.15114   0.00000  Uiso   1.00
C159   C     0.64921   0.09395   0.44169   0.00000  Uiso   1.00
C160   C     0.67109   0.07480   0.55585   0.00000  Uiso   1.00
C161   C     0.59212   0.06403   0.57391   0.00000  Uiso   1.00
H162   H     0.46924   0.12952   0.15899   0.00000  Uiso   1.00
H163   H     0.49795   0.22131   0.15127   0.00000  Uiso   1.00
H164   H     0.48493   0.07191   0.00482   0.00000  Uiso   1.00
H165   H     0.39763   0.09757   0.29488   0.00000  Uiso   1.00
H166   H     0.57270   0.31951   0.18362   0.00000  Uiso   1.00
H167   H     0.54522   0.00448   0.87484   0.00000  Uiso   1.00
H168   H     0.36113   0.05858   0.48648   0.00000  Uiso   1.00
H169   H     0.79986   0.10200   0.47448   0.00000  Uiso   1.00
H170   H     0.84671   0.19229   0.48407   0.00000  Uiso   1.00
H171   H     0.83368   0.04289   0.33761   0.00000  Uiso   1.00
H172   H     0.74639   0.06854   0.62767   0.00000  Uiso   1.00
H173   H     0.85577   0.29595   0.45373   0.00000  Uiso   1.00
H174   H     0.82829   0.98092   0.14494   0.00000  Uiso   1.00
H175   H     0.64420   0.03502   0.75658   0.00000  Uiso   1.00
O176   O     0.73910   0.36761   0.31926   0.00000  Uiso   1.00
O177   O     0.70304   0.95431   0.91416   0.00000  Uiso   1.00
O178   O     0.46152   0.02528   0.71661   0.00000  Uiso   1.00
N179   N     0.63289   0.30157   0.24589   0.00000  Uiso   1.00
N180   N     0.60720   0.00705   0.95719   0.00000  Uiso   1.00
N181   N     0.43509   0.05761   0.52901   0.00000  Uiso   1.00
N182   N     0.78520   0.28890   0.39123   0.00000  Uiso   1.00
N183   N     0.75952   0.99437   0.10253   0.00000  Uiso   1.00
N184   N     0.58741   0.04493   0.67435   0.00000  Uiso   1.00
C185   C     0.85131   0.84630   0.07175   0.00000  Uiso   1.00
C186   C     0.91491   0.80112   0.11990   0.00000  Uiso   1.00
C187   C     0.88419   0.75427   0.08005   0.00000  Uiso   1.00
C188   C     0.95353   0.71790   0.13563   0.00000  Uiso   1.00
C189   C     0.03763   0.64620   0.19634   0.00000  Uiso   1.00
C190   C     0.90469   0.87984   0.02673   0.00000  Uiso   1.00
C191   C     0.86536   0.89919   0.90856   0.00000  Uiso   1.00
C192   C     0.92609   0.92909   0.88573   0.00000  Uiso   1.00
C193   C     0.99427   0.97964   0.80182   0.00000  Uiso   1.00
C194   C     0.85615   0.87076   0.18480   0.00000  Uiso   1.00
C195   C     0.77601   0.88248   0.19952   0.00000  Uiso   1.00
C196   C     0.79587   0.90475   0.30976   0.00000  Uiso   1.00
C197   C     0.78870   0.94120   0.47128   0.00000  Uiso   1.00
C198   C     0.02908   0.86502   0.24131   0.00000  Uiso   1.00
C199   C     0.01148   0.81129   0.21199   0.00000  Uiso   1.00
C200   C     0.08088   0.77498   0.26765   0.00000  Uiso   1.00
C201   C     0.05027   0.72808   0.22790   0.00000  Uiso   1.00
C202   C     0.00125   0.89001   0.11883   0.00000  Uiso   1.00
C203   C     0.06205   0.91990   0.09616   0.00000  Uiso   1.00
C204   C     0.02282   0.93928   0.97799   0.00000  Uiso   1.00
C205   C     0.95271   0.88093   0.27690   0.00000  Uiso   1.00
C206   C     0.97270   0.90319   0.38712   0.00000  Uiso   1.00
C207   C     0.89261   0.91494   0.40202   0.00000  Uiso   1.00
H208   H     0.77613   0.83839   0.00004   0.00000  Uiso   1.00
H209   H     0.80946   0.74642   0.00877   0.00000  Uiso   1.00
H210   H     0.79063   0.89132   0.83732   0.00000  Uiso   1.00
H211   H     0.70130   0.87461   0.12823   0.00000  Uiso   1.00
H212   H     0.88901   0.64893   0.05903   0.00000  Uiso   1.00
H213   H     0.84928   0.95448   0.69752   0.00000  Uiso   1.00
H214   H     0.66091   0.91925   0.31098   0.00000  Uiso   1.00
H215   H     0.10427   0.87294   0.31301   0.00000  Uiso   1.00
H216   H     0.15560   0.78286   0.33892   0.00000  Uiso   1.00
H217   H     0.13677   0.92776   0.16746   0.00000  Uiso   1.00
H218   H     0.04744   0.91105   0.45837   0.00000  Uiso   1.00
H219   H     0.16995   0.67851   0.32699   0.00000  Uiso   1.00
H220   H     0.13022   0.98406   0.96547   0.00000  Uiso   1.00
H221   H     0.94185   0.94883   0.57893   0.00000  Uiso   1.00
O222   O     0.05734   0.60384   0.20437   0.00000  Uiso   1.00
O223   O     0.00521   0.00471   0.73009   0.00000  Uiso   1.00
O224   O     0.75807   0.95850   0.53493   0.00000  Uiso   1.00
N225   N     0.94808   0.66826   0.11856   0.00000  Uiso   1.00
N226   N     0.91094   0.95392   0.78056   0.00000  Uiso   1.00
N227   N     0.73483   0.92099   0.35407   0.00000  Uiso   1.00
N228   N     0.09925   0.68417   0.26274   0.00000  Uiso   1.00
N229   N     0.06211   0.96983   0.92474   0.00000  Uiso   1.00
N230   N     0.88600   0.93691   0.49826   0.00000  Uiso   1.00
C231   C     0.54498   0.37678   0.73128   0.00000  Uiso   1.00
C232   C     0.60643   0.33073   0.77084   0.00000  Uiso   1.00
C233   C     0.57325   0.28494   0.72313   0.00000  Uiso   1.00
C234   C     0.64089   0.24749   0.77159   0.00000  Uiso   1.00
C235   C     0.72151   0.17475   0.81885   0.00000  Uiso   1.00
C236   C     0.59936   0.41189   0.69126   0.00000  Uiso   1.00
C237   C     0.56022   0.43436   0.57664   0.00000  Uiso   1.00
C238   C     0.62191   0.46524   0.55813   0.00000  Uiso   1.00
C239   C     0.69152   0.51854   0.48188   0.00000  Uiso   1.00
C240   C     0.55192   0.39795   0.84885   0.00000  Uiso   1.00
C241   C     0.47291   0.40870   0.86674   0.00000  Uiso   1.00
C242   C     0.49465   0.42786   0.98091   0.00000  Uiso   1.00
C243   C     0.49062   0.45951   0.14935   0.00000  Uiso   1.00
C244   C     0.72411   0.39169   0.90220   0.00000  Uiso   1.00
C245   C     0.70372   0.33883   0.86367   0.00000  Uiso   1.00
C246   C     0.77143   0.30144   0.91223   0.00000  Uiso   1.00
C247   C     0.73835   0.25560   0.86460   0.00000  Uiso   1.00
C248   C     0.69664   0.41999   0.78409   0.00000  Uiso   1.00
C249   C     0.75840   0.45085   0.76575   0.00000  Uiso   1.00
C250   C     0.71937   0.47335   0.65114   0.00000  Uiso   1.00
C251   C     0.64921   0.40605   0.94169   0.00000  Uiso   1.00
C252   C     0.67109   0.42520   0.05585   0.00000  Uiso   1.00
C253   C     0.59212   0.43597   0.07391   0.00000  Uiso   1.00
H254   H     0.46924   0.37048   0.65899   0.00000  Uiso   1.00
H255   H     0.49795   0.27869   0.65127   0.00000  Uiso   1.00
H256   H     0.48493   0.42809   0.50482   0.00000  Uiso   1.00
H257   H     0.39763   0.40243   0.79488   0.00000  Uiso   1.00
H258   H     0.57270   0.18049   0.68362   0.00000  Uiso   1.00
H259   H     0.54522   0.49552   0.37484   0.00000  Uiso   1.00
H260   H     0.36113   0.44142   0.98648   0.00000  Uiso   1.00
H261   H     0.79986   0.39800   0.97448   0.00000  Uiso   1.00
H262   H     0.84671   0.30771   0.98407   0.00000  Uiso   1.00
H263   H     0.83368   0.45711   0.83761   0.00000  Uiso   1.00
H264   H     0.74639   0.43146   0.12767   0.00000  Uiso   1.00
H265   H     0.85577   0.20405   0.95373   0.00000  Uiso   1.00
H266   H     0.82829   0.51908   0.64494   0.00000  Uiso   1.00
H267   H     0.64420   0.46498   0.25658   0.00000  Uiso   1.00
O268   O     0.73910   0.13239   0.81926   0.00000  Uiso   1.00
O269   O     0.70304   0.54569   0.41416   0.00000  Uiso   1.00
O270   O     0.46152   0.47472   0.21661   0.00000  Uiso   1.00
N271   N     0.63289   0.19843   0.74589   0.00000  Uiso   1.00
N272   N     0.60720   0.49295   0.45719   0.00000  Uiso   1.00
N273   N     0.43509   0.44239   0.02901   0.00000  Uiso   1.00
N274   N     0.78520   0.21110   0.89123   0.00000  Uiso   1.00
N275   N     0.75952   0.50563   0.60253   0.00000  Uiso   1.00
N276   N     0.58741   0.45507   0.17435   0.00000  Uiso   1.00
C277   C     0.14869   0.34630   0.42825   0.00000  Uiso   1.00
C278   C     0.08509   0.30112   0.38010   0.00000  Uiso   1.00
C279   C     0.11581   0.25427   0.41995   0.00000  Uiso   1.00
C280   C     0.04647   0.21790   0.36437   0.00000  Uiso   1.00
C281   C     0.96237   0.14620   0.30366   0.00000  Uiso   1.00
C282   C     0.09531   0.37984   0.47327   0.00000  Uiso   1.00
C283   C     0.13464   0.39919   0.59144   0.00000  Uiso   1.00
C284   C     0.07391   0.42909   0.61427   0.00000  Uiso   1.00
C285   C     0.00573   0.47964   0.69818   0.00000  Uiso   1.00
C286   C     0.14385   0.37076   0.31520   0.00000  Uiso   1.00
C287   C     0.22399   0.38248   0.30048   0.00000  Uiso   1.00
C288   C     0.20413   0.40475   0.19024   0.00000  Uiso   1.00
C289   C     0.21130   0.44120   0.02872   0.00000  Uiso   1.00
C290   C     0.97092   0.36502   0.25869   0.00000  Uiso   1.00
C291   C     0.98852   0.31129   0.28801   0.00000  Uiso   1.00
C292   C     0.91912   0.27498   0.23235   0.00000  Uiso   1.00
C293   C     0.94973   0.22808   0.27210   0.00000  Uiso   1.00
C294   C     0.99875   0.39001   0.38117   0.00000  Uiso   1.00
C295   C     0.93795   0.41990   0.40384   0.00000  Uiso   1.00
C296   C     0.97718   0.43928   0.52201   0.00000  Uiso   1.00
C297   C     0.04729   0.38093   0.22310   0.00000  Uiso   1.00
C298   C     0.02730   0.40319   0.11288   0.00000  Uiso   1.00
C299   C     0.10739   0.41494   0.09798   0.00000  Uiso   1.00
H300   H     0.22387   0.33839   0.49996   0.00000  Uiso   1.00
H301   H     0.19054   0.24642   0.49123   0.00000  Uiso   1.00
H302   H     0.20937   0.39132   0.66268   0.00000  Uiso   1.00
H303   H     0.29870   0.37461   0.37177   0.00000  Uiso   1.00
H304   H     0.11099   0.14893   0.44097   0.00000  Uiso   1.00
H305   H     0.15072   0.45448   0.80248   0.00000  Uiso   1.00
H306   H     0.33909   0.41925   0.18902   0.00000  Uiso   1.00
H307   H     0.89573   0.37294   0.18699   0.00000  Uiso   1.00
H308   H     0.84440   0.28286   0.16108   0.00000  Uiso   1.00
H309   H     0.86323   0.42776   0.33254   0.00000  Uiso   1.00
H310   H     0.95256   0.41105   0.04163   0.00000  Uiso   1.00
H311   H     0.83005   0.17851   0.17301   0.00000  Uiso   1.00
H312   H     0.86978   0.48406   0.53453   0.00000  Uiso   1.00
H313   H     0.05815   0.44883   0.92107   0.00000  Uiso   1.00
O314   O     0.94266   0.10384   0.29563   0.00000  Uiso   1.00
O315   O     0.99479   0.50471   0.76991   0.00000  Uiso   1.00
O316   O     0.24193   0.45850   0.96507   0.00000  Uiso   1.00
N317   N     0.05192   0.16826   0.38144   0.00000  Uiso   1.00
N318   N     0.08906   0.45392   0.71944   0.00000  Uiso   1.00
N319   N     0.26517   0.42099   0.14593   0.00000  Uiso   1.00
N320   N     0.90075   0.18417   0.23726   0.00000  Uiso   1.00
N321   N     0.93789   0.46983   0.57526   0.00000  Uiso   1.00
N322   N     0.11400   0.43691   0.00174   0.00000  Uiso   1.00
C323   C     0.45502   0.87678   0.76872   0.00000  Uiso   1.00
C324   C     0.39357   0.83073   0.72916   0.00000  Uiso   1.00
C325   C     0.42675   0.78494   0.77687   0.00000  Uiso   1.00
C326   C     0.35911   0.74749   0.72841   0.00000  Uiso   1.00
C327   C     0.27849   0.67475   0.68115   0.00000  Uiso   1.00
C328   C     0.40064   0.91189   0.80874   0.00000  Uiso   1.00
C329   C     0.43978   0.93436   0.92336   0.00000  Uiso   1.00
C330   C     0.37809   0.96524   0.94187   0.00000  Uiso   1.00
C331   C     0.30848   0.01854   0.01812   0.00000  Uiso   1.00
C332   C     0.44808   0.89795   0.65115   0.00000  Uiso   1.00
C333   C     0.52709   0.90870   0.63326   0.00000  Uiso   1.00
C334   C     0.50535   0.92786   0.51909   0.00000  Uiso   1.00
C335   C     0.50938   0.95951   0.35065   0.00000  Uiso   1.00
C336   C     0.27589   0.89169   0.59780   0.00000  Uiso   1.00
C337   C     0.29628   0.83883   0.63633   0.00000  Uiso   1.00
C338   C     0.22857   0.80144   0.58777   0.00000  Uiso   1.00
C339   C     0.26165   0.75560   0.63540   0.00000  Uiso   1.00
C340   C     0.30336   0.91999   0.71591   0.00000  Uiso   1.00
C341   C     0.24160   0.95085   0.73425   0.00000  Uiso   1.00
C342   C     0.28063   0.97335   0.84886   0.00000  Uiso   1.00
C343   C     0.35079   0.90605   0.55831   0.00000  Uiso   1.00
C344   C     0.32891   0.92520   0.44415   0.00000  Uiso   1.00
C345   C     0.40788   0.93597   0.42609   0.00000  Uiso   1.00
H346   H     0.53076   0.87048   0.84101   0.00000  Uiso   1.00
H347   H     0.50205   0.77869   0.84873   0.00000  Uiso   1.00
H348   H     0.51507   0.92809   0.99518   0.00000  Uiso   1.00
H349   H     0.60237   0.90243   0.70512   0.00000  Uiso   1.00
H350   H     0.42730   0.68049   0.81638   0.00000  Uiso   1.00
H351   H     0.45478   0.99552   0.12516   0.00000  Uiso   1.00
H352   H     0.63887   0.94142   0.51352   0.00000  Uiso   1.00
H353   H     0.20014   0.89800   0.52552   0.00000  Uiso   1.00
H354   H     0.15329   0.80771   0.51593   0.00000  Uiso   1.00
H355   H     0.16632   0.95711   0.66239   0.00000  Uiso   1.00
H356   H     0.25361   0.93146   0.37233   0.00000  Uiso   1.00
H357   H     0.14423   0.70405   0.54627   0.00000  Uiso   1.00
H358   H     0.17171   0.01908   0.85506   0.00000  Uiso   1.00
H359   H     0.35580   0.96498   0.24342   0.00000  Uiso   1.00
O360   O     0.26090   0.63239   0.68074   0.00000  Uiso   1.00
O361   O     0.29696   0.04569   0.08584   0.00000  Uiso   1.00
O362   O     0.53848   0.97472   0.28339   0.00000  Uiso   1.00
N363   N     0.36711   0.69843   0.75411   0.00000  Uiso   1.00
N364   N     0.39280   0.99295   0.04281   0.00000  Uiso   1.00
N365   N     0.56491   0.94239   0.47099   0.00000  Uiso   1.00
N366   N     0.21480   0.71110   0.60877   0.00000  Uiso   1.00
N367   N     0.24048   0.00563   0.89747   0.00000  Uiso   1.00
N368   N     0.41259   0.95507   0.32565   0.00000  Uiso   1.00
