data_job_03207
_audit_creation_date              2018-12-19
_audit_creation_method            'Materials Studio'
_symmetry_space_group_name_H-M    'P1'
_symmetry_Int_Tables_number       1
_symmetry_cell_setting            triclinic
loop_
_symmetry_equiv_pos_as_xyz
  x,y,z
_cell_length_a                    22.5461
_cell_length_b                    13.9907
_cell_length_c                    8.3549
_cell_angle_alpha                 90.0000
_cell_angle_beta                  90.0000
_cell_angle_gamma                 90.0000
loop_
_atom_site_label
_atom_site_type_symbol
_atom_site_fract_x
_atom_site_fract_y
_atom_site_fract_z
_atom_site_U_iso_or_equiv
_atom_site_adp_type
_atom_site_occupancy
C1     C     0.42740   0.77194   0.05731   0.00000  Uiso   1.00
C2     C     0.38345   0.79848   0.18872   0.00000  Uiso   1.00
C3     C     0.34357   0.87398   0.18357   0.00000  Uiso   1.00
C4     C     0.30712   0.88636   0.31590   0.00000  Uiso   1.00
C5     C     0.23838   0.93687   0.49981   0.00000  Uiso   1.00
C6     C     0.48847   0.77242   0.13576   0.00000  Uiso   1.00
C7     C     0.53690   0.82599   0.08607   0.00000  Uiso   1.00
C8     C     0.58886   0.81642   0.17381   0.00000  Uiso   1.00
C9     C     0.68318   0.82641   0.27543   0.00000  Uiso   1.00
C10    C     0.41453   0.66800   0.01476   0.00000  Uiso   1.00
C11    C     0.40080   0.63378   0.86332   0.00000  Uiso   1.00
C12    C     0.39052   0.53629   0.84917   0.00000  Uiso   1.00
C13    C     0.37004   0.38417   0.76292   0.00000  Uiso   1.00
C14    C     0.43359   0.65968   0.30146   0.00000  Uiso   1.00
C15    C     0.38681   0.73750   0.32134   0.00000  Uiso   1.00
C16    C     0.35041   0.74977   0.45370   0.00000  Uiso   1.00
C17    C     0.31048   0.82527   0.44875   0.00000  Uiso   1.00
C18    C     0.49183   0.71144   0.26837   0.00000  Uiso   1.00
C19    C     0.54373   0.70178   0.35620   0.00000  Uiso   1.00
C20    C     0.59222   0.75533   0.30666   0.00000  Uiso   1.00
C21    C     0.41789   0.60702   0.14737   0.00000  Uiso   1.00
C22    C     0.40764   0.50957   0.13346   0.00000  Uiso   1.00
C23    C     0.39389   0.47520   0.98203   0.00000  Uiso   1.00
H24    H     0.42480   0.81942   0.95406   0.00000  Uiso   1.00
H25    H     0.34099   0.92116   0.08093   0.00000  Uiso   1.00
H26    H     0.53429   0.87317   0.98343   0.00000  Uiso   1.00
H27    H     0.39821   0.68099   0.76073   0.00000  Uiso   1.00
H28    H     0.24958   0.00708   0.28009   0.00000  Uiso   1.00
H29    H     0.65715   0.90587   0.07448   0.00000  Uiso   1.00
H30    H     0.37021   0.50062   0.60485   0.00000  Uiso   1.00
H31    H     0.43620   0.61220   0.40471   0.00000  Uiso   1.00
H32    H     0.35302   0.70257   0.55631   0.00000  Uiso   1.00
H33    H     0.54632   0.65458   0.45881   0.00000  Uiso   1.00
H34    H     0.41024   0.46240   0.23610   0.00000  Uiso   1.00
H35    H     0.25934   0.82967   0.66593   0.00000  Uiso   1.00
H36    H     0.66692   0.72845   0.46032   0.00000  Uiso   1.00
H37    H     0.37997   0.32321   0.99069   0.00000  Uiso   1.00
O38    O     0.19955   0.98158   0.56463   0.00000  Uiso   1.00
O39    O     0.73428   0.84878   0.29486   0.00000  Uiso   1.00
O40    O     0.35781   0.31711   0.67872   0.00000  Uiso   1.00
N41    N     0.26328   0.95292   0.35008   0.00000  Uiso   1.00
N42    N     0.64434   0.85830   0.15787   0.00000  Uiso   1.00
N43    N     0.37609   0.47942   0.71879   0.00000  Uiso   1.00
N44    N     0.26853   0.85745   0.55770   0.00000  Uiso   1.00
N45    N     0.64959   0.76283   0.36548   0.00000  Uiso   1.00
N46    N     0.38134   0.38396   0.92641   0.00000  Uiso   1.00
C47    C     0.57260   0.22806   0.05731   0.00000  Uiso   1.00
C48    C     0.61655   0.20152   0.18872   0.00000  Uiso   1.00
C49    C     0.65643   0.12602   0.18357   0.00000  Uiso   1.00
C50    C     0.69288   0.11364   0.31590   0.00000  Uiso   1.00
C51    C     0.76162   0.06313   0.49981   0.00000  Uiso   1.00
C52    C     0.51153   0.22758   0.13576   0.00000  Uiso   1.00
C53    C     0.46310   0.17401   0.08607   0.00000  Uiso   1.00
C54    C     0.41114   0.18358   0.17381   0.00000  Uiso   1.00
C55    C     0.31682   0.17359   0.27543   0.00000  Uiso   1.00
C56    C     0.58547   0.33200   0.01476   0.00000  Uiso   1.00
C57    C     0.59920   0.36622   0.86332   0.00000  Uiso   1.00
C58    C     0.60948   0.46371   0.84917   0.00000  Uiso   1.00
C59    C     0.62996   0.61583   0.76292   0.00000  Uiso   1.00
C60    C     0.56641   0.34032   0.30146   0.00000  Uiso   1.00
C61    C     0.61319   0.26250   0.32134   0.00000  Uiso   1.00
C62    C     0.64959   0.25023   0.45370   0.00000  Uiso   1.00
C63    C     0.68952   0.17473   0.44875   0.00000  Uiso   1.00
C64    C     0.50817   0.28856   0.26837   0.00000  Uiso   1.00
C65    C     0.45627   0.29822   0.35620   0.00000  Uiso   1.00
C66    C     0.40778   0.24467   0.30666   0.00000  Uiso   1.00
C67    C     0.58211   0.39298   0.14737   0.00000  Uiso   1.00
C68    C     0.59236   0.49043   0.13346   0.00000  Uiso   1.00
C69    C     0.60611   0.52480   0.98203   0.00000  Uiso   1.00
H70    H     0.57520   0.18058   0.95406   0.00000  Uiso   1.00
H71    H     0.65901   0.07884   0.08093   0.00000  Uiso   1.00
H72    H     0.46571   0.12683   0.98343   0.00000  Uiso   1.00
H73    H     0.60179   0.31901   0.76073   0.00000  Uiso   1.00
H74    H     0.75042   0.99292   0.28009   0.00000  Uiso   1.00
H75    H     0.34285   0.09413   0.07448   0.00000  Uiso   1.00
H76    H     0.62979   0.49938   0.60485   0.00000  Uiso   1.00
H77    H     0.56380   0.38780   0.40471   0.00000  Uiso   1.00
H78    H     0.64698   0.29743   0.55631   0.00000  Uiso   1.00
H79    H     0.45368   0.34542   0.45881   0.00000  Uiso   1.00
H80    H     0.58976   0.53760   0.23610   0.00000  Uiso   1.00
H81    H     0.74066   0.17033   0.66593   0.00000  Uiso   1.00
H82    H     0.33308   0.27155   0.46032   0.00000  Uiso   1.00
H83    H     0.62003   0.67679   0.99069   0.00000  Uiso   1.00
O84    O     0.80045   0.01842   0.56463   0.00000  Uiso   1.00
O85    O     0.26572   0.15122   0.29486   0.00000  Uiso   1.00
O86    O     0.64219   0.68289   0.67872   0.00000  Uiso   1.00
N87    N     0.73672   0.04708   0.35008   0.00000  Uiso   1.00
N88    N     0.35566   0.14170   0.15787   0.00000  Uiso   1.00
N89    N     0.62391   0.52058   0.71879   0.00000  Uiso   1.00
N90    N     0.73147   0.14255   0.55770   0.00000  Uiso   1.00
N91    N     0.35041   0.23717   0.36548   0.00000  Uiso   1.00
N92    N     0.61866   0.61604   0.92641   0.00000  Uiso   1.00
C93    C     0.07260   0.27194   0.94269   0.00000  Uiso   1.00
C94    C     0.11655   0.29848   0.81128   0.00000  Uiso   1.00
C95    C     0.15643   0.37398   0.81643   0.00000  Uiso   1.00
C96    C     0.19288   0.38636   0.68410   0.00000  Uiso   1.00
C97    C     0.26162   0.43687   0.50019   0.00000  Uiso   1.00
C98    C     0.01153   0.27242   0.86424   0.00000  Uiso   1.00
C99    C     0.96310   0.32599   0.91393   0.00000  Uiso   1.00
C100   C     0.91114   0.31642   0.82619   0.00000  Uiso   1.00
C101   C     0.81682   0.32641   0.72457   0.00000  Uiso   1.00
C102   C     0.08547   0.16800   0.98524   0.00000  Uiso   1.00
C103   C     0.09920   0.13378   0.13668   0.00000  Uiso   1.00
C104   C     0.10948   0.03629   0.15083   0.00000  Uiso   1.00
C105   C     0.12996   0.88417   0.23708   0.00000  Uiso   1.00
C106   C     0.06641   0.15968   0.69854   0.00000  Uiso   1.00
C107   C     0.11319   0.23750   0.67866   0.00000  Uiso   1.00
C108   C     0.14959   0.24977   0.54630   0.00000  Uiso   1.00
C109   C     0.18952   0.32527   0.55125   0.00000  Uiso   1.00
C110   C     0.00817   0.21144   0.73163   0.00000  Uiso   1.00
C111   C     0.95627   0.20178   0.64380   0.00000  Uiso   1.00
C112   C     0.90778   0.25533   0.69334   0.00000  Uiso   1.00
C113   C     0.08211   0.10702   0.85263   0.00000  Uiso   1.00
C114   C     0.09236   0.00957   0.86654   0.00000  Uiso   1.00
C115   C     0.10611   0.97520   0.01797   0.00000  Uiso   1.00
H116   H     0.07520   0.31942   0.04594   0.00000  Uiso   1.00
H117   H     0.15901   0.42116   0.91907   0.00000  Uiso   1.00
H118   H     0.96571   0.37317   0.01657   0.00000  Uiso   1.00
H119   H     0.10179   0.18099   0.23927   0.00000  Uiso   1.00
H120   H     0.25042   0.50708   0.71991   0.00000  Uiso   1.00
H121   H     0.84285   0.40587   0.92552   0.00000  Uiso   1.00
H122   H     0.12979   0.00062   0.39515   0.00000  Uiso   1.00
H123   H     0.06380   0.11220   0.59529   0.00000  Uiso   1.00
H124   H     0.14698   0.20257   0.44369   0.00000  Uiso   1.00
H125   H     0.95368   0.15458   0.54119   0.00000  Uiso   1.00
H126   H     0.08976   0.96240   0.76390   0.00000  Uiso   1.00
H127   H     0.24066   0.32967   0.33407   0.00000  Uiso   1.00
H128   H     0.83308   0.22845   0.53968   0.00000  Uiso   1.00
H129   H     0.12003   0.82321   0.00931   0.00000  Uiso   1.00
O130   O     0.30045   0.48158   0.43537   0.00000  Uiso   1.00
O131   O     0.76572   0.34878   0.70514   0.00000  Uiso   1.00
O132   O     0.14219   0.81711   0.32128   0.00000  Uiso   1.00
N133   N     0.23672   0.45292   0.64992   0.00000  Uiso   1.00
N134   N     0.85566   0.35830   0.84213   0.00000  Uiso   1.00
N135   N     0.12391   0.97942   0.28121   0.00000  Uiso   1.00
N136   N     0.23147   0.35745   0.44230   0.00000  Uiso   1.00
N137   N     0.85041   0.26283   0.63452   0.00000  Uiso   1.00
N138   N     0.11866   0.88396   0.07359   0.00000  Uiso   1.00
C139   C     0.92740   0.72806   0.94269   0.00000  Uiso   1.00
C140   C     0.88345   0.70152   0.81128   0.00000  Uiso   1.00
C141   C     0.84357   0.62602   0.81643   0.00000  Uiso   1.00
C142   C     0.80712   0.61364   0.68410   0.00000  Uiso   1.00
C143   C     0.73838   0.56313   0.50019   0.00000  Uiso   1.00
C144   C     0.98847   0.72758   0.86424   0.00000  Uiso   1.00
C145   C     0.03690   0.67401   0.91393   0.00000  Uiso   1.00
C146   C     0.08886   0.68358   0.82619   0.00000  Uiso   1.00
C147   C     0.18318   0.67359   0.72457   0.00000  Uiso   1.00
C148   C     0.91453   0.83200   0.98524   0.00000  Uiso   1.00
C149   C     0.90080   0.86622   0.13668   0.00000  Uiso   1.00
C150   C     0.89052   0.96371   0.15083   0.00000  Uiso   1.00
C151   C     0.87004   0.11583   0.23708   0.00000  Uiso   1.00
C152   C     0.93359   0.84032   0.69854   0.00000  Uiso   1.00
C153   C     0.88681   0.76250   0.67866   0.00000  Uiso   1.00
C154   C     0.85041   0.75023   0.54630   0.00000  Uiso   1.00
C155   C     0.81048   0.67473   0.55125   0.00000  Uiso   1.00
C156   C     0.99183   0.78856   0.73163   0.00000  Uiso   1.00
C157   C     0.04373   0.79822   0.64380   0.00000  Uiso   1.00
C158   C     0.09222   0.74467   0.69334   0.00000  Uiso   1.00
C159   C     0.91789   0.89298   0.85263   0.00000  Uiso   1.00
C160   C     0.90764   0.99043   0.86654   0.00000  Uiso   1.00
C161   C     0.89389   0.02480   0.01797   0.00000  Uiso   1.00
H162   H     0.92480   0.68058   0.04594   0.00000  Uiso   1.00
H163   H     0.84099   0.57884   0.91907   0.00000  Uiso   1.00
H164   H     0.03429   0.62683   0.01657   0.00000  Uiso   1.00
H165   H     0.89821   0.81901   0.23927   0.00000  Uiso   1.00
H166   H     0.74958   0.49292   0.71991   0.00000  Uiso   1.00
H167   H     0.15715   0.59413   0.92552   0.00000  Uiso   1.00
H168   H     0.87021   0.99938   0.39515   0.00000  Uiso   1.00
H169   H     0.93620   0.88780   0.59529   0.00000  Uiso   1.00
H170   H     0.85302   0.79743   0.44369   0.00000  Uiso   1.00
H171   H     0.04632   0.84542   0.54119   0.00000  Uiso   1.00
H172   H     0.91024   0.03760   0.76390   0.00000  Uiso   1.00
H173   H     0.75934   0.67033   0.33407   0.00000  Uiso   1.00
H174   H     0.16692   0.77155   0.53968   0.00000  Uiso   1.00
H175   H     0.87997   0.17679   0.00931   0.00000  Uiso   1.00
O176   O     0.69955   0.51842   0.43537   0.00000  Uiso   1.00
O177   O     0.23428   0.65122   0.70514   0.00000  Uiso   1.00
O178   O     0.85781   0.18289   0.32128   0.00000  Uiso   1.00
N179   N     0.76328   0.54708   0.64992   0.00000  Uiso   1.00
N180   N     0.14434   0.64170   0.84213   0.00000  Uiso   1.00
N181   N     0.87609   0.02058   0.28121   0.00000  Uiso   1.00
N182   N     0.76853   0.64255   0.44230   0.00000  Uiso   1.00
N183   N     0.14959   0.73717   0.63452   0.00000  Uiso   1.00
N184   N     0.88134   0.11604   0.07359   0.00000  Uiso   1.00
