data_job_01533
_audit_creation_date              2018-12-19
_audit_creation_method            'Materials Studio'
_symmetry_space_group_name_H-M    'P1'
_symmetry_Int_Tables_number       1
_symmetry_cell_setting            triclinic
loop_
_symmetry_equiv_pos_as_xyz
  x,y,z
_cell_length_a                    10.8606
_cell_length_b                    31.3376
_cell_length_c                    14.1807
_cell_angle_alpha                 90.0000
_cell_angle_beta                  90.0000
_cell_angle_gamma                 90.0000
loop_
_atom_site_label
_atom_site_type_symbol
_atom_site_fract_x
_atom_site_fract_y
_atom_site_fract_z
_atom_site_U_iso_or_equiv
_atom_site_adp_type
_atom_site_occupancy
C1     C     0.46632   0.14940   0.38904   0.00000  Uiso   1.00
C2     C     0.41091   0.16429   0.29587   0.00000  Uiso   1.00
C3     C     0.34527   0.20177   0.28206   0.00000  Uiso   1.00
C4     C     0.30217   0.20963   0.19154   0.00000  Uiso   1.00
C5     C     0.21276   0.23710   0.05814   0.00000  Uiso   1.00
C6     C     0.41245   0.10526   0.40766   0.00000  Uiso   1.00
C7     C     0.34812   0.09310   0.48784   0.00000  Uiso   1.00
C8     C     0.30633   0.05126   0.49141   0.00000  Uiso   1.00
C9     C     0.21939   0.98707   0.53159   0.00000  Uiso   1.00
C10    C     0.60314   0.14254   0.37025   0.00000  Uiso   1.00
C11    C     0.69914   0.16171   0.41900   0.00000  Uiso   1.00
C12    C     0.81791   0.15125   0.39109   0.00000  Uiso   1.00
C13    C     0.02704   0.14494   0.37319   0.00000  Uiso   1.00
C14    C     0.50652   0.09671   0.25283   0.00000  Uiso   1.00
C15    C     0.43275   0.13567   0.22189   0.00000  Uiso   1.00
C16    C     0.38975   0.14348   0.13136   0.00000  Uiso   1.00
C17    C     0.32405   0.18096   0.11742   0.00000  Uiso   1.00
C18    C     0.43428   0.07664   0.33368   0.00000  Uiso   1.00
C19    C     0.39259   0.03481   0.33714   0.00000  Uiso   1.00
C20    C     0.32820   0.02259   0.41730   0.00000  Uiso   1.00
C21    C     0.62498   0.11392   0.29627   0.00000  Uiso   1.00
C22    C     0.74362   0.10342   0.26829   0.00000  Uiso   1.00
C23    C     0.83978   0.12258   0.31698   0.00000  Uiso   1.00
H24    H     0.44932   0.17168   0.44664   0.00000  Uiso   1.00
H25    H     0.32838   0.22391   0.33934   0.00000  Uiso   1.00
H26    H     0.33124   0.11525   0.54508   0.00000  Uiso   1.00
H27    H     0.68221   0.18386   0.47624   0.00000  Uiso   1.00
H28    H     0.20389   0.26919   0.18775   0.00000  Uiso   1.00
H29    H     0.20996   0.04008   0.62158   0.00000  Uiso   1.00
H30    H     0.95005   0.18474   0.47643   0.00000  Uiso   1.00
H31    H     0.52352   0.07443   0.19523   0.00000  Uiso   1.00
H32    H     0.40666   0.12132   0.07413   0.00000  Uiso   1.00
H33    H     0.40951   0.01267   0.27988   0.00000  Uiso   1.00
H34    H     0.76048   0.08127   0.21104   0.00000  Uiso   1.00
H35    H     0.26741   0.18592   0.97250   0.00000  Uiso   1.00
H36    H     0.27348   0.95682   0.40634   0.00000  Uiso   1.00
H37    H     0.01357   0.10148   0.26118   0.00000  Uiso   1.00
O38    O     0.15740   0.26015   0.00500   0.00000  Uiso   1.00
O39    O     0.16538   0.95957   0.57418   0.00000  Uiso   1.00
O40    O     0.13636   0.14937   0.38374   0.00000  Uiso   1.00
N41    N     0.23490   0.24316   0.15371   0.00000  Uiso   1.00
N42    N     0.24055   0.02896   0.55931   0.00000  Uiso   1.00
N43    N     0.93248   0.16420   0.42362   0.00000  Uiso   1.00
N44    N     0.26908   0.19836   0.03788   0.00000  Uiso   1.00
N45    N     0.27474   0.98416   0.44348   0.00000  Uiso   1.00
N46    N     0.96666   0.11939   0.30780   0.00000  Uiso   1.00
C47    C     0.46632   0.64940   0.88904   0.00000  Uiso   1.00
C48    C     0.41091   0.66429   0.79587   0.00000  Uiso   1.00
C49    C     0.34527   0.70177   0.78206   0.00000  Uiso   1.00
C50    C     0.30217   0.70963   0.69154   0.00000  Uiso   1.00
C51    C     0.21276   0.73710   0.55814   0.00000  Uiso   1.00
C52    C     0.41245   0.60526   0.90766   0.00000  Uiso   1.00
C53    C     0.34812   0.59310   0.98784   0.00000  Uiso   1.00
C54    C     0.30633   0.55126   0.99141   0.00000  Uiso   1.00
C55    C     0.21939   0.48707   0.03159   0.00000  Uiso   1.00
C56    C     0.60314   0.64254   0.87025   0.00000  Uiso   1.00
C57    C     0.69914   0.66171   0.91900   0.00000  Uiso   1.00
C58    C     0.81791   0.65125   0.89109   0.00000  Uiso   1.00
C59    C     0.02704   0.64494   0.87319   0.00000  Uiso   1.00
C60    C     0.50652   0.59671   0.75283   0.00000  Uiso   1.00
C61    C     0.43275   0.63567   0.72189   0.00000  Uiso   1.00
C62    C     0.38975   0.64348   0.63136   0.00000  Uiso   1.00
C63    C     0.32405   0.68096   0.61742   0.00000  Uiso   1.00
C64    C     0.43428   0.57664   0.83368   0.00000  Uiso   1.00
C65    C     0.39259   0.53481   0.83714   0.00000  Uiso   1.00
C66    C     0.32820   0.52259   0.91730   0.00000  Uiso   1.00
C67    C     0.62498   0.61392   0.79627   0.00000  Uiso   1.00
C68    C     0.74362   0.60342   0.76829   0.00000  Uiso   1.00
C69    C     0.83978   0.62258   0.81698   0.00000  Uiso   1.00
H70    H     0.44932   0.67168   0.94664   0.00000  Uiso   1.00
H71    H     0.32838   0.72391   0.83934   0.00000  Uiso   1.00
H72    H     0.33124   0.61525   0.04508   0.00000  Uiso   1.00
H73    H     0.68221   0.68386   0.97624   0.00000  Uiso   1.00
H74    H     0.20389   0.76919   0.68775   0.00000  Uiso   1.00
H75    H     0.20996   0.54008   0.12158   0.00000  Uiso   1.00
H76    H     0.95005   0.68474   0.97643   0.00000  Uiso   1.00
H77    H     0.52352   0.57443   0.69523   0.00000  Uiso   1.00
H78    H     0.40666   0.62132   0.57413   0.00000  Uiso   1.00
H79    H     0.40951   0.51267   0.77988   0.00000  Uiso   1.00
H80    H     0.76048   0.58127   0.71104   0.00000  Uiso   1.00
H81    H     0.26741   0.68592   0.47250   0.00000  Uiso   1.00
H82    H     0.27348   0.45682   0.90634   0.00000  Uiso   1.00
H83    H     0.01357   0.60148   0.76118   0.00000  Uiso   1.00
O84    O     0.15740   0.76015   0.50500   0.00000  Uiso   1.00
O85    O     0.16538   0.45957   0.07418   0.00000  Uiso   1.00
O86    O     0.13636   0.64937   0.88374   0.00000  Uiso   1.00
N87    N     0.23490   0.74316   0.65371   0.00000  Uiso   1.00
N88    N     0.24055   0.52896   0.05931   0.00000  Uiso   1.00
N89    N     0.93248   0.66420   0.92362   0.00000  Uiso   1.00
N90    N     0.26908   0.69836   0.53788   0.00000  Uiso   1.00
N91    N     0.27474   0.48416   0.94348   0.00000  Uiso   1.00
N92    N     0.96666   0.61939   0.80780   0.00000  Uiso   1.00
C93    C     0.53368   0.85060   0.38904   0.00000  Uiso   1.00
C94    C     0.58909   0.83571   0.29587   0.00000  Uiso   1.00
C95    C     0.65473   0.79823   0.28206   0.00000  Uiso   1.00
C96    C     0.69783   0.79037   0.19154   0.00000  Uiso   1.00
C97    C     0.78724   0.76290   0.05814   0.00000  Uiso   1.00
C98    C     0.58755   0.89474   0.40766   0.00000  Uiso   1.00
C99    C     0.65188   0.90690   0.48784   0.00000  Uiso   1.00
C100   C     0.69367   0.94874   0.49141   0.00000  Uiso   1.00
C101   C     0.78061   0.01293   0.53159   0.00000  Uiso   1.00
C102   C     0.39686   0.85746   0.37025   0.00000  Uiso   1.00
C103   C     0.30086   0.83829   0.41900   0.00000  Uiso   1.00
C104   C     0.18209   0.84875   0.39109   0.00000  Uiso   1.00
C105   C     0.97296   0.85506   0.37319   0.00000  Uiso   1.00
C106   C     0.49348   0.90329   0.25283   0.00000  Uiso   1.00
C107   C     0.56725   0.86433   0.22189   0.00000  Uiso   1.00
C108   C     0.61025   0.85652   0.13136   0.00000  Uiso   1.00
C109   C     0.67595   0.81904   0.11742   0.00000  Uiso   1.00
C110   C     0.56572   0.92336   0.33368   0.00000  Uiso   1.00
C111   C     0.60741   0.96519   0.33714   0.00000  Uiso   1.00
C112   C     0.67180   0.97741   0.41730   0.00000  Uiso   1.00
C113   C     0.37502   0.88608   0.29627   0.00000  Uiso   1.00
C114   C     0.25638   0.89658   0.26829   0.00000  Uiso   1.00
C115   C     0.16022   0.87742   0.31698   0.00000  Uiso   1.00
H116   H     0.55068   0.82832   0.44664   0.00000  Uiso   1.00
H117   H     0.67162   0.77609   0.33934   0.00000  Uiso   1.00
H118   H     0.66876   0.88475   0.54508   0.00000  Uiso   1.00
H119   H     0.31779   0.81614   0.47624   0.00000  Uiso   1.00
H120   H     0.79611   0.73081   0.18775   0.00000  Uiso   1.00
H121   H     0.79004   0.95992   0.62158   0.00000  Uiso   1.00
H122   H     0.04995   0.81526   0.47643   0.00000  Uiso   1.00
H123   H     0.47648   0.92557   0.19523   0.00000  Uiso   1.00
H124   H     0.59334   0.87868   0.07413   0.00000  Uiso   1.00
H125   H     0.59049   0.98733   0.27988   0.00000  Uiso   1.00
H126   H     0.23952   0.91873   0.21104   0.00000  Uiso   1.00
H127   H     0.73259   0.81408   0.97250   0.00000  Uiso   1.00
H128   H     0.72652   0.04318   0.40634   0.00000  Uiso   1.00
H129   H     0.98643   0.89852   0.26118   0.00000  Uiso   1.00
O130   O     0.84260   0.73985   0.00500   0.00000  Uiso   1.00
O131   O     0.83462   0.04043   0.57418   0.00000  Uiso   1.00
O132   O     0.86364   0.85063   0.38374   0.00000  Uiso   1.00
N133   N     0.76510   0.75684   0.15371   0.00000  Uiso   1.00
N134   N     0.75945   0.97104   0.55931   0.00000  Uiso   1.00
N135   N     0.06752   0.83580   0.42362   0.00000  Uiso   1.00
N136   N     0.73092   0.80164   0.03788   0.00000  Uiso   1.00
N137   N     0.72526   0.01584   0.44348   0.00000  Uiso   1.00
N138   N     0.03334   0.88061   0.30780   0.00000  Uiso   1.00
C139   C     0.53368   0.35060   0.88904   0.00000  Uiso   1.00
C140   C     0.58909   0.33571   0.79587   0.00000  Uiso   1.00
C141   C     0.65473   0.29823   0.78206   0.00000  Uiso   1.00
C142   C     0.69783   0.29037   0.69154   0.00000  Uiso   1.00
C143   C     0.78724   0.26290   0.55814   0.00000  Uiso   1.00
C144   C     0.58755   0.39474   0.90766   0.00000  Uiso   1.00
C145   C     0.65188   0.40690   0.98784   0.00000  Uiso   1.00
C146   C     0.69367   0.44874   0.99141   0.00000  Uiso   1.00
C147   C     0.78061   0.51293   0.03159   0.00000  Uiso   1.00
C148   C     0.39686   0.35746   0.87025   0.00000  Uiso   1.00
C149   C     0.30086   0.33829   0.91900   0.00000  Uiso   1.00
C150   C     0.18209   0.34875   0.89109   0.00000  Uiso   1.00
C151   C     0.97296   0.35506   0.87319   0.00000  Uiso   1.00
C152   C     0.49348   0.40329   0.75283   0.00000  Uiso   1.00
C153   C     0.56725   0.36433   0.72189   0.00000  Uiso   1.00
C154   C     0.61025   0.35652   0.63136   0.00000  Uiso   1.00
C155   C     0.67595   0.31904   0.61742   0.00000  Uiso   1.00
C156   C     0.56572   0.42336   0.83368   0.00000  Uiso   1.00
C157   C     0.60741   0.46519   0.83714   0.00000  Uiso   1.00
C158   C     0.67180   0.47741   0.91730   0.00000  Uiso   1.00
C159   C     0.37502   0.38608   0.79627   0.00000  Uiso   1.00
C160   C     0.25638   0.39658   0.76829   0.00000  Uiso   1.00
C161   C     0.16022   0.37742   0.81698   0.00000  Uiso   1.00
H162   H     0.55068   0.32832   0.94664   0.00000  Uiso   1.00
H163   H     0.67162   0.27609   0.83934   0.00000  Uiso   1.00
H164   H     0.66876   0.38475   0.04508   0.00000  Uiso   1.00
H165   H     0.31779   0.31614   0.97624   0.00000  Uiso   1.00
H166   H     0.79611   0.23081   0.68775   0.00000  Uiso   1.00
H167   H     0.79004   0.45992   0.12158   0.00000  Uiso   1.00
H168   H     0.04995   0.31526   0.97643   0.00000  Uiso   1.00
H169   H     0.47648   0.42557   0.69523   0.00000  Uiso   1.00
H170   H     0.59334   0.37868   0.57413   0.00000  Uiso   1.00
H171   H     0.59049   0.48733   0.77988   0.00000  Uiso   1.00
H172   H     0.23952   0.41873   0.71104   0.00000  Uiso   1.00
H173   H     0.73259   0.31408   0.47250   0.00000  Uiso   1.00
H174   H     0.72652   0.54318   0.90634   0.00000  Uiso   1.00
H175   H     0.98643   0.39852   0.76118   0.00000  Uiso   1.00
O176   O     0.84260   0.23985   0.50500   0.00000  Uiso   1.00
O177   O     0.83462   0.54043   0.07418   0.00000  Uiso   1.00
O178   O     0.86364   0.35063   0.88374   0.00000  Uiso   1.00
N179   N     0.76510   0.25684   0.65371   0.00000  Uiso   1.00
N180   N     0.75945   0.47104   0.05931   0.00000  Uiso   1.00
N181   N     0.06752   0.33580   0.92362   0.00000  Uiso   1.00
N182   N     0.73092   0.30164   0.53788   0.00000  Uiso   1.00
N183   N     0.72526   0.51584   0.94348   0.00000  Uiso   1.00
N184   N     0.03334   0.38061   0.80780   0.00000  Uiso   1.00
C185   C     0.96632   0.35060   0.38904   0.00000  Uiso   1.00
C186   C     0.91091   0.33571   0.29587   0.00000  Uiso   1.00
C187   C     0.84527   0.29823   0.28206   0.00000  Uiso   1.00
C188   C     0.80217   0.29037   0.19154   0.00000  Uiso   1.00
C189   C     0.71276   0.26290   0.05814   0.00000  Uiso   1.00
C190   C     0.91245   0.39474   0.40766   0.00000  Uiso   1.00
C191   C     0.84812   0.40690   0.48784   0.00000  Uiso   1.00
C192   C     0.80633   0.44874   0.49141   0.00000  Uiso   1.00
C193   C     0.71939   0.51293   0.53159   0.00000  Uiso   1.00
C194   C     0.10314   0.35746   0.37025   0.00000  Uiso   1.00
C195   C     0.19914   0.33829   0.41900   0.00000  Uiso   1.00
C196   C     0.31791   0.34875   0.39109   0.00000  Uiso   1.00
C197   C     0.52704   0.35506   0.37319   0.00000  Uiso   1.00
C198   C     0.00652   0.40329   0.25283   0.00000  Uiso   1.00
C199   C     0.93275   0.36433   0.22189   0.00000  Uiso   1.00
C200   C     0.88975   0.35652   0.13136   0.00000  Uiso   1.00
C201   C     0.82405   0.31904   0.11742   0.00000  Uiso   1.00
C202   C     0.93428   0.42336   0.33368   0.00000  Uiso   1.00
C203   C     0.89259   0.46519   0.33714   0.00000  Uiso   1.00
C204   C     0.82820   0.47741   0.41730   0.00000  Uiso   1.00
C205   C     0.12498   0.38608   0.29627   0.00000  Uiso   1.00
C206   C     0.24362   0.39658   0.26829   0.00000  Uiso   1.00
C207   C     0.33978   0.37742   0.31698   0.00000  Uiso   1.00
H208   H     0.94932   0.32832   0.44664   0.00000  Uiso   1.00
H209   H     0.82838   0.27609   0.33934   0.00000  Uiso   1.00
H210   H     0.83124   0.38475   0.54508   0.00000  Uiso   1.00
H211   H     0.18221   0.31614   0.47624   0.00000  Uiso   1.00
H212   H     0.70389   0.23081   0.18775   0.00000  Uiso   1.00
H213   H     0.70996   0.45992   0.62158   0.00000  Uiso   1.00
H214   H     0.45005   0.31526   0.47643   0.00000  Uiso   1.00
H215   H     0.02352   0.42557   0.19523   0.00000  Uiso   1.00
H216   H     0.90666   0.37868   0.07413   0.00000  Uiso   1.00
H217   H     0.90951   0.48733   0.27988   0.00000  Uiso   1.00
H218   H     0.26048   0.41873   0.21104   0.00000  Uiso   1.00
H219   H     0.76741   0.31408   0.97250   0.00000  Uiso   1.00
H220   H     0.77348   0.54318   0.40634   0.00000  Uiso   1.00
H221   H     0.51357   0.39852   0.26118   0.00000  Uiso   1.00
O222   O     0.65740   0.23985   0.00500   0.00000  Uiso   1.00
O223   O     0.66538   0.54043   0.57418   0.00000  Uiso   1.00
O224   O     0.63636   0.35063   0.38374   0.00000  Uiso   1.00
N225   N     0.73490   0.25684   0.15371   0.00000  Uiso   1.00
N226   N     0.74055   0.47104   0.55931   0.00000  Uiso   1.00
N227   N     0.43248   0.33580   0.42362   0.00000  Uiso   1.00
N228   N     0.76908   0.30164   0.03788   0.00000  Uiso   1.00
N229   N     0.77474   0.51584   0.44348   0.00000  Uiso   1.00
N230   N     0.46666   0.38061   0.30780   0.00000  Uiso   1.00
C231   C     0.96632   0.85060   0.88904   0.00000  Uiso   1.00
C232   C     0.91091   0.83571   0.79587   0.00000  Uiso   1.00
C233   C     0.84527   0.79823   0.78206   0.00000  Uiso   1.00
C234   C     0.80217   0.79037   0.69154   0.00000  Uiso   1.00
C235   C     0.71276   0.76290   0.55814   0.00000  Uiso   1.00
C236   C     0.91245   0.89474   0.90766   0.00000  Uiso   1.00
C237   C     0.84812   0.90690   0.98784   0.00000  Uiso   1.00
C238   C     0.80633   0.94874   0.99141   0.00000  Uiso   1.00
C239   C     0.71939   0.01293   0.03159   0.00000  Uiso   1.00
C240   C     0.10314   0.85746   0.87025   0.00000  Uiso   1.00
C241   C     0.19914   0.83829   0.91900   0.00000  Uiso   1.00
C242   C     0.31791   0.84875   0.89109   0.00000  Uiso   1.00
C243   C     0.52704   0.85506   0.87319   0.00000  Uiso   1.00
C244   C     0.00652   0.90329   0.75283   0.00000  Uiso   1.00
C245   C     0.93275   0.86433   0.72189   0.00000  Uiso   1.00
C246   C     0.88975   0.85652   0.63136   0.00000  Uiso   1.00
C247   C     0.82405   0.81904   0.61742   0.00000  Uiso   1.00
C248   C     0.93428   0.92336   0.83368   0.00000  Uiso   1.00
C249   C     0.89259   0.96519   0.83714   0.00000  Uiso   1.00
C250   C     0.82820   0.97741   0.91730   0.00000  Uiso   1.00
C251   C     0.12498   0.88608   0.79627   0.00000  Uiso   1.00
C252   C     0.24362   0.89658   0.76829   0.00000  Uiso   1.00
C253   C     0.33978   0.87742   0.81698   0.00000  Uiso   1.00
H254   H     0.94932   0.82832   0.94664   0.00000  Uiso   1.00
H255   H     0.82838   0.77609   0.83934   0.00000  Uiso   1.00
H256   H     0.83124   0.88475   0.04508   0.00000  Uiso   1.00
H257   H     0.18221   0.81614   0.97624   0.00000  Uiso   1.00
H258   H     0.70389   0.73081   0.68775   0.00000  Uiso   1.00
H259   H     0.70996   0.95992   0.12158   0.00000  Uiso   1.00
H260   H     0.45005   0.81526   0.97643   0.00000  Uiso   1.00
H261   H     0.02352   0.92557   0.69523   0.00000  Uiso   1.00
H262   H     0.90666   0.87868   0.57413   0.00000  Uiso   1.00
H263   H     0.90951   0.98733   0.77988   0.00000  Uiso   1.00
H264   H     0.26048   0.91873   0.71104   0.00000  Uiso   1.00
H265   H     0.76741   0.81408   0.47250   0.00000  Uiso   1.00
H266   H     0.77348   0.04318   0.90634   0.00000  Uiso   1.00
H267   H     0.51357   0.89852   0.76118   0.00000  Uiso   1.00
O268   O     0.65740   0.73985   0.50500   0.00000  Uiso   1.00
O269   O     0.66538   0.04043   0.07418   0.00000  Uiso   1.00
O270   O     0.63636   0.85063   0.88374   0.00000  Uiso   1.00
N271   N     0.73490   0.75684   0.65371   0.00000  Uiso   1.00
N272   N     0.74055   0.97104   0.05931   0.00000  Uiso   1.00
N273   N     0.43248   0.83580   0.92362   0.00000  Uiso   1.00
N274   N     0.76908   0.80164   0.53788   0.00000  Uiso   1.00
N275   N     0.77474   0.01584   0.94348   0.00000  Uiso   1.00
N276   N     0.46666   0.88061   0.80780   0.00000  Uiso   1.00
C277   C     0.03368   0.64940   0.38904   0.00000  Uiso   1.00
C278   C     0.08909   0.66429   0.29587   0.00000  Uiso   1.00
C279   C     0.15473   0.70177   0.28206   0.00000  Uiso   1.00
C280   C     0.19783   0.70963   0.19154   0.00000  Uiso   1.00
C281   C     0.28724   0.73710   0.05814   0.00000  Uiso   1.00
C282   C     0.08755   0.60526   0.40766   0.00000  Uiso   1.00
C283   C     0.15188   0.59310   0.48784   0.00000  Uiso   1.00
C284   C     0.19367   0.55126   0.49141   0.00000  Uiso   1.00
C285   C     0.28061   0.48707   0.53159   0.00000  Uiso   1.00
C286   C     0.89686   0.64254   0.37025   0.00000  Uiso   1.00
C287   C     0.80086   0.66171   0.41900   0.00000  Uiso   1.00
C288   C     0.68209   0.65125   0.39109   0.00000  Uiso   1.00
C289   C     0.47296   0.64494   0.37319   0.00000  Uiso   1.00
C290   C     0.99348   0.59671   0.25283   0.00000  Uiso   1.00
C291   C     0.06725   0.63567   0.22189   0.00000  Uiso   1.00
C292   C     0.11025   0.64348   0.13136   0.00000  Uiso   1.00
C293   C     0.17595   0.68096   0.11742   0.00000  Uiso   1.00
C294   C     0.06572   0.57664   0.33368   0.00000  Uiso   1.00
C295   C     0.10741   0.53481   0.33714   0.00000  Uiso   1.00
C296   C     0.17180   0.52259   0.41730   0.00000  Uiso   1.00
C297   C     0.87502   0.61392   0.29627   0.00000  Uiso   1.00
C298   C     0.75638   0.60342   0.26829   0.00000  Uiso   1.00
C299   C     0.66022   0.62258   0.31698   0.00000  Uiso   1.00
H300   H     0.05068   0.67168   0.44664   0.00000  Uiso   1.00
H301   H     0.17162   0.72391   0.33934   0.00000  Uiso   1.00
H302   H     0.16876   0.61525   0.54508   0.00000  Uiso   1.00
H303   H     0.81779   0.68386   0.47624   0.00000  Uiso   1.00
H304   H     0.29611   0.76919   0.18775   0.00000  Uiso   1.00
H305   H     0.29004   0.54008   0.62158   0.00000  Uiso   1.00
H306   H     0.54995   0.68474   0.47643   0.00000  Uiso   1.00
H307   H     0.97648   0.57443   0.19523   0.00000  Uiso   1.00
H308   H     0.09334   0.62132   0.07413   0.00000  Uiso   1.00
H309   H     0.09049   0.51267   0.27988   0.00000  Uiso   1.00
H310   H     0.73952   0.58127   0.21104   0.00000  Uiso   1.00
H311   H     0.23259   0.68592   0.97250   0.00000  Uiso   1.00
H312   H     0.22652   0.45682   0.40634   0.00000  Uiso   1.00
H313   H     0.48643   0.60148   0.26118   0.00000  Uiso   1.00
O314   O     0.34260   0.76015   0.00500   0.00000  Uiso   1.00
O315   O     0.33462   0.45957   0.57418   0.00000  Uiso   1.00
O316   O     0.36364   0.64937   0.38374   0.00000  Uiso   1.00
N317   N     0.26510   0.74316   0.15371   0.00000  Uiso   1.00
N318   N     0.25945   0.52896   0.55931   0.00000  Uiso   1.00
N319   N     0.56752   0.66420   0.42362   0.00000  Uiso   1.00
N320   N     0.23092   0.69836   0.03788   0.00000  Uiso   1.00
N321   N     0.22526   0.48416   0.44348   0.00000  Uiso   1.00
N322   N     0.53334   0.61939   0.30780   0.00000  Uiso   1.00
C323   C     0.03368   0.14940   0.88904   0.00000  Uiso   1.00
C324   C     0.08909   0.16429   0.79587   0.00000  Uiso   1.00
C325   C     0.15473   0.20177   0.78206   0.00000  Uiso   1.00
C326   C     0.19783   0.20963   0.69154   0.00000  Uiso   1.00
C327   C     0.28724   0.23710   0.55814   0.00000  Uiso   1.00
C328   C     0.08755   0.10526   0.90766   0.00000  Uiso   1.00
C329   C     0.15188   0.09310   0.98784   0.00000  Uiso   1.00
C330   C     0.19367   0.05126   0.99141   0.00000  Uiso   1.00
C331   C     0.28061   0.98707   0.03159   0.00000  Uiso   1.00
C332   C     0.89686   0.14254   0.87025   0.00000  Uiso   1.00
C333   C     0.80086   0.16171   0.91900   0.00000  Uiso   1.00
C334   C     0.68209   0.15125   0.89109   0.00000  Uiso   1.00
C335   C     0.47296   0.14494   0.87319   0.00000  Uiso   1.00
C336   C     0.99348   0.09671   0.75283   0.00000  Uiso   1.00
C337   C     0.06725   0.13567   0.72189   0.00000  Uiso   1.00
C338   C     0.11025   0.14348   0.63136   0.00000  Uiso   1.00
C339   C     0.17595   0.18096   0.61742   0.00000  Uiso   1.00
C340   C     0.06572   0.07664   0.83368   0.00000  Uiso   1.00
C341   C     0.10741   0.03481   0.83714   0.00000  Uiso   1.00
C342   C     0.17180   0.02259   0.91730   0.00000  Uiso   1.00
C343   C     0.87502   0.11392   0.79627   0.00000  Uiso   1.00
C344   C     0.75638   0.10342   0.76829   0.00000  Uiso   1.00
C345   C     0.66022   0.12258   0.81698   0.00000  Uiso   1.00
H346   H     0.05068   0.17168   0.94664   0.00000  Uiso   1.00
H347   H     0.17162   0.22391   0.83934   0.00000  Uiso   1.00
H348   H     0.16876   0.11525   0.04508   0.00000  Uiso   1.00
H349   H     0.81779   0.18386   0.97624   0.00000  Uiso   1.00
H350   H     0.29611   0.26919   0.68775   0.00000  Uiso   1.00
H351   H     0.29004   0.04008   0.12158   0.00000  Uiso   1.00
H352   H     0.54995   0.18474   0.97643   0.00000  Uiso   1.00
H353   H     0.97648   0.07443   0.69523   0.00000  Uiso   1.00
H354   H     0.09334   0.12132   0.57413   0.00000  Uiso   1.00
H355   H     0.09049   0.01267   0.77988   0.00000  Uiso   1.00
H356   H     0.73952   0.08127   0.71104   0.00000  Uiso   1.00
H357   H     0.23259   0.18592   0.47250   0.00000  Uiso   1.00
H358   H     0.22652   0.95682   0.90634   0.00000  Uiso   1.00
H359   H     0.48643   0.10148   0.76118   0.00000  Uiso   1.00
O360   O     0.34260   0.26015   0.50500   0.00000  Uiso   1.00
O361   O     0.33462   0.95957   0.07418   0.00000  Uiso   1.00
O362   O     0.36364   0.14937   0.88374   0.00000  Uiso   1.00
N363   N     0.26510   0.24316   0.65371   0.00000  Uiso   1.00
N364   N     0.25945   0.02896   0.05931   0.00000  Uiso   1.00
N365   N     0.56752   0.16420   0.92362   0.00000  Uiso   1.00
N366   N     0.23092   0.19836   0.53788   0.00000  Uiso   1.00
N367   N     0.22526   0.98416   0.94348   0.00000  Uiso   1.00
N368   N     0.53334   0.11939   0.80780   0.00000  Uiso   1.00
