data_job_02038
_audit_creation_date              2018-12-19
_audit_creation_method            'Materials Studio'
_symmetry_space_group_name_H-M    'P1'
_symmetry_Int_Tables_number       1
_symmetry_cell_setting            triclinic
loop_
_symmetry_equiv_pos_as_xyz
  x,y,z
_cell_length_a                    17.0780
_cell_length_b                    11.5265
_cell_length_c                    13.9421
_cell_angle_alpha                 90.0000
_cell_angle_beta                  80.3017
_cell_angle_gamma                 90.0000
loop_
_atom_site_label
_atom_site_type_symbol
_atom_site_fract_x
_atom_site_fract_y
_atom_site_fract_z
_atom_site_U_iso_or_equiv
_atom_site_adp_type
_atom_site_occupancy
C1     C     0.73812   0.72787   0.99782   0.00000  Uiso   1.00
C2     C     0.71828   0.78937   0.90808   0.00000  Uiso   1.00
C3     C     0.65204   0.85821   0.90524   0.00000  Uiso   1.00
C4     C     0.64462   0.90676   0.81608   0.00000  Uiso   1.00
C5     C     0.60515   0.00521   0.68941   0.00000  Uiso   1.00
C6     C     0.74702   0.59971   0.97103   0.00000  Uiso   1.00
C7     C     0.70495   0.50909   0.02113   0.00000  Uiso   1.00
C8     C     0.72173   0.39798   0.98497   0.00000  Uiso   1.00
C9     C     0.72693   0.20197   0.95606   0.00000  Uiso   1.00
C10    C     0.82074   0.76971   0.00928   0.00000  Uiso   1.00
C11    C     0.84067   0.82199   0.09154   0.00000  Uiso   1.00
C12    C     0.91953   0.85398   0.08759   0.00000  Uiso   1.00
C13    C     0.03919   0.92192   0.11806   0.00000  Uiso   1.00
C14    C     0.84273   0.69169   0.84452   0.00000  Uiso   1.00
C15    C     0.77510   0.76972   0.82482   0.00000  Uiso   1.00
C16    C     0.76778   0.81818   0.73563   0.00000  Uiso   1.00
C17    C     0.70155   0.88708   0.73267   0.00000  Uiso   1.00
C18    C     0.80384   0.58006   0.88777   0.00000  Uiso   1.00
C19    C     0.82070   0.46906   0.85152   0.00000  Uiso   1.00
C20    C     0.77866   0.37829   0.90155   0.00000  Uiso   1.00
C21    C     0.87757   0.75006   0.92601   0.00000  Uiso   1.00
C22    C     0.95641   0.78197   0.92193   0.00000  Uiso   1.00
C23    C     0.97646   0.83430   0.00417   0.00000  Uiso   1.00
H24    H     0.69388   0.74316   0.06264   0.00000  Uiso   1.00
H25    H     0.60807   0.87339   0.96970   0.00000  Uiso   1.00
H26    H     0.66098   0.52432   0.08557   0.00000  Uiso   1.00
H27    H     0.79668   0.83718   0.15597   0.00000  Uiso   1.00
H28    H     0.53799   0.00907   0.82992   0.00000  Uiso   1.00
H29    H     0.64957   0.27304   0.07427   0.00000  Uiso   1.00
H30    H     0.93571   0.93277   0.22271   0.00000  Uiso   1.00
H31    H     0.88697   0.67638   0.77969   0.00000  Uiso   1.00
H32    H     0.81177   0.80296   0.67121   0.00000  Uiso   1.00
H33    H     0.86468   0.45389   0.78709   0.00000  Uiso   1.00
H34    H     0.00037   0.76675   0.85748   0.00000  Uiso   1.00
H35    H     0.70331   0.95191   0.58766   0.00000  Uiso   1.00
H36    H     0.81490   0.21587   0.83201   0.00000  Uiso   1.00
H37    H     0.10104   0.87560   0.98045   0.00000  Uiso   1.00
O38    O     0.56768   0.06493   0.64253   0.00000  Uiso   1.00
O39    O     0.71408   0.09928   0.96312   0.00000  Uiso   1.00
O40    O     0.08949   0.96483   0.15787   0.00000  Uiso   1.00
N41    N     0.58723   0.97827   0.78780   0.00000  Uiso   1.00
N42    N     0.69154   0.29012   0.01624   0.00000  Uiso   1.00
N43    N     0.95906   0.90688   0.15503   0.00000  Uiso   1.00
N44    N     0.67619   0.94751   0.65744   0.00000  Uiso   1.00
N45    N     0.78050   0.25936   0.88588   0.00000  Uiso   1.00
N46    N     0.04802   0.87612   0.02467   0.00000  Uiso   1.00
C47    C     0.26188   0.72787   0.50218   0.00000  Uiso   1.00
C48    C     0.28172   0.78937   0.59192   0.00000  Uiso   1.00
C49    C     0.34796   0.85821   0.59476   0.00000  Uiso   1.00
C50    C     0.35538   0.90676   0.68392   0.00000  Uiso   1.00
C51    C     0.39485   0.00521   0.81059   0.00000  Uiso   1.00
C52    C     0.25298   0.59971   0.52897   0.00000  Uiso   1.00
C53    C     0.29505   0.50909   0.47887   0.00000  Uiso   1.00
C54    C     0.27827   0.39798   0.51503   0.00000  Uiso   1.00
C55    C     0.27307   0.20197   0.54394   0.00000  Uiso   1.00
C56    C     0.17926   0.76971   0.49072   0.00000  Uiso   1.00
C57    C     0.15933   0.82199   0.40846   0.00000  Uiso   1.00
C58    C     0.08047   0.85398   0.41241   0.00000  Uiso   1.00
C59    C     0.96081   0.92192   0.38194   0.00000  Uiso   1.00
C60    C     0.15727   0.69169   0.65548   0.00000  Uiso   1.00
C61    C     0.22490   0.76972   0.67518   0.00000  Uiso   1.00
C62    C     0.23222   0.81818   0.76437   0.00000  Uiso   1.00
C63    C     0.29845   0.88708   0.76733   0.00000  Uiso   1.00
C64    C     0.19616   0.58006   0.61223   0.00000  Uiso   1.00
C65    C     0.17930   0.46906   0.64848   0.00000  Uiso   1.00
C66    C     0.22134   0.37829   0.59845   0.00000  Uiso   1.00
C67    C     0.12243   0.75006   0.57399   0.00000  Uiso   1.00
C68    C     0.04359   0.78197   0.57807   0.00000  Uiso   1.00
C69    C     0.02354   0.83430   0.49583   0.00000  Uiso   1.00
H70    H     0.30612   0.74316   0.43736   0.00000  Uiso   1.00
H71    H     0.39193   0.87339   0.53030   0.00000  Uiso   1.00
H72    H     0.33902   0.52432   0.41443   0.00000  Uiso   1.00
H73    H     0.20332   0.83718   0.34403   0.00000  Uiso   1.00
H74    H     0.46201   0.00907   0.67008   0.00000  Uiso   1.00
H75    H     0.35043   0.27304   0.42573   0.00000  Uiso   1.00
H76    H     0.06429   0.93277   0.27729   0.00000  Uiso   1.00
H77    H     0.11303   0.67638   0.72031   0.00000  Uiso   1.00
H78    H     0.18823   0.80296   0.82879   0.00000  Uiso   1.00
H79    H     0.13532   0.45389   0.71291   0.00000  Uiso   1.00
H80    H     0.99963   0.76675   0.64252   0.00000  Uiso   1.00
H81    H     0.29669   0.95191   0.91234   0.00000  Uiso   1.00
H82    H     0.18510   0.21587   0.66799   0.00000  Uiso   1.00
H83    H     0.89896   0.87560   0.51955   0.00000  Uiso   1.00
O84    O     0.43232   0.06493   0.85747   0.00000  Uiso   1.00
O85    O     0.28592   0.09928   0.53688   0.00000  Uiso   1.00
O86    O     0.91051   0.96483   0.34213   0.00000  Uiso   1.00
N87    N     0.41277   0.97827   0.71220   0.00000  Uiso   1.00
N88    N     0.30846   0.29012   0.48376   0.00000  Uiso   1.00
N89    N     0.04094   0.90688   0.34497   0.00000  Uiso   1.00
N90    N     0.32381   0.94751   0.84256   0.00000  Uiso   1.00
N91    N     0.21950   0.25936   0.61412   0.00000  Uiso   1.00
N92    N     0.95198   0.87612   0.47533   0.00000  Uiso   1.00
C93    C     0.26188   0.27213   0.00218   0.00000  Uiso   1.00
C94    C     0.28172   0.21063   0.09192   0.00000  Uiso   1.00
C95    C     0.34796   0.14179   0.09476   0.00000  Uiso   1.00
C96    C     0.35538   0.09324   0.18392   0.00000  Uiso   1.00
C97    C     0.39485   0.99479   0.31059   0.00000  Uiso   1.00
C98    C     0.25298   0.40029   0.02897   0.00000  Uiso   1.00
C99    C     0.29505   0.49091   0.97887   0.00000  Uiso   1.00
C100   C     0.27827   0.60202   0.01503   0.00000  Uiso   1.00
C101   C     0.27307   0.79803   0.04394   0.00000  Uiso   1.00
C102   C     0.17926   0.23029   0.99072   0.00000  Uiso   1.00
C103   C     0.15933   0.17801   0.90846   0.00000  Uiso   1.00
C104   C     0.08047   0.14602   0.91241   0.00000  Uiso   1.00
C105   C     0.96081   0.07808   0.88194   0.00000  Uiso   1.00
C106   C     0.15727   0.30831   0.15548   0.00000  Uiso   1.00
C107   C     0.22490   0.23028   0.17518   0.00000  Uiso   1.00
C108   C     0.23222   0.18182   0.26437   0.00000  Uiso   1.00
C109   C     0.29845   0.11292   0.26733   0.00000  Uiso   1.00
C110   C     0.19616   0.41994   0.11223   0.00000  Uiso   1.00
C111   C     0.17930   0.53094   0.14848   0.00000  Uiso   1.00
C112   C     0.22134   0.62171   0.09845   0.00000  Uiso   1.00
C113   C     0.12243   0.24994   0.07399   0.00000  Uiso   1.00
C114   C     0.04359   0.21803   0.07807   0.00000  Uiso   1.00
C115   C     0.02354   0.16570   0.99583   0.00000  Uiso   1.00
H116   H     0.30612   0.25684   0.93736   0.00000  Uiso   1.00
H117   H     0.39193   0.12661   0.03030   0.00000  Uiso   1.00
H118   H     0.33902   0.47568   0.91443   0.00000  Uiso   1.00
H119   H     0.20332   0.16282   0.84403   0.00000  Uiso   1.00
H120   H     0.46201   0.99093   0.17008   0.00000  Uiso   1.00
H121   H     0.35043   0.72696   0.92573   0.00000  Uiso   1.00
H122   H     0.06429   0.06723   0.77729   0.00000  Uiso   1.00
H123   H     0.11303   0.32362   0.22031   0.00000  Uiso   1.00
H124   H     0.18823   0.19704   0.32879   0.00000  Uiso   1.00
H125   H     0.13532   0.54611   0.21291   0.00000  Uiso   1.00
H126   H     0.99963   0.23325   0.14252   0.00000  Uiso   1.00
H127   H     0.29669   0.04809   0.41234   0.00000  Uiso   1.00
H128   H     0.18510   0.78413   0.16799   0.00000  Uiso   1.00
H129   H     0.89896   0.12440   0.01955   0.00000  Uiso   1.00
O130   O     0.43232   0.93507   0.35747   0.00000  Uiso   1.00
O131   O     0.28592   0.90072   0.03688   0.00000  Uiso   1.00
O132   O     0.91051   0.03517   0.84213   0.00000  Uiso   1.00
N133   N     0.41277   0.02173   0.21220   0.00000  Uiso   1.00
N134   N     0.30846   0.70988   0.98376   0.00000  Uiso   1.00
N135   N     0.04094   0.09312   0.84497   0.00000  Uiso   1.00
N136   N     0.32381   0.05249   0.34256   0.00000  Uiso   1.00
N137   N     0.21950   0.74064   0.11412   0.00000  Uiso   1.00
N138   N     0.95198   0.12388   0.97533   0.00000  Uiso   1.00
C139   C     0.73812   0.27213   0.49782   0.00000  Uiso   1.00
C140   C     0.71828   0.21063   0.40808   0.00000  Uiso   1.00
C141   C     0.65204   0.14179   0.40524   0.00000  Uiso   1.00
C142   C     0.64462   0.09324   0.31608   0.00000  Uiso   1.00
C143   C     0.60515   0.99479   0.18941   0.00000  Uiso   1.00
C144   C     0.74702   0.40029   0.47103   0.00000  Uiso   1.00
C145   C     0.70495   0.49091   0.52113   0.00000  Uiso   1.00
C146   C     0.72173   0.60202   0.48497   0.00000  Uiso   1.00
C147   C     0.72693   0.79803   0.45606   0.00000  Uiso   1.00
C148   C     0.82074   0.23029   0.50928   0.00000  Uiso   1.00
C149   C     0.84067   0.17801   0.59154   0.00000  Uiso   1.00
C150   C     0.91953   0.14602   0.58759   0.00000  Uiso   1.00
C151   C     0.03919   0.07808   0.61806   0.00000  Uiso   1.00
C152   C     0.84273   0.30831   0.34452   0.00000  Uiso   1.00
C153   C     0.77510   0.23028   0.32482   0.00000  Uiso   1.00
C154   C     0.76778   0.18182   0.23563   0.00000  Uiso   1.00
C155   C     0.70155   0.11292   0.23267   0.00000  Uiso   1.00
C156   C     0.80384   0.41994   0.38777   0.00000  Uiso   1.00
C157   C     0.82070   0.53094   0.35152   0.00000  Uiso   1.00
C158   C     0.77866   0.62171   0.40155   0.00000  Uiso   1.00
C159   C     0.87757   0.24994   0.42601   0.00000  Uiso   1.00
C160   C     0.95641   0.21803   0.42193   0.00000  Uiso   1.00
C161   C     0.97646   0.16570   0.50417   0.00000  Uiso   1.00
H162   H     0.69388   0.25684   0.56264   0.00000  Uiso   1.00
H163   H     0.60807   0.12661   0.46970   0.00000  Uiso   1.00
H164   H     0.66098   0.47568   0.58557   0.00000  Uiso   1.00
H165   H     0.79668   0.16282   0.65597   0.00000  Uiso   1.00
H166   H     0.53799   0.99093   0.32992   0.00000  Uiso   1.00
H167   H     0.64957   0.72696   0.57427   0.00000  Uiso   1.00
H168   H     0.93571   0.06723   0.72271   0.00000  Uiso   1.00
H169   H     0.88697   0.32362   0.27969   0.00000  Uiso   1.00
H170   H     0.81177   0.19704   0.17121   0.00000  Uiso   1.00
H171   H     0.86468   0.54611   0.28709   0.00000  Uiso   1.00
H172   H     0.00037   0.23325   0.35748   0.00000  Uiso   1.00
H173   H     0.70331   0.04809   0.08766   0.00000  Uiso   1.00
H174   H     0.81490   0.78413   0.33201   0.00000  Uiso   1.00
H175   H     0.10104   0.12440   0.48045   0.00000  Uiso   1.00
O176   O     0.56768   0.93507   0.14253   0.00000  Uiso   1.00
O177   O     0.71408   0.90072   0.46312   0.00000  Uiso   1.00
O178   O     0.08949   0.03517   0.65787   0.00000  Uiso   1.00
N179   N     0.58723   0.02173   0.28780   0.00000  Uiso   1.00
N180   N     0.69154   0.70988   0.51624   0.00000  Uiso   1.00
N181   N     0.95906   0.09312   0.65503   0.00000  Uiso   1.00
N182   N     0.67619   0.05249   0.15744   0.00000  Uiso   1.00
N183   N     0.78050   0.74064   0.38588   0.00000  Uiso   1.00
N184   N     0.04802   0.12388   0.52467   0.00000  Uiso   1.00
