data_job_05243
_audit_creation_date              2018-12-19
_audit_creation_method            'Materials Studio'
_symmetry_space_group_name_H-M    'P1'
_symmetry_Int_Tables_number       1
_symmetry_cell_setting            triclinic
loop_
_symmetry_equiv_pos_as_xyz
  x,y,z
_cell_length_a                    9.8796
_cell_length_b                    20.7580
_cell_length_c                    15.7451
_cell_angle_alpha                 90.0000
_cell_angle_beta                  133.9540
_cell_angle_gamma                 90.0000
loop_
_atom_site_label
_atom_site_type_symbol
_atom_site_fract_x
_atom_site_fract_y
_atom_site_fract_z
_atom_site_U_iso_or_equiv
_atom_site_adp_type
_atom_site_occupancy
C1     C     0.65124   0.01207   0.70582   0.00000  Uiso   1.00
C2     C     0.80568   0.06247   0.76314   0.00000  Uiso   1.00
C3     C     0.95778   0.07081   0.88349   0.00000  Uiso   1.00
C4     C     0.08361   0.11963   0.91822   0.00000  Uiso   1.00
C5     C     0.32724   0.19196   0.01981   0.00000  Uiso   1.00
C6     C     0.46638   0.04925   0.62753   0.00000  Uiso   1.00
C7     C     0.33320   0.04646   0.63385   0.00000  Uiso   1.00
C8     C     0.17340   0.08414   0.55442   0.00000  Uiso   1.00
C9     C     0.89020   0.13591   0.44542   0.00000  Uiso   1.00
C10    C     0.64943   0.97376   0.62240   0.00000  Uiso   1.00
C11    C     0.67011   0.90750   0.62439   0.00000  Uiso   1.00
C12    C     0.66437   0.88162   0.54061   0.00000  Uiso   1.00
C13    C     0.66538   0.81619   0.42364   0.00000  Uiso   1.00
C14    C     0.60421   0.08395   0.55350   0.00000  Uiso   1.00
C15    C     0.78012   0.10152   0.68040   0.00000  Uiso   1.00
C16    C     0.90575   0.15033   0.71496   0.00000  Uiso   1.00
C17    C     0.05802   0.15874   0.83534   0.00000  Uiso   1.00
C18    C     0.44083   0.08829   0.54480   0.00000  Uiso   1.00
C19    C     0.28117   0.12598   0.46532   0.00000  Uiso   1.00
C20    C     0.14780   0.12325   0.47153   0.00000  Uiso   1.00
C21    C     0.62389   0.01280   0.53967   0.00000  Uiso   1.00
C22    C     0.61809   0.98703   0.45586   0.00000  Uiso   1.00
C23    C     0.63877   0.92073   0.45772   0.00000  Uiso   1.00
H24    H     0.67112   0.98168   0.77023   0.00000  Uiso   1.00
H25    H     0.97749   0.04058   0.94749   0.00000  Uiso   1.00
H26    H     0.35300   0.01623   0.69788   0.00000  Uiso   1.00
H27    H     0.68987   0.87730   0.68842   0.00000  Uiso   1.00
H28    H     0.30587   0.12313   0.10753   0.00000  Uiso   1.00
H29    H     0.98907   0.07176   0.58120   0.00000  Uiso   1.00
H30    H     0.69941   0.77879   0.56124   0.00000  Uiso   1.00
H31    H     0.58432   0.11435   0.48908   0.00000  Uiso   1.00
H32    H     0.88595   0.18054   0.65091   0.00000  Uiso   1.00
H33    H     0.26145   0.15619   0.40131   0.00000  Uiso   1.00
H34    H     0.59832   0.01725   0.39185   0.00000  Uiso   1.00
H35    H     0.23156   0.23672   0.86681   0.00000  Uiso   1.00
H36    H     0.91475   0.18536   0.34048   0.00000  Uiso   1.00
H37    H     0.62510   0.89238   0.32053   0.00000  Uiso   1.00
O38    O     0.46866   0.22108   0.09870   0.00000  Uiso   1.00
O39    O     0.74106   0.15369   0.40816   0.00000  Uiso   1.00
O40    O     0.67302   0.76931   0.38199   0.00000  Uiso   1.00
N41    N     0.24700   0.14077   0.02866   0.00000  Uiso   1.00
N42    N     0.01589   0.09276   0.53659   0.00000  Uiso   1.00
N43    N     0.67995   0.81885   0.51791   0.00000  Uiso   1.00
N44    N     0.20702   0.20189   0.89914   0.00000  Uiso   1.00
N45    N     0.97591   0.15388   0.40706   0.00000  Uiso   1.00
N46    N     0.63997   0.87997   0.38839   0.00000  Uiso   1.00
C47    C     0.15124   0.51207   0.70582   0.00000  Uiso   1.00
C48    C     0.30568   0.56247   0.76314   0.00000  Uiso   1.00
C49    C     0.45778   0.57081   0.88349   0.00000  Uiso   1.00
C50    C     0.58361   0.61963   0.91822   0.00000  Uiso   1.00
C51    C     0.82724   0.69196   0.01981   0.00000  Uiso   1.00
C52    C     0.96638   0.54925   0.62753   0.00000  Uiso   1.00
C53    C     0.83320   0.54646   0.63385   0.00000  Uiso   1.00
C54    C     0.67340   0.58414   0.55442   0.00000  Uiso   1.00
C55    C     0.39020   0.63591   0.44542   0.00000  Uiso   1.00
C56    C     0.14943   0.47376   0.62240   0.00000  Uiso   1.00
C57    C     0.17011   0.40750   0.62439   0.00000  Uiso   1.00
C58    C     0.16437   0.38162   0.54061   0.00000  Uiso   1.00
C59    C     0.16538   0.31619   0.42364   0.00000  Uiso   1.00
C60    C     0.10421   0.58395   0.55350   0.00000  Uiso   1.00
C61    C     0.28012   0.60152   0.68040   0.00000  Uiso   1.00
C62    C     0.40575   0.65033   0.71496   0.00000  Uiso   1.00
C63    C     0.55802   0.65874   0.83534   0.00000  Uiso   1.00
C64    C     0.94083   0.58829   0.54480   0.00000  Uiso   1.00
C65    C     0.78117   0.62598   0.46532   0.00000  Uiso   1.00
C66    C     0.64780   0.62325   0.47153   0.00000  Uiso   1.00
C67    C     0.12389   0.51280   0.53967   0.00000  Uiso   1.00
C68    C     0.11809   0.48703   0.45586   0.00000  Uiso   1.00
C69    C     0.13877   0.42073   0.45772   0.00000  Uiso   1.00
H70    H     0.17112   0.48168   0.77023   0.00000  Uiso   1.00
H71    H     0.47749   0.54058   0.94749   0.00000  Uiso   1.00
H72    H     0.85300   0.51623   0.69788   0.00000  Uiso   1.00
H73    H     0.18987   0.37730   0.68842   0.00000  Uiso   1.00
H74    H     0.80587   0.62313   0.10753   0.00000  Uiso   1.00
H75    H     0.48907   0.57176   0.58120   0.00000  Uiso   1.00
H76    H     0.19941   0.27879   0.56124   0.00000  Uiso   1.00
H77    H     0.08432   0.61435   0.48908   0.00000  Uiso   1.00
H78    H     0.38595   0.68054   0.65091   0.00000  Uiso   1.00
H79    H     0.76145   0.65619   0.40131   0.00000  Uiso   1.00
H80    H     0.09832   0.51725   0.39185   0.00000  Uiso   1.00
H81    H     0.73156   0.73672   0.86681   0.00000  Uiso   1.00
H82    H     0.41475   0.68536   0.34048   0.00000  Uiso   1.00
H83    H     0.12510   0.39238   0.32053   0.00000  Uiso   1.00
O84    O     0.96866   0.72108   0.09870   0.00000  Uiso   1.00
O85    O     0.24106   0.65369   0.40816   0.00000  Uiso   1.00
O86    O     0.17302   0.26931   0.38199   0.00000  Uiso   1.00
N87    N     0.74700   0.64077   0.02866   0.00000  Uiso   1.00
N88    N     0.51589   0.59276   0.53659   0.00000  Uiso   1.00
N89    N     0.17995   0.31885   0.51791   0.00000  Uiso   1.00
N90    N     0.70702   0.70189   0.89914   0.00000  Uiso   1.00
N91    N     0.47591   0.65388   0.40706   0.00000  Uiso   1.00
N92    N     0.13997   0.37997   0.38839   0.00000  Uiso   1.00
C93    C     0.65124   0.98793   0.20582   0.00000  Uiso   1.00
C94    C     0.80568   0.93753   0.26314   0.00000  Uiso   1.00
C95    C     0.95778   0.92919   0.38349   0.00000  Uiso   1.00
C96    C     0.08361   0.88037   0.41822   0.00000  Uiso   1.00
C97    C     0.32724   0.80804   0.51981   0.00000  Uiso   1.00
C98    C     0.46638   0.95075   0.12753   0.00000  Uiso   1.00
C99    C     0.33320   0.95354   0.13385   0.00000  Uiso   1.00
C100   C     0.17340   0.91586   0.05442   0.00000  Uiso   1.00
C101   C     0.89020   0.86409   0.94542   0.00000  Uiso   1.00
C102   C     0.64943   0.02624   0.12240   0.00000  Uiso   1.00
C103   C     0.67011   0.09250   0.12439   0.00000  Uiso   1.00
C104   C     0.66437   0.11838   0.04061   0.00000  Uiso   1.00
C105   C     0.66538   0.18381   0.92364   0.00000  Uiso   1.00
C106   C     0.60421   0.91605   0.05350   0.00000  Uiso   1.00
C107   C     0.78012   0.89848   0.18040   0.00000  Uiso   1.00
C108   C     0.90575   0.84967   0.21496   0.00000  Uiso   1.00
C109   C     0.05802   0.84126   0.33534   0.00000  Uiso   1.00
C110   C     0.44083   0.91171   0.04480   0.00000  Uiso   1.00
C111   C     0.28117   0.87402   0.96532   0.00000  Uiso   1.00
C112   C     0.14780   0.87675   0.97153   0.00000  Uiso   1.00
C113   C     0.62389   0.98720   0.03967   0.00000  Uiso   1.00
C114   C     0.61809   0.01297   0.95586   0.00000  Uiso   1.00
C115   C     0.63877   0.07927   0.95772   0.00000  Uiso   1.00
H116   H     0.67112   0.01832   0.27023   0.00000  Uiso   1.00
H117   H     0.97749   0.95942   0.44749   0.00000  Uiso   1.00
H118   H     0.35300   0.98377   0.19788   0.00000  Uiso   1.00
H119   H     0.68987   0.12270   0.18842   0.00000  Uiso   1.00
H120   H     0.30587   0.87687   0.60753   0.00000  Uiso   1.00
H121   H     0.98907   0.92824   0.08120   0.00000  Uiso   1.00
H122   H     0.69941   0.22121   0.06124   0.00000  Uiso   1.00
H123   H     0.58432   0.88565   0.98908   0.00000  Uiso   1.00
H124   H     0.88595   0.81946   0.15091   0.00000  Uiso   1.00
H125   H     0.26145   0.84381   0.90131   0.00000  Uiso   1.00
H126   H     0.59832   0.98275   0.89185   0.00000  Uiso   1.00
H127   H     0.23156   0.76328   0.36681   0.00000  Uiso   1.00
H128   H     0.91475   0.81464   0.84048   0.00000  Uiso   1.00
H129   H     0.62510   0.10762   0.82053   0.00000  Uiso   1.00
O130   O     0.46866   0.77892   0.59870   0.00000  Uiso   1.00
O131   O     0.74106   0.84631   0.90816   0.00000  Uiso   1.00
O132   O     0.67302   0.23069   0.88199   0.00000  Uiso   1.00
N133   N     0.24700   0.85923   0.52866   0.00000  Uiso   1.00
N134   N     0.01589   0.90724   0.03659   0.00000  Uiso   1.00
N135   N     0.67995   0.18115   0.01791   0.00000  Uiso   1.00
N136   N     0.20702   0.79811   0.39914   0.00000  Uiso   1.00
N137   N     0.97591   0.84612   0.90706   0.00000  Uiso   1.00
N138   N     0.63997   0.12003   0.88839   0.00000  Uiso   1.00
C139   C     0.15124   0.48793   0.20582   0.00000  Uiso   1.00
C140   C     0.30568   0.43753   0.26314   0.00000  Uiso   1.00
C141   C     0.45778   0.42919   0.38349   0.00000  Uiso   1.00
C142   C     0.58361   0.38037   0.41822   0.00000  Uiso   1.00
C143   C     0.82724   0.30804   0.51981   0.00000  Uiso   1.00
C144   C     0.96638   0.45075   0.12753   0.00000  Uiso   1.00
C145   C     0.83320   0.45354   0.13385   0.00000  Uiso   1.00
C146   C     0.67340   0.41586   0.05442   0.00000  Uiso   1.00
C147   C     0.39020   0.36409   0.94542   0.00000  Uiso   1.00
C148   C     0.14943   0.52624   0.12240   0.00000  Uiso   1.00
C149   C     0.17011   0.59250   0.12439   0.00000  Uiso   1.00
C150   C     0.16437   0.61838   0.04061   0.00000  Uiso   1.00
C151   C     0.16538   0.68381   0.92364   0.00000  Uiso   1.00
C152   C     0.10421   0.41605   0.05350   0.00000  Uiso   1.00
C153   C     0.28012   0.39848   0.18040   0.00000  Uiso   1.00
C154   C     0.40575   0.34967   0.21496   0.00000  Uiso   1.00
C155   C     0.55802   0.34126   0.33534   0.00000  Uiso   1.00
C156   C     0.94083   0.41171   0.04480   0.00000  Uiso   1.00
C157   C     0.78117   0.37402   0.96532   0.00000  Uiso   1.00
C158   C     0.64780   0.37675   0.97153   0.00000  Uiso   1.00
C159   C     0.12389   0.48720   0.03967   0.00000  Uiso   1.00
C160   C     0.11809   0.51297   0.95586   0.00000  Uiso   1.00
C161   C     0.13877   0.57927   0.95772   0.00000  Uiso   1.00
H162   H     0.17112   0.51832   0.27023   0.00000  Uiso   1.00
H163   H     0.47749   0.45942   0.44749   0.00000  Uiso   1.00
H164   H     0.85300   0.48377   0.19788   0.00000  Uiso   1.00
H165   H     0.18987   0.62270   0.18842   0.00000  Uiso   1.00
H166   H     0.80587   0.37687   0.60753   0.00000  Uiso   1.00
H167   H     0.48907   0.42824   0.08120   0.00000  Uiso   1.00
H168   H     0.19941   0.72121   0.06124   0.00000  Uiso   1.00
H169   H     0.08432   0.38565   0.98908   0.00000  Uiso   1.00
H170   H     0.38595   0.31946   0.15091   0.00000  Uiso   1.00
H171   H     0.76145   0.34381   0.90131   0.00000  Uiso   1.00
H172   H     0.09832   0.48275   0.89185   0.00000  Uiso   1.00
H173   H     0.73156   0.26328   0.36681   0.00000  Uiso   1.00
H174   H     0.41475   0.31464   0.84048   0.00000  Uiso   1.00
H175   H     0.12510   0.60762   0.82053   0.00000  Uiso   1.00
O176   O     0.96866   0.27892   0.59870   0.00000  Uiso   1.00
O177   O     0.24106   0.34631   0.90816   0.00000  Uiso   1.00
O178   O     0.17302   0.73069   0.88199   0.00000  Uiso   1.00
N179   N     0.74700   0.35923   0.52866   0.00000  Uiso   1.00
N180   N     0.51589   0.40724   0.03659   0.00000  Uiso   1.00
N181   N     0.17995   0.68115   0.01791   0.00000  Uiso   1.00
N182   N     0.70702   0.29811   0.39914   0.00000  Uiso   1.00
N183   N     0.47591   0.34612   0.90706   0.00000  Uiso   1.00
N184   N     0.13997   0.62003   0.88839   0.00000  Uiso   1.00
