data_job_01664
_audit_creation_date              2018-12-19
_audit_creation_method            'Materials Studio'
_symmetry_space_group_name_H-M    'P1'
_symmetry_Int_Tables_number       1
_symmetry_cell_setting            triclinic
loop_
_symmetry_equiv_pos_as_xyz
  x,y,z
_cell_length_a                    21.6936
_cell_length_b                    14.9915
_cell_length_c                    18.2377
_cell_angle_alpha                 90.0000
_cell_angle_beta                  90.0000
_cell_angle_gamma                 90.0000
loop_
_atom_site_label
_atom_site_type_symbol
_atom_site_fract_x
_atom_site_fract_y
_atom_site_fract_z
_atom_site_U_iso_or_equiv
_atom_site_adp_type
_atom_site_occupancy
C1     C     0.68211   0.13525   0.32898   0.00000  Uiso   1.00
C2     C     0.64522   0.20929   0.36590   0.00000  Uiso   1.00
C3     C     0.60928   0.19997   0.42838   0.00000  Uiso   1.00
C4     C     0.57915   0.27571   0.45356   0.00000  Uiso   1.00
C5     C     0.52100   0.37817   0.51635   0.00000  Uiso   1.00
C6     C     0.65969   0.13172   0.24979   0.00000  Uiso   1.00
C7     C     0.63591   0.05716   0.21464   0.00000  Uiso   1.00
C8     C     0.61796   0.06760   0.14207   0.00000  Uiso   1.00
C9     C     0.58231   0.04962   0.02457   0.00000  Uiso   1.00
C10    C     0.74853   0.16830   0.32576   0.00000  Uiso   1.00
C11    C     0.79946   0.12450   0.35448   0.00000  Uiso   1.00
C12    C     0.85631   0.16573   0.34586   0.00000  Uiso   1.00
C13    C     0.95859   0.20454   0.34632   0.00000  Uiso   1.00
C14    C     0.69251   0.28635   0.26260   0.00000  Uiso   1.00
C15    C     0.65088   0.29136   0.32985   0.00000  Uiso   1.00
C16    C     0.62079   0.36714   0.35494   0.00000  Uiso   1.00
C17    C     0.58481   0.35793   0.41745   0.00000  Uiso   1.00
C18    C     0.66534   0.21378   0.21373   0.00000  Uiso   1.00
C19    C     0.64742   0.22434   0.14120   0.00000  Uiso   1.00
C20    C     0.62362   0.14982   0.10595   0.00000  Uiso   1.00
C21    C     0.75418   0.25037   0.28971   0.00000  Uiso   1.00
C22    C     0.81097   0.29167   0.28104   0.00000  Uiso   1.00
C23    C     0.86197   0.24795   0.30973   0.00000  Uiso   1.00
H24    H     0.67771   0.07136   0.35705   0.00000  Uiso   1.00
H25    H     0.60491   0.13644   0.45626   0.00000  Uiso   1.00
H26    H     0.63155   0.99366   0.24255   0.00000  Uiso   1.00
H27    H     0.79507   0.06099   0.38237   0.00000  Uiso   1.00
H28    H     0.52669   0.24478   0.55035   0.00000  Uiso   1.00
H29    H     0.58287   0.94371   0.09972   0.00000  Uiso   1.00
H30    H     0.92768   0.08569   0.39455   0.00000  Uiso   1.00
H31    H     0.69691   0.35025   0.23453   0.00000  Uiso   1.00
H32    H     0.62517   0.43064   0.32703   0.00000  Uiso   1.00
H33    H     0.65181   0.28786   0.11331   0.00000  Uiso   1.00
H34    H     0.81532   0.35519   0.25313   0.00000  Uiso   1.00
H35    H     0.54312   0.48356   0.44545   0.00000  Uiso   1.00
H36    H     0.59931   0.18249   0.99482   0.00000  Uiso   1.00
H37    H     0.94412   0.32447   0.28966   0.00000  Uiso   1.00
O38    O     0.48735   0.41201   0.56094   0.00000  Uiso   1.00
O39    O     0.56107   0.01702   0.96973   0.00000  Uiso   1.00
O40    O     0.01345   0.20329   0.35655   0.00000  Uiso   1.00
N41    N     0.54041   0.28995   0.51298   0.00000  Uiso   1.00
N42    N     0.59293   0.00847   0.09166   0.00000  Uiso   1.00
N43    N     0.91530   0.14119   0.36729   0.00000  Uiso   1.00
N44    N     0.54926   0.41844   0.45653   0.00000  Uiso   1.00
N45    N     0.60177   0.13696   0.03522   0.00000  Uiso   1.00
N46    N     0.92414   0.26968   0.31085   0.00000  Uiso   1.00
C47    C     0.81789   0.86475   0.32898   0.00000  Uiso   1.00
C48    C     0.85478   0.79071   0.36590   0.00000  Uiso   1.00
C49    C     0.89072   0.80003   0.42838   0.00000  Uiso   1.00
C50    C     0.92085   0.72429   0.45356   0.00000  Uiso   1.00
C51    C     0.97900   0.62183   0.51635   0.00000  Uiso   1.00
C52    C     0.84031   0.86828   0.24979   0.00000  Uiso   1.00
C53    C     0.86409   0.94284   0.21464   0.00000  Uiso   1.00
C54    C     0.88204   0.93240   0.14207   0.00000  Uiso   1.00
C55    C     0.91769   0.95038   0.02457   0.00000  Uiso   1.00
C56    C     0.75147   0.83170   0.32576   0.00000  Uiso   1.00
C57    C     0.70054   0.87550   0.35448   0.00000  Uiso   1.00
C58    C     0.64369   0.83427   0.34586   0.00000  Uiso   1.00
C59    C     0.54141   0.79546   0.34632   0.00000  Uiso   1.00
C60    C     0.80749   0.71365   0.26260   0.00000  Uiso   1.00
C61    C     0.84912   0.70864   0.32985   0.00000  Uiso   1.00
C62    C     0.87921   0.63286   0.35494   0.00000  Uiso   1.00
C63    C     0.91519   0.64207   0.41745   0.00000  Uiso   1.00
C64    C     0.83466   0.78622   0.21373   0.00000  Uiso   1.00
C65    C     0.85258   0.77566   0.14120   0.00000  Uiso   1.00
C66    C     0.87638   0.85018   0.10595   0.00000  Uiso   1.00
C67    C     0.74582   0.74963   0.28971   0.00000  Uiso   1.00
C68    C     0.68903   0.70833   0.28104   0.00000  Uiso   1.00
C69    C     0.63803   0.75205   0.30973   0.00000  Uiso   1.00
H70    H     0.82229   0.92864   0.35705   0.00000  Uiso   1.00
H71    H     0.89509   0.86356   0.45626   0.00000  Uiso   1.00
H72    H     0.86845   0.00634   0.24255   0.00000  Uiso   1.00
H73    H     0.70493   0.93901   0.38237   0.00000  Uiso   1.00
H74    H     0.97331   0.75522   0.55035   0.00000  Uiso   1.00
H75    H     0.91713   0.05629   0.09972   0.00000  Uiso   1.00
H76    H     0.57232   0.91431   0.39455   0.00000  Uiso   1.00
H77    H     0.80309   0.64975   0.23453   0.00000  Uiso   1.00
H78    H     0.87483   0.56936   0.32703   0.00000  Uiso   1.00
H79    H     0.84819   0.71214   0.11331   0.00000  Uiso   1.00
H80    H     0.68468   0.64481   0.25313   0.00000  Uiso   1.00
H81    H     0.95688   0.51644   0.44545   0.00000  Uiso   1.00
H82    H     0.90069   0.81751   0.99482   0.00000  Uiso   1.00
H83    H     0.55588   0.67553   0.28966   0.00000  Uiso   1.00
O84    O     0.01265   0.58799   0.56094   0.00000  Uiso   1.00
O85    O     0.93893   0.98298   0.96973   0.00000  Uiso   1.00
O86    O     0.48655   0.79671   0.35655   0.00000  Uiso   1.00
N87    N     0.95959   0.71005   0.51298   0.00000  Uiso   1.00
N88    N     0.90707   0.99153   0.09166   0.00000  Uiso   1.00
N89    N     0.58470   0.85881   0.36729   0.00000  Uiso   1.00
N90    N     0.95074   0.58156   0.45653   0.00000  Uiso   1.00
N91    N     0.89823   0.86304   0.03522   0.00000  Uiso   1.00
N92    N     0.57586   0.73032   0.31085   0.00000  Uiso   1.00
C93    C     0.31789   0.13525   0.17102   0.00000  Uiso   1.00
C94    C     0.35478   0.20929   0.13410   0.00000  Uiso   1.00
C95    C     0.39072   0.19997   0.07162   0.00000  Uiso   1.00
C96    C     0.42085   0.27571   0.04644   0.00000  Uiso   1.00
C97    C     0.47900   0.37817   0.98365   0.00000  Uiso   1.00
C98    C     0.34031   0.13172   0.25021   0.00000  Uiso   1.00
C99    C     0.36409   0.05716   0.28536   0.00000  Uiso   1.00
C100   C     0.38204   0.06760   0.35793   0.00000  Uiso   1.00
C101   C     0.41769   0.04962   0.47543   0.00000  Uiso   1.00
C102   C     0.25147   0.16830   0.17424   0.00000  Uiso   1.00
C103   C     0.20054   0.12450   0.14552   0.00000  Uiso   1.00
C104   C     0.14369   0.16573   0.15414   0.00000  Uiso   1.00
C105   C     0.04141   0.20454   0.15368   0.00000  Uiso   1.00
C106   C     0.30749   0.28635   0.23740   0.00000  Uiso   1.00
C107   C     0.34912   0.29136   0.17015   0.00000  Uiso   1.00
C108   C     0.37921   0.36714   0.14506   0.00000  Uiso   1.00
C109   C     0.41519   0.35793   0.08255   0.00000  Uiso   1.00
C110   C     0.33466   0.21378   0.28627   0.00000  Uiso   1.00
C111   C     0.35258   0.22434   0.35880   0.00000  Uiso   1.00
C112   C     0.37638   0.14982   0.39405   0.00000  Uiso   1.00
C113   C     0.24582   0.25037   0.21029   0.00000  Uiso   1.00
C114   C     0.18903   0.29167   0.21896   0.00000  Uiso   1.00
C115   C     0.13803   0.24795   0.19027   0.00000  Uiso   1.00
H116   H     0.32229   0.07136   0.14295   0.00000  Uiso   1.00
H117   H     0.39509   0.13644   0.04374   0.00000  Uiso   1.00
H118   H     0.36845   0.99366   0.25745   0.00000  Uiso   1.00
H119   H     0.20493   0.06099   0.11763   0.00000  Uiso   1.00
H120   H     0.47331   0.24478   0.94965   0.00000  Uiso   1.00
H121   H     0.41713   0.94371   0.40028   0.00000  Uiso   1.00
H122   H     0.07232   0.08569   0.10545   0.00000  Uiso   1.00
H123   H     0.30309   0.35025   0.26547   0.00000  Uiso   1.00
H124   H     0.37483   0.43064   0.17297   0.00000  Uiso   1.00
H125   H     0.34819   0.28786   0.38669   0.00000  Uiso   1.00
H126   H     0.18468   0.35519   0.24687   0.00000  Uiso   1.00
H127   H     0.45688   0.48356   0.05455   0.00000  Uiso   1.00
H128   H     0.40069   0.18249   0.50518   0.00000  Uiso   1.00
H129   H     0.05588   0.32447   0.21034   0.00000  Uiso   1.00
O130   O     0.51265   0.41201   0.93906   0.00000  Uiso   1.00
O131   O     0.43893   0.01702   0.53027   0.00000  Uiso   1.00
O132   O     0.98655   0.20329   0.14345   0.00000  Uiso   1.00
N133   N     0.45959   0.28995   0.98702   0.00000  Uiso   1.00
N134   N     0.40707   0.00847   0.40834   0.00000  Uiso   1.00
N135   N     0.08470   0.14119   0.13271   0.00000  Uiso   1.00
N136   N     0.45074   0.41844   0.04347   0.00000  Uiso   1.00
N137   N     0.39823   0.13696   0.46478   0.00000  Uiso   1.00
N138   N     0.07586   0.26968   0.18915   0.00000  Uiso   1.00
C139   C     0.18211   0.86475   0.17102   0.00000  Uiso   1.00
C140   C     0.14522   0.79071   0.13410   0.00000  Uiso   1.00
C141   C     0.10928   0.80003   0.07162   0.00000  Uiso   1.00
C142   C     0.07915   0.72429   0.04644   0.00000  Uiso   1.00
C143   C     0.02100   0.62183   0.98365   0.00000  Uiso   1.00
C144   C     0.15969   0.86828   0.25021   0.00000  Uiso   1.00
C145   C     0.13591   0.94284   0.28536   0.00000  Uiso   1.00
C146   C     0.11796   0.93240   0.35793   0.00000  Uiso   1.00
C147   C     0.08231   0.95038   0.47543   0.00000  Uiso   1.00
C148   C     0.24853   0.83170   0.17424   0.00000  Uiso   1.00
C149   C     0.29946   0.87550   0.14552   0.00000  Uiso   1.00
C150   C     0.35631   0.83427   0.15414   0.00000  Uiso   1.00
C151   C     0.45859   0.79546   0.15368   0.00000  Uiso   1.00
C152   C     0.19251   0.71365   0.23740   0.00000  Uiso   1.00
C153   C     0.15088   0.70864   0.17015   0.00000  Uiso   1.00
C154   C     0.12079   0.63286   0.14506   0.00000  Uiso   1.00
C155   C     0.08481   0.64207   0.08255   0.00000  Uiso   1.00
C156   C     0.16534   0.78622   0.28627   0.00000  Uiso   1.00
C157   C     0.14742   0.77566   0.35880   0.00000  Uiso   1.00
C158   C     0.12362   0.85018   0.39405   0.00000  Uiso   1.00
C159   C     0.25418   0.74963   0.21029   0.00000  Uiso   1.00
C160   C     0.31097   0.70833   0.21896   0.00000  Uiso   1.00
C161   C     0.36197   0.75205   0.19027   0.00000  Uiso   1.00
H162   H     0.17771   0.92864   0.14295   0.00000  Uiso   1.00
H163   H     0.10491   0.86356   0.04374   0.00000  Uiso   1.00
H164   H     0.13155   0.00634   0.25745   0.00000  Uiso   1.00
H165   H     0.29507   0.93901   0.11763   0.00000  Uiso   1.00
H166   H     0.02669   0.75522   0.94965   0.00000  Uiso   1.00
H167   H     0.08287   0.05629   0.40028   0.00000  Uiso   1.00
H168   H     0.42768   0.91431   0.10545   0.00000  Uiso   1.00
H169   H     0.19691   0.64975   0.26547   0.00000  Uiso   1.00
H170   H     0.12517   0.56936   0.17297   0.00000  Uiso   1.00
H171   H     0.15181   0.71214   0.38669   0.00000  Uiso   1.00
H172   H     0.31532   0.64481   0.24687   0.00000  Uiso   1.00
H173   H     0.04312   0.51644   0.05455   0.00000  Uiso   1.00
H174   H     0.09931   0.81751   0.50518   0.00000  Uiso   1.00
H175   H     0.44412   0.67553   0.21034   0.00000  Uiso   1.00
O176   O     0.98735   0.58799   0.93906   0.00000  Uiso   1.00
O177   O     0.06107   0.98298   0.53027   0.00000  Uiso   1.00
O178   O     0.51345   0.79671   0.14345   0.00000  Uiso   1.00
N179   N     0.04041   0.71005   0.98702   0.00000  Uiso   1.00
N180   N     0.09293   0.99153   0.40834   0.00000  Uiso   1.00
N181   N     0.41530   0.85881   0.13271   0.00000  Uiso   1.00
N182   N     0.04926   0.58156   0.04347   0.00000  Uiso   1.00
N183   N     0.10177   0.86304   0.46478   0.00000  Uiso   1.00
N184   N     0.42414   0.73032   0.18915   0.00000  Uiso   1.00
C185   C     0.31789   0.86475   0.67102   0.00000  Uiso   1.00
C186   C     0.35478   0.79071   0.63410   0.00000  Uiso   1.00
C187   C     0.39072   0.80003   0.57162   0.00000  Uiso   1.00
C188   C     0.42085   0.72429   0.54644   0.00000  Uiso   1.00
C189   C     0.47900   0.62183   0.48365   0.00000  Uiso   1.00
C190   C     0.34031   0.86828   0.75021   0.00000  Uiso   1.00
C191   C     0.36409   0.94284   0.78536   0.00000  Uiso   1.00
C192   C     0.38204   0.93240   0.85793   0.00000  Uiso   1.00
C193   C     0.41769   0.95038   0.97543   0.00000  Uiso   1.00
C194   C     0.25147   0.83170   0.67424   0.00000  Uiso   1.00
C195   C     0.20054   0.87550   0.64552   0.00000  Uiso   1.00
C196   C     0.14369   0.83427   0.65414   0.00000  Uiso   1.00
C197   C     0.04141   0.79546   0.65368   0.00000  Uiso   1.00
C198   C     0.30749   0.71365   0.73740   0.00000  Uiso   1.00
C199   C     0.34912   0.70864   0.67015   0.00000  Uiso   1.00
C200   C     0.37921   0.63286   0.64506   0.00000  Uiso   1.00
C201   C     0.41519   0.64207   0.58255   0.00000  Uiso   1.00
C202   C     0.33466   0.78622   0.78627   0.00000  Uiso   1.00
C203   C     0.35258   0.77566   0.85880   0.00000  Uiso   1.00
C204   C     0.37638   0.85018   0.89405   0.00000  Uiso   1.00
C205   C     0.24582   0.74963   0.71029   0.00000  Uiso   1.00
C206   C     0.18903   0.70833   0.71896   0.00000  Uiso   1.00
C207   C     0.13803   0.75205   0.69027   0.00000  Uiso   1.00
H208   H     0.32229   0.92864   0.64295   0.00000  Uiso   1.00
H209   H     0.39509   0.86356   0.54374   0.00000  Uiso   1.00
H210   H     0.36845   0.00634   0.75745   0.00000  Uiso   1.00
H211   H     0.20493   0.93901   0.61763   0.00000  Uiso   1.00
H212   H     0.47331   0.75522   0.44965   0.00000  Uiso   1.00
H213   H     0.41713   0.05629   0.90028   0.00000  Uiso   1.00
H214   H     0.07232   0.91431   0.60545   0.00000  Uiso   1.00
H215   H     0.30309   0.64975   0.76547   0.00000  Uiso   1.00
H216   H     0.37483   0.56936   0.67297   0.00000  Uiso   1.00
H217   H     0.34819   0.71214   0.88669   0.00000  Uiso   1.00
H218   H     0.18468   0.64481   0.74687   0.00000  Uiso   1.00
H219   H     0.45688   0.51644   0.55455   0.00000  Uiso   1.00
H220   H     0.40069   0.81751   0.00518   0.00000  Uiso   1.00
H221   H     0.05588   0.67553   0.71034   0.00000  Uiso   1.00
O222   O     0.51265   0.58799   0.43906   0.00000  Uiso   1.00
O223   O     0.43893   0.98298   0.03027   0.00000  Uiso   1.00
O224   O     0.98655   0.79671   0.64345   0.00000  Uiso   1.00
N225   N     0.45959   0.71005   0.48702   0.00000  Uiso   1.00
N226   N     0.40707   0.99153   0.90834   0.00000  Uiso   1.00
N227   N     0.08470   0.85881   0.63271   0.00000  Uiso   1.00
N228   N     0.45074   0.58156   0.54347   0.00000  Uiso   1.00
N229   N     0.39823   0.86304   0.96478   0.00000  Uiso   1.00
N230   N     0.07586   0.73032   0.68915   0.00000  Uiso   1.00
C231   C     0.18211   0.13525   0.67102   0.00000  Uiso   1.00
C232   C     0.14522   0.20929   0.63410   0.00000  Uiso   1.00
C233   C     0.10928   0.19997   0.57162   0.00000  Uiso   1.00
C234   C     0.07915   0.27571   0.54644   0.00000  Uiso   1.00
C235   C     0.02100   0.37817   0.48365   0.00000  Uiso   1.00
C236   C     0.15969   0.13172   0.75021   0.00000  Uiso   1.00
C237   C     0.13591   0.05716   0.78536   0.00000  Uiso   1.00
C238   C     0.11796   0.06760   0.85793   0.00000  Uiso   1.00
C239   C     0.08231   0.04962   0.97543   0.00000  Uiso   1.00
C240   C     0.24853   0.16830   0.67424   0.00000  Uiso   1.00
C241   C     0.29946   0.12450   0.64552   0.00000  Uiso   1.00
C242   C     0.35631   0.16573   0.65414   0.00000  Uiso   1.00
C243   C     0.45859   0.20454   0.65368   0.00000  Uiso   1.00
C244   C     0.19251   0.28635   0.73740   0.00000  Uiso   1.00
C245   C     0.15088   0.29136   0.67015   0.00000  Uiso   1.00
C246   C     0.12079   0.36714   0.64506   0.00000  Uiso   1.00
C247   C     0.08481   0.35793   0.58255   0.00000  Uiso   1.00
C248   C     0.16534   0.21378   0.78627   0.00000  Uiso   1.00
C249   C     0.14742   0.22434   0.85880   0.00000  Uiso   1.00
C250   C     0.12362   0.14982   0.89405   0.00000  Uiso   1.00
C251   C     0.25418   0.25037   0.71029   0.00000  Uiso   1.00
C252   C     0.31097   0.29167   0.71896   0.00000  Uiso   1.00
C253   C     0.36197   0.24795   0.69027   0.00000  Uiso   1.00
H254   H     0.17771   0.07136   0.64295   0.00000  Uiso   1.00
H255   H     0.10491   0.13644   0.54374   0.00000  Uiso   1.00
H256   H     0.13155   0.99366   0.75745   0.00000  Uiso   1.00
H257   H     0.29507   0.06099   0.61763   0.00000  Uiso   1.00
H258   H     0.02669   0.24478   0.44965   0.00000  Uiso   1.00
H259   H     0.08287   0.94371   0.90028   0.00000  Uiso   1.00
H260   H     0.42768   0.08569   0.60545   0.00000  Uiso   1.00
H261   H     0.19691   0.35025   0.76547   0.00000  Uiso   1.00
H262   H     0.12517   0.43064   0.67297   0.00000  Uiso   1.00
H263   H     0.15181   0.28786   0.88669   0.00000  Uiso   1.00
H264   H     0.31532   0.35519   0.74687   0.00000  Uiso   1.00
H265   H     0.04312   0.48356   0.55455   0.00000  Uiso   1.00
H266   H     0.09931   0.18249   0.00518   0.00000  Uiso   1.00
H267   H     0.44412   0.32447   0.71034   0.00000  Uiso   1.00
O268   O     0.98735   0.41201   0.43906   0.00000  Uiso   1.00
O269   O     0.06107   0.01702   0.03027   0.00000  Uiso   1.00
O270   O     0.51345   0.20329   0.64345   0.00000  Uiso   1.00
N271   N     0.04041   0.28995   0.48702   0.00000  Uiso   1.00
N272   N     0.09293   0.00847   0.90834   0.00000  Uiso   1.00
N273   N     0.41530   0.14119   0.63271   0.00000  Uiso   1.00
N274   N     0.04926   0.41844   0.54347   0.00000  Uiso   1.00
N275   N     0.10177   0.13696   0.96478   0.00000  Uiso   1.00
N276   N     0.42414   0.26968   0.68915   0.00000  Uiso   1.00
C277   C     0.68211   0.86475   0.82898   0.00000  Uiso   1.00
C278   C     0.64522   0.79071   0.86590   0.00000  Uiso   1.00
C279   C     0.60928   0.80003   0.92838   0.00000  Uiso   1.00
C280   C     0.57915   0.72429   0.95356   0.00000  Uiso   1.00
C281   C     0.52100   0.62183   0.01635   0.00000  Uiso   1.00
C282   C     0.65969   0.86828   0.74979   0.00000  Uiso   1.00
C283   C     0.63591   0.94284   0.71464   0.00000  Uiso   1.00
C284   C     0.61796   0.93240   0.64207   0.00000  Uiso   1.00
C285   C     0.58231   0.95038   0.52457   0.00000  Uiso   1.00
C286   C     0.74853   0.83170   0.82576   0.00000  Uiso   1.00
C287   C     0.79946   0.87550   0.85448   0.00000  Uiso   1.00
C288   C     0.85631   0.83427   0.84586   0.00000  Uiso   1.00
C289   C     0.95859   0.79546   0.84632   0.00000  Uiso   1.00
C290   C     0.69251   0.71365   0.76260   0.00000  Uiso   1.00
C291   C     0.65088   0.70864   0.82985   0.00000  Uiso   1.00
C292   C     0.62079   0.63286   0.85494   0.00000  Uiso   1.00
C293   C     0.58481   0.64207   0.91745   0.00000  Uiso   1.00
C294   C     0.66534   0.78622   0.71373   0.00000  Uiso   1.00
C295   C     0.64742   0.77566   0.64120   0.00000  Uiso   1.00
C296   C     0.62362   0.85018   0.60595   0.00000  Uiso   1.00
C297   C     0.75418   0.74963   0.78971   0.00000  Uiso   1.00
C298   C     0.81097   0.70833   0.78104   0.00000  Uiso   1.00
C299   C     0.86197   0.75205   0.80973   0.00000  Uiso   1.00
H300   H     0.67771   0.92864   0.85705   0.00000  Uiso   1.00
H301   H     0.60491   0.86356   0.95626   0.00000  Uiso   1.00
H302   H     0.63155   0.00634   0.74255   0.00000  Uiso   1.00
H303   H     0.79507   0.93901   0.88237   0.00000  Uiso   1.00
H304   H     0.52669   0.75522   0.05035   0.00000  Uiso   1.00
H305   H     0.58287   0.05629   0.59972   0.00000  Uiso   1.00
H306   H     0.92768   0.91431   0.89455   0.00000  Uiso   1.00
H307   H     0.69691   0.64975   0.73453   0.00000  Uiso   1.00
H308   H     0.62517   0.56936   0.82703   0.00000  Uiso   1.00
H309   H     0.65181   0.71214   0.61331   0.00000  Uiso   1.00
H310   H     0.81532   0.64481   0.75313   0.00000  Uiso   1.00
H311   H     0.54312   0.51644   0.94545   0.00000  Uiso   1.00
H312   H     0.59931   0.81751   0.49482   0.00000  Uiso   1.00
H313   H     0.94412   0.67553   0.78966   0.00000  Uiso   1.00
O314   O     0.48735   0.58799   0.06094   0.00000  Uiso   1.00
O315   O     0.56107   0.98298   0.46973   0.00000  Uiso   1.00
O316   O     0.01345   0.79671   0.85655   0.00000  Uiso   1.00
N317   N     0.54041   0.71005   0.01298   0.00000  Uiso   1.00
N318   N     0.59293   0.99153   0.59166   0.00000  Uiso   1.00
N319   N     0.91530   0.85881   0.86729   0.00000  Uiso   1.00
N320   N     0.54926   0.58156   0.95653   0.00000  Uiso   1.00
N321   N     0.60177   0.86304   0.53522   0.00000  Uiso   1.00
N322   N     0.92414   0.73032   0.81085   0.00000  Uiso   1.00
C323   C     0.81789   0.13525   0.82898   0.00000  Uiso   1.00
C324   C     0.85478   0.20929   0.86590   0.00000  Uiso   1.00
C325   C     0.89072   0.19997   0.92838   0.00000  Uiso   1.00
C326   C     0.92085   0.27571   0.95356   0.00000  Uiso   1.00
C327   C     0.97900   0.37817   0.01635   0.00000  Uiso   1.00
C328   C     0.84031   0.13172   0.74979   0.00000  Uiso   1.00
C329   C     0.86409   0.05716   0.71464   0.00000  Uiso   1.00
C330   C     0.88204   0.06760   0.64207   0.00000  Uiso   1.00
C331   C     0.91769   0.04962   0.52457   0.00000  Uiso   1.00
C332   C     0.75147   0.16830   0.82576   0.00000  Uiso   1.00
C333   C     0.70054   0.12450   0.85448   0.00000  Uiso   1.00
C334   C     0.64369   0.16573   0.84586   0.00000  Uiso   1.00
C335   C     0.54141   0.20454   0.84632   0.00000  Uiso   1.00
C336   C     0.80749   0.28635   0.76260   0.00000  Uiso   1.00
C337   C     0.84912   0.29136   0.82985   0.00000  Uiso   1.00
C338   C     0.87921   0.36714   0.85494   0.00000  Uiso   1.00
C339   C     0.91519   0.35793   0.91745   0.00000  Uiso   1.00
C340   C     0.83466   0.21378   0.71373   0.00000  Uiso   1.00
C341   C     0.85258   0.22434   0.64120   0.00000  Uiso   1.00
C342   C     0.87638   0.14982   0.60595   0.00000  Uiso   1.00
C343   C     0.74582   0.25037   0.78971   0.00000  Uiso   1.00
C344   C     0.68903   0.29167   0.78104   0.00000  Uiso   1.00
C345   C     0.63803   0.24795   0.80973   0.00000  Uiso   1.00
H346   H     0.82229   0.07136   0.85705   0.00000  Uiso   1.00
H347   H     0.89509   0.13644   0.95626   0.00000  Uiso   1.00
H348   H     0.86845   0.99366   0.74255   0.00000  Uiso   1.00
H349   H     0.70493   0.06099   0.88237   0.00000  Uiso   1.00
H350   H     0.97331   0.24478   0.05035   0.00000  Uiso   1.00
H351   H     0.91713   0.94371   0.59972   0.00000  Uiso   1.00
H352   H     0.57232   0.08569   0.89455   0.00000  Uiso   1.00
H353   H     0.80309   0.35025   0.73453   0.00000  Uiso   1.00
H354   H     0.87483   0.43064   0.82703   0.00000  Uiso   1.00
H355   H     0.84819   0.28786   0.61331   0.00000  Uiso   1.00
H356   H     0.68468   0.35519   0.75313   0.00000  Uiso   1.00
H357   H     0.95688   0.48356   0.94545   0.00000  Uiso   1.00
H358   H     0.90069   0.18249   0.49482   0.00000  Uiso   1.00
H359   H     0.55588   0.32447   0.78966   0.00000  Uiso   1.00
O360   O     0.01265   0.41201   0.06094   0.00000  Uiso   1.00
O361   O     0.93893   0.01702   0.46973   0.00000  Uiso   1.00
O362   O     0.48655   0.20329   0.85655   0.00000  Uiso   1.00
N363   N     0.95959   0.28995   0.01298   0.00000  Uiso   1.00
N364   N     0.90707   0.00847   0.59166   0.00000  Uiso   1.00
N365   N     0.58470   0.14119   0.86729   0.00000  Uiso   1.00
N366   N     0.95074   0.41844   0.95653   0.00000  Uiso   1.00
N367   N     0.89823   0.13696   0.53522   0.00000  Uiso   1.00
N368   N     0.57586   0.26968   0.81085   0.00000  Uiso   1.00
