data_job_03418
_audit_creation_date              2018-12-19
_audit_creation_method            'Materials Studio'
_symmetry_space_group_name_H-M    'P1'
_symmetry_Int_Tables_number       1
_symmetry_cell_setting            triclinic
loop_
_symmetry_equiv_pos_as_xyz
  x,y,z
_cell_length_a                    7.6441
_cell_length_b                    25.1544
_cell_length_c                    15.8403
_cell_angle_alpha                 90.0000
_cell_angle_beta                  119.2456
_cell_angle_gamma                 90.0000
loop_
_atom_site_label
_atom_site_type_symbol
_atom_site_fract_x
_atom_site_fract_y
_atom_site_fract_z
_atom_site_U_iso_or_equiv
_atom_site_adp_type
_atom_site_occupancy
C1     C     0.09226   0.63921   0.88309   0.00000  Uiso   1.00
C2     C     0.07345   0.69944   0.87119   0.00000  Uiso   1.00
C3     C     0.23177   0.73508   0.90308   0.00000  Uiso   1.00
C4     C     0.18330   0.78860   0.88523   0.00000  Uiso   1.00
C5     C     0.18447   0.87952   0.87409   0.00000  Uiso   1.00
C6     C     0.97831   0.62378   0.93601   0.00000  Uiso   1.00
C7     C     0.05663   0.59579   0.02240   0.00000  Uiso   1.00
C8     C     0.92804   0.58562   0.05909   0.00000  Uiso   1.00
C9     C     0.78146   0.55902   0.14856   0.00000  Uiso   1.00
C10    C     0.97310   0.61612   0.78148   0.00000  Uiso   1.00
C11    C     0.04701   0.58168   0.73794   0.00000  Uiso   1.00
C12    C     0.91402   0.56504   0.64454   0.00000  Uiso   1.00
C13    C     0.75935   0.52656   0.49407   0.00000  Uiso   1.00
C14    C     0.72465   0.67089   0.79465   0.00000  Uiso   1.00
C15    C     0.87378   0.71665   0.82315   0.00000  Uiso   1.00
C16    C     0.82505   0.77014   0.80524   0.00000  Uiso   1.00
C17    C     0.98327   0.80585   0.83710   0.00000  Uiso   1.00
C18    C     0.77864   0.64099   0.88798   0.00000  Uiso   1.00
C19    C     0.64991   0.63085   0.92455   0.00000  Uiso   1.00
C20    C     0.72801   0.60286   0.01097   0.00000  Uiso   1.00
C21    C     0.77342   0.63333   0.73344   0.00000  Uiso   1.00
C22    C     0.64029   0.61674   0.64009   0.00000  Uiso   1.00
C23    C     0.71399   0.58228   0.59642   0.00000  Uiso   1.00
H24    H     0.24771   0.62581   0.92049   0.00000  Uiso   1.00
H25    H     0.38627   0.72175   0.94027   0.00000  Uiso   1.00
H26    H     0.21114   0.58247   0.05955   0.00000  Uiso   1.00
H27    H     0.20153   0.56837   0.77514   0.00000  Uiso   1.00
H28    H     0.45184   0.83570   0.94103   0.00000  Uiso   1.00
H29    H     0.08256   0.54202   0.19254   0.00000  Uiso   1.00
H30    H     0.06229   0.51228   0.59280   0.00000  Uiso   1.00
H31    H     0.56919   0.68429   0.75725   0.00000  Uiso   1.00
H32    H     0.67052   0.78344   0.76806   0.00000  Uiso   1.00
H33    H     0.49540   0.64417   0.88735   0.00000  Uiso   1.00
H34    H     0.48578   0.63006   0.60294   0.00000  Uiso   1.00
H35    H     0.87091   0.88578   0.80127   0.00000  Uiso   1.00
H36    H     0.50163   0.59210   0.05277   0.00000  Uiso   1.00
H37    H     0.48135   0.56235   0.45303   0.00000  Uiso   1.00
O38    O     0.24028   0.92491   0.88124   0.00000  Uiso   1.00
O39    O     0.75579   0.53960   0.21119   0.00000  Uiso   1.00
O40    O     0.72920   0.50058   0.42435   0.00000  Uiso   1.00
N41    N     0.30121   0.83388   0.90664   0.00000  Uiso   1.00
N42    N     0.95597   0.55931   0.14179   0.00000  Uiso   1.00
N43    N     0.93700   0.53149   0.58109   0.00000  Uiso   1.00
N44    N     0.98862   0.86082   0.83143   0.00000  Uiso   1.00
N45    N     0.64337   0.58626   0.06658   0.00000  Uiso   1.00
N46    N     0.62440   0.55844   0.50588   0.00000  Uiso   1.00
C47    C     0.90774   0.13921   0.61691   0.00000  Uiso   1.00
C48    C     0.92655   0.19944   0.62881   0.00000  Uiso   1.00
C49    C     0.76823   0.23508   0.59692   0.00000  Uiso   1.00
C50    C     0.81670   0.28860   0.61477   0.00000  Uiso   1.00
C51    C     0.81553   0.37952   0.62591   0.00000  Uiso   1.00
C52    C     0.02169   0.12378   0.56399   0.00000  Uiso   1.00
C53    C     0.94337   0.09579   0.47760   0.00000  Uiso   1.00
C54    C     0.07196   0.08562   0.44091   0.00000  Uiso   1.00
C55    C     0.21854   0.05902   0.35144   0.00000  Uiso   1.00
C56    C     0.02690   0.11612   0.71852   0.00000  Uiso   1.00
C57    C     0.95299   0.08168   0.76206   0.00000  Uiso   1.00
C58    C     0.08598   0.06504   0.85546   0.00000  Uiso   1.00
C59    C     0.24065   0.02656   0.00593   0.00000  Uiso   1.00
C60    C     0.27535   0.17089   0.70535   0.00000  Uiso   1.00
C61    C     0.12622   0.21665   0.67685   0.00000  Uiso   1.00
C62    C     0.17495   0.27014   0.69476   0.00000  Uiso   1.00
C63    C     0.01673   0.30585   0.66290   0.00000  Uiso   1.00
C64    C     0.22136   0.14099   0.61202   0.00000  Uiso   1.00
C65    C     0.35009   0.13085   0.57545   0.00000  Uiso   1.00
C66    C     0.27199   0.10286   0.48903   0.00000  Uiso   1.00
C67    C     0.22658   0.13333   0.76656   0.00000  Uiso   1.00
C68    C     0.35971   0.11674   0.85991   0.00000  Uiso   1.00
C69    C     0.28601   0.08228   0.90358   0.00000  Uiso   1.00
H70    H     0.75229   0.12581   0.57951   0.00000  Uiso   1.00
H71    H     0.61373   0.22175   0.55973   0.00000  Uiso   1.00
H72    H     0.78886   0.08247   0.44045   0.00000  Uiso   1.00
H73    H     0.79847   0.06837   0.72486   0.00000  Uiso   1.00
H74    H     0.54816   0.33570   0.55897   0.00000  Uiso   1.00
H75    H     0.91744   0.04202   0.30746   0.00000  Uiso   1.00
H76    H     0.93771   0.01228   0.90720   0.00000  Uiso   1.00
H77    H     0.43081   0.18429   0.74275   0.00000  Uiso   1.00
H78    H     0.32948   0.28344   0.73194   0.00000  Uiso   1.00
H79    H     0.50460   0.14417   0.61265   0.00000  Uiso   1.00
H80    H     0.51422   0.13006   0.89706   0.00000  Uiso   1.00
H81    H     0.12909   0.38578   0.69873   0.00000  Uiso   1.00
H82    H     0.49837   0.09210   0.44723   0.00000  Uiso   1.00
H83    H     0.51865   0.06235   0.04697   0.00000  Uiso   1.00
O84    O     0.75972   0.42491   0.61876   0.00000  Uiso   1.00
O85    O     0.24421   0.03960   0.28881   0.00000  Uiso   1.00
O86    O     0.27080   0.00058   0.07565   0.00000  Uiso   1.00
N87    N     0.69879   0.33388   0.59336   0.00000  Uiso   1.00
N88    N     0.04403   0.05931   0.35821   0.00000  Uiso   1.00
N89    N     0.06300   0.03149   0.91891   0.00000  Uiso   1.00
N90    N     0.01138   0.36082   0.66857   0.00000  Uiso   1.00
N91    N     0.35663   0.08626   0.43342   0.00000  Uiso   1.00
N92    N     0.37560   0.05844   0.99412   0.00000  Uiso   1.00
C93    C     0.90774   0.36079   0.11691   0.00000  Uiso   1.00
C94    C     0.92655   0.30056   0.12881   0.00000  Uiso   1.00
C95    C     0.76823   0.26492   0.09692   0.00000  Uiso   1.00
C96    C     0.81670   0.21140   0.11477   0.00000  Uiso   1.00
C97    C     0.81553   0.12048   0.12591   0.00000  Uiso   1.00
C98    C     0.02169   0.37622   0.06399   0.00000  Uiso   1.00
C99    C     0.94337   0.40421   0.97760   0.00000  Uiso   1.00
C100   C     0.07196   0.41438   0.94091   0.00000  Uiso   1.00
C101   C     0.21854   0.44098   0.85144   0.00000  Uiso   1.00
C102   C     0.02690   0.38388   0.21852   0.00000  Uiso   1.00
C103   C     0.95299   0.41832   0.26206   0.00000  Uiso   1.00
C104   C     0.08598   0.43496   0.35546   0.00000  Uiso   1.00
C105   C     0.24065   0.47344   0.50593   0.00000  Uiso   1.00
C106   C     0.27535   0.32911   0.20535   0.00000  Uiso   1.00
C107   C     0.12622   0.28335   0.17685   0.00000  Uiso   1.00
C108   C     0.17495   0.22986   0.19476   0.00000  Uiso   1.00
C109   C     0.01673   0.19415   0.16290   0.00000  Uiso   1.00
C110   C     0.22136   0.35901   0.11202   0.00000  Uiso   1.00
C111   C     0.35009   0.36915   0.07545   0.00000  Uiso   1.00
C112   C     0.27199   0.39714   0.98903   0.00000  Uiso   1.00
C113   C     0.22658   0.36667   0.26656   0.00000  Uiso   1.00
C114   C     0.35971   0.38326   0.35991   0.00000  Uiso   1.00
C115   C     0.28601   0.41772   0.40358   0.00000  Uiso   1.00
H116   H     0.75229   0.37419   0.07951   0.00000  Uiso   1.00
H117   H     0.61373   0.27825   0.05973   0.00000  Uiso   1.00
H118   H     0.78886   0.41753   0.94045   0.00000  Uiso   1.00
H119   H     0.79847   0.43163   0.22486   0.00000  Uiso   1.00
H120   H     0.54816   0.16430   0.05897   0.00000  Uiso   1.00
H121   H     0.91744   0.45798   0.80746   0.00000  Uiso   1.00
H122   H     0.93771   0.48772   0.40720   0.00000  Uiso   1.00
H123   H     0.43081   0.31571   0.24275   0.00000  Uiso   1.00
H124   H     0.32948   0.21656   0.23194   0.00000  Uiso   1.00
H125   H     0.50460   0.35583   0.11265   0.00000  Uiso   1.00
H126   H     0.51422   0.36994   0.39706   0.00000  Uiso   1.00
H127   H     0.12909   0.11422   0.19873   0.00000  Uiso   1.00
H128   H     0.49837   0.40790   0.94723   0.00000  Uiso   1.00
H129   H     0.51865   0.43765   0.54697   0.00000  Uiso   1.00
O130   O     0.75972   0.07509   0.11876   0.00000  Uiso   1.00
O131   O     0.24421   0.46040   0.78881   0.00000  Uiso   1.00
O132   O     0.27080   0.49942   0.57565   0.00000  Uiso   1.00
N133   N     0.69879   0.16612   0.09336   0.00000  Uiso   1.00
N134   N     0.04403   0.44069   0.85821   0.00000  Uiso   1.00
N135   N     0.06300   0.46851   0.41891   0.00000  Uiso   1.00
N136   N     0.01138   0.13918   0.16857   0.00000  Uiso   1.00
N137   N     0.35663   0.41374   0.93342   0.00000  Uiso   1.00
N138   N     0.37560   0.44156   0.49412   0.00000  Uiso   1.00
C139   C     0.09226   0.86079   0.38309   0.00000  Uiso   1.00
C140   C     0.07345   0.80056   0.37119   0.00000  Uiso   1.00
C141   C     0.23177   0.76492   0.40308   0.00000  Uiso   1.00
C142   C     0.18330   0.71140   0.38523   0.00000  Uiso   1.00
C143   C     0.18447   0.62048   0.37409   0.00000  Uiso   1.00
C144   C     0.97831   0.87622   0.43601   0.00000  Uiso   1.00
C145   C     0.05663   0.90421   0.52240   0.00000  Uiso   1.00
C146   C     0.92804   0.91438   0.55909   0.00000  Uiso   1.00
C147   C     0.78146   0.94098   0.64856   0.00000  Uiso   1.00
C148   C     0.97310   0.88388   0.28148   0.00000  Uiso   1.00
C149   C     0.04701   0.91832   0.23794   0.00000  Uiso   1.00
C150   C     0.91402   0.93496   0.14454   0.00000  Uiso   1.00
C151   C     0.75935   0.97344   0.99407   0.00000  Uiso   1.00
C152   C     0.72465   0.82911   0.29465   0.00000  Uiso   1.00
C153   C     0.87378   0.78335   0.32315   0.00000  Uiso   1.00
C154   C     0.82505   0.72986   0.30524   0.00000  Uiso   1.00
C155   C     0.98327   0.69415   0.33710   0.00000  Uiso   1.00
C156   C     0.77864   0.85901   0.38798   0.00000  Uiso   1.00
C157   C     0.64991   0.86915   0.42455   0.00000  Uiso   1.00
C158   C     0.72801   0.89714   0.51097   0.00000  Uiso   1.00
C159   C     0.77342   0.86667   0.23344   0.00000  Uiso   1.00
C160   C     0.64029   0.88326   0.14009   0.00000  Uiso   1.00
C161   C     0.71399   0.91772   0.09642   0.00000  Uiso   1.00
H162   H     0.24771   0.87419   0.42049   0.00000  Uiso   1.00
H163   H     0.38627   0.77825   0.44027   0.00000  Uiso   1.00
H164   H     0.21114   0.91753   0.55955   0.00000  Uiso   1.00
H165   H     0.20153   0.93163   0.27514   0.00000  Uiso   1.00
H166   H     0.45184   0.66430   0.44103   0.00000  Uiso   1.00
H167   H     0.08256   0.95798   0.69254   0.00000  Uiso   1.00
H168   H     0.06229   0.98772   0.09280   0.00000  Uiso   1.00
H169   H     0.56919   0.81571   0.25725   0.00000  Uiso   1.00
H170   H     0.67052   0.71656   0.26806   0.00000  Uiso   1.00
H171   H     0.49540   0.85583   0.38735   0.00000  Uiso   1.00
H172   H     0.48578   0.86994   0.10294   0.00000  Uiso   1.00
H173   H     0.87091   0.61422   0.30127   0.00000  Uiso   1.00
H174   H     0.50163   0.90790   0.55277   0.00000  Uiso   1.00
H175   H     0.48135   0.93765   0.95303   0.00000  Uiso   1.00
O176   O     0.24028   0.57509   0.38124   0.00000  Uiso   1.00
O177   O     0.75579   0.96040   0.71119   0.00000  Uiso   1.00
O178   O     0.72920   0.99942   0.92435   0.00000  Uiso   1.00
N179   N     0.30121   0.66612   0.40664   0.00000  Uiso   1.00
N180   N     0.95597   0.94069   0.64179   0.00000  Uiso   1.00
N181   N     0.93700   0.96851   0.08109   0.00000  Uiso   1.00
N182   N     0.98862   0.63918   0.33143   0.00000  Uiso   1.00
N183   N     0.64337   0.91374   0.56658   0.00000  Uiso   1.00
N184   N     0.62440   0.94156   0.00588   0.00000  Uiso   1.00
