data_job_03123
_audit_creation_date              2018-12-19
_audit_creation_method            'Materials Studio'
_symmetry_space_group_name_H-M    'P1'
_symmetry_Int_Tables_number       1
_symmetry_cell_setting            triclinic
loop_
_symmetry_equiv_pos_as_xyz
  x,y,z
_cell_length_a                    20.3962
_cell_length_b                    10.4113
_cell_length_c                    26.0517
_cell_angle_alpha                 90.0000
_cell_angle_beta                  90.0000
_cell_angle_gamma                 90.0000
loop_
_atom_site_label
_atom_site_type_symbol
_atom_site_fract_x
_atom_site_fract_y
_atom_site_fract_z
_atom_site_U_iso_or_equiv
_atom_site_adp_type
_atom_site_occupancy
C1     C     0.11023   0.14215   0.09759   0.00000  Uiso   1.00
C2     C     0.15799   0.14785   0.14257   0.00000  Uiso   1.00
C3     C     0.21839   0.20923   0.14250   0.00000  Uiso   1.00
C4     C     0.25480   0.20344   0.18747   0.00000  Uiso   1.00
C5     C     0.33247   0.22222   0.25071   0.00000  Uiso   1.00
C6     C     0.04567   0.19683   0.11746   0.00000  Uiso   1.00
C7     C     0.01164   0.29937   0.09627   0.00000  Uiso   1.00
C8     C     0.95350   0.33480   0.12010   0.00000  Uiso   1.00
C9     C     0.85679   0.42955   0.14433   0.00000  Uiso   1.00
C10    C     0.09772   0.99995   0.08756   0.00000  Uiso   1.00
C11    C     0.10743   0.93695   0.04123   0.00000  Uiso   1.00
C12    C     0.09309   0.80662   0.03989   0.00000  Uiso   1.00
C13    C     0.07719   0.59569   0.01770   0.00000  Uiso   1.00
C14    C     0.06748   0.02274   0.17758   0.00000  Uiso   1.00
C15    C     0.13477   0.08300   0.18601   0.00000  Uiso   1.00
C16    C     0.17110   0.07711   0.23099   0.00000  Uiso   1.00
C17    C     0.23154   0.13846   0.23099   0.00000  Uiso   1.00
C18    C     0.02246   0.13198   0.16090   0.00000  Uiso   1.00
C19    C     0.96435   0.16725   0.18477   0.00000  Uiso   1.00
C20    C     0.93024   0.26982   0.16363   0.00000  Uiso   1.00
C21    C     0.07450   0.93509   0.13101   0.00000  Uiso   1.00
C22    C     0.06014   0.80484   0.12973   0.00000  Uiso   1.00
C23    C     0.06983   0.74165   0.08341   0.00000  Uiso   1.00
H24    H     0.12830   0.19265   0.06377   0.00000  Uiso   1.00
H25    H     0.23633   0.25942   0.10887   0.00000  Uiso   1.00
H26    H     0.02962   0.34953   0.06265   0.00000  Uiso   1.00
H27    H     0.12540   0.98717   0.00762   0.00000  Uiso   1.00
H28    H     0.34586   0.30488   0.17804   0.00000  Uiso   1.00
H29    H     0.90998   0.49486   0.08057   0.00000  Uiso   1.00
H30    H     0.11194   0.73076   0.96453   0.00000  Uiso   1.00
H31    H     0.04940   0.97225   0.21140   0.00000  Uiso   1.00
H32    H     0.15312   0.02692   0.26461   0.00000  Uiso   1.00
H33    H     0.94640   0.11704   0.21838   0.00000  Uiso   1.00
H34    H     0.04218   0.75468   0.16336   0.00000  Uiso   1.00
H35    H     0.27832   0.11618   0.30445   0.00000  Uiso   1.00
H36    H     0.84243   0.30616   0.20697   0.00000  Uiso   1.00
H37    H     0.04440   0.54206   0.09094   0.00000  Uiso   1.00
O38    O     0.38173   0.25051   0.27359   0.00000  Uiso   1.00
O39    O     0.80986   0.49974   0.14570   0.00000  Uiso   1.00
O40    O     0.07484   0.49726   0.99346   0.00000  Uiso   1.00
N41    N     0.31574   0.25295   0.20049   0.00000  Uiso   1.00
N42    N     0.90822   0.43058   0.10936   0.00000  Uiso   1.00
N43    N     0.09702   0.71621   0.00087   0.00000  Uiso   1.00
N44    N     0.27939   0.15141   0.26850   0.00000  Uiso   1.00
N45    N     0.87187   0.32904   0.17738   0.00000  Uiso   1.00
N46    N     0.06068   0.61467   0.06889   0.00000  Uiso   1.00
C47    C     0.38977   0.35785   0.59759   0.00000  Uiso   1.00
C48    C     0.34201   0.35215   0.64257   0.00000  Uiso   1.00
C49    C     0.28161   0.29077   0.64250   0.00000  Uiso   1.00
C50    C     0.24520   0.29656   0.68747   0.00000  Uiso   1.00
C51    C     0.16753   0.27778   0.75071   0.00000  Uiso   1.00
C52    C     0.45433   0.30317   0.61746   0.00000  Uiso   1.00
C53    C     0.48836   0.20063   0.59627   0.00000  Uiso   1.00
C54    C     0.54650   0.16520   0.62010   0.00000  Uiso   1.00
C55    C     0.64321   0.07045   0.64433   0.00000  Uiso   1.00
C56    C     0.40228   0.50005   0.58756   0.00000  Uiso   1.00
C57    C     0.39257   0.56305   0.54123   0.00000  Uiso   1.00
C58    C     0.40691   0.69338   0.53989   0.00000  Uiso   1.00
C59    C     0.42281   0.90431   0.51770   0.00000  Uiso   1.00
C60    C     0.43252   0.47726   0.67758   0.00000  Uiso   1.00
C61    C     0.36523   0.41700   0.68601   0.00000  Uiso   1.00
C62    C     0.32890   0.42289   0.73099   0.00000  Uiso   1.00
C63    C     0.26846   0.36154   0.73099   0.00000  Uiso   1.00
C64    C     0.47754   0.36802   0.66090   0.00000  Uiso   1.00
C65    C     0.53565   0.33275   0.68477   0.00000  Uiso   1.00
C66    C     0.56976   0.23018   0.66363   0.00000  Uiso   1.00
C67    C     0.42550   0.56491   0.63101   0.00000  Uiso   1.00
C68    C     0.43986   0.69516   0.62973   0.00000  Uiso   1.00
C69    C     0.43017   0.75835   0.58341   0.00000  Uiso   1.00
H70    H     0.37170   0.30735   0.56377   0.00000  Uiso   1.00
H71    H     0.26367   0.24058   0.60887   0.00000  Uiso   1.00
H72    H     0.47038   0.15047   0.56265   0.00000  Uiso   1.00
H73    H     0.37460   0.51283   0.50762   0.00000  Uiso   1.00
H74    H     0.15414   0.19512   0.67804   0.00000  Uiso   1.00
H75    H     0.59002   0.00514   0.58057   0.00000  Uiso   1.00
H76    H     0.38806   0.76924   0.46453   0.00000  Uiso   1.00
H77    H     0.45060   0.52775   0.71140   0.00000  Uiso   1.00
H78    H     0.34688   0.47308   0.76461   0.00000  Uiso   1.00
H79    H     0.55360   0.38296   0.71838   0.00000  Uiso   1.00
H80    H     0.45782   0.74532   0.66336   0.00000  Uiso   1.00
H81    H     0.22168   0.38382   0.80445   0.00000  Uiso   1.00
H82    H     0.65757   0.19384   0.70697   0.00000  Uiso   1.00
H83    H     0.45560   0.95794   0.59094   0.00000  Uiso   1.00
O84    O     0.11827   0.24949   0.77359   0.00000  Uiso   1.00
O85    O     0.69014   0.00026   0.64570   0.00000  Uiso   1.00
O86    O     0.42516   0.00274   0.49346   0.00000  Uiso   1.00
N87    N     0.18426   0.24705   0.70049   0.00000  Uiso   1.00
N88    N     0.59178   0.06942   0.60936   0.00000  Uiso   1.00
N89    N     0.40298   0.78379   0.50087   0.00000  Uiso   1.00
N90    N     0.22061   0.34859   0.76850   0.00000  Uiso   1.00
N91    N     0.62813   0.17096   0.67738   0.00000  Uiso   1.00
N92    N     0.43932   0.88533   0.56889   0.00000  Uiso   1.00
C93    C     0.88977   0.14215   0.40241   0.00000  Uiso   1.00
C94    C     0.84201   0.14785   0.35743   0.00000  Uiso   1.00
C95    C     0.78161   0.20923   0.35750   0.00000  Uiso   1.00
C96    C     0.74520   0.20344   0.31253   0.00000  Uiso   1.00
C97    C     0.66753   0.22222   0.24929   0.00000  Uiso   1.00
C98    C     0.95433   0.19683   0.38254   0.00000  Uiso   1.00
C99    C     0.98836   0.29937   0.40373   0.00000  Uiso   1.00
C100   C     0.04650   0.33480   0.37990   0.00000  Uiso   1.00
C101   C     0.14321   0.42955   0.35567   0.00000  Uiso   1.00
C102   C     0.90228   0.99995   0.41244   0.00000  Uiso   1.00
C103   C     0.89257   0.93695   0.45877   0.00000  Uiso   1.00
C104   C     0.90691   0.80662   0.46011   0.00000  Uiso   1.00
C105   C     0.92281   0.59569   0.48230   0.00000  Uiso   1.00
C106   C     0.93252   0.02274   0.32242   0.00000  Uiso   1.00
C107   C     0.86523   0.08300   0.31399   0.00000  Uiso   1.00
C108   C     0.82890   0.07711   0.26901   0.00000  Uiso   1.00
C109   C     0.76846   0.13846   0.26901   0.00000  Uiso   1.00
C110   C     0.97754   0.13198   0.33910   0.00000  Uiso   1.00
C111   C     0.03565   0.16725   0.31523   0.00000  Uiso   1.00
C112   C     0.06976   0.26982   0.33637   0.00000  Uiso   1.00
C113   C     0.92550   0.93509   0.36899   0.00000  Uiso   1.00
C114   C     0.93986   0.80484   0.37027   0.00000  Uiso   1.00
C115   C     0.93017   0.74165   0.41659   0.00000  Uiso   1.00
H116   H     0.87170   0.19265   0.43623   0.00000  Uiso   1.00
H117   H     0.76367   0.25942   0.39113   0.00000  Uiso   1.00
H118   H     0.97038   0.34953   0.43735   0.00000  Uiso   1.00
H119   H     0.87460   0.98717   0.49238   0.00000  Uiso   1.00
H120   H     0.65414   0.30488   0.32196   0.00000  Uiso   1.00
H121   H     0.09002   0.49486   0.41943   0.00000  Uiso   1.00
H122   H     0.88806   0.73076   0.53547   0.00000  Uiso   1.00
H123   H     0.95060   0.97225   0.28860   0.00000  Uiso   1.00
H124   H     0.84688   0.02692   0.23539   0.00000  Uiso   1.00
H125   H     0.05360   0.11704   0.28162   0.00000  Uiso   1.00
H126   H     0.95782   0.75468   0.33664   0.00000  Uiso   1.00
H127   H     0.72168   0.11618   0.19555   0.00000  Uiso   1.00
H128   H     0.15757   0.30616   0.29303   0.00000  Uiso   1.00
H129   H     0.95560   0.54206   0.40906   0.00000  Uiso   1.00
O130   O     0.61827   0.25051   0.22641   0.00000  Uiso   1.00
O131   O     0.19014   0.49974   0.35430   0.00000  Uiso   1.00
O132   O     0.92516   0.49726   0.50654   0.00000  Uiso   1.00
N133   N     0.68426   0.25295   0.29951   0.00000  Uiso   1.00
N134   N     0.09178   0.43058   0.39064   0.00000  Uiso   1.00
N135   N     0.90298   0.71621   0.49913   0.00000  Uiso   1.00
N136   N     0.72061   0.15141   0.23150   0.00000  Uiso   1.00
N137   N     0.12813   0.32904   0.32262   0.00000  Uiso   1.00
N138   N     0.93932   0.61467   0.43111   0.00000  Uiso   1.00
C139   C     0.61023   0.35785   0.90241   0.00000  Uiso   1.00
C140   C     0.65799   0.35215   0.85743   0.00000  Uiso   1.00
C141   C     0.71839   0.29077   0.85750   0.00000  Uiso   1.00
C142   C     0.75480   0.29656   0.81253   0.00000  Uiso   1.00
C143   C     0.83247   0.27778   0.74929   0.00000  Uiso   1.00
C144   C     0.54567   0.30317   0.88254   0.00000  Uiso   1.00
C145   C     0.51164   0.20063   0.90373   0.00000  Uiso   1.00
C146   C     0.45350   0.16520   0.87990   0.00000  Uiso   1.00
C147   C     0.35679   0.07045   0.85567   0.00000  Uiso   1.00
C148   C     0.59772   0.50005   0.91244   0.00000  Uiso   1.00
C149   C     0.60743   0.56305   0.95877   0.00000  Uiso   1.00
C150   C     0.59309   0.69338   0.96011   0.00000  Uiso   1.00
C151   C     0.57719   0.90431   0.98230   0.00000  Uiso   1.00
C152   C     0.56748   0.47726   0.82242   0.00000  Uiso   1.00
C153   C     0.63477   0.41700   0.81399   0.00000  Uiso   1.00
C154   C     0.67110   0.42289   0.76901   0.00000  Uiso   1.00
C155   C     0.73154   0.36154   0.76901   0.00000  Uiso   1.00
C156   C     0.52246   0.36802   0.83910   0.00000  Uiso   1.00
C157   C     0.46435   0.33275   0.81523   0.00000  Uiso   1.00
C158   C     0.43024   0.23018   0.83637   0.00000  Uiso   1.00
C159   C     0.57450   0.56491   0.86899   0.00000  Uiso   1.00
C160   C     0.56014   0.69516   0.87027   0.00000  Uiso   1.00
C161   C     0.56983   0.75835   0.91659   0.00000  Uiso   1.00
H162   H     0.62830   0.30735   0.93623   0.00000  Uiso   1.00
H163   H     0.73633   0.24058   0.89113   0.00000  Uiso   1.00
H164   H     0.52962   0.15047   0.93735   0.00000  Uiso   1.00
H165   H     0.62540   0.51283   0.99238   0.00000  Uiso   1.00
H166   H     0.84586   0.19512   0.82196   0.00000  Uiso   1.00
H167   H     0.40998   0.00514   0.91943   0.00000  Uiso   1.00
H168   H     0.61194   0.76924   0.03547   0.00000  Uiso   1.00
H169   H     0.54940   0.52775   0.78860   0.00000  Uiso   1.00
H170   H     0.65312   0.47308   0.73539   0.00000  Uiso   1.00
H171   H     0.44640   0.38296   0.78162   0.00000  Uiso   1.00
H172   H     0.54218   0.74532   0.83664   0.00000  Uiso   1.00
H173   H     0.77832   0.38382   0.69555   0.00000  Uiso   1.00
H174   H     0.34243   0.19384   0.79303   0.00000  Uiso   1.00
H175   H     0.54440   0.95794   0.90906   0.00000  Uiso   1.00
O176   O     0.88173   0.24949   0.72641   0.00000  Uiso   1.00
O177   O     0.30986   0.00026   0.85430   0.00000  Uiso   1.00
O178   O     0.57484   0.00274   0.00654   0.00000  Uiso   1.00
N179   N     0.81574   0.24705   0.79951   0.00000  Uiso   1.00
N180   N     0.40822   0.06942   0.89064   0.00000  Uiso   1.00
N181   N     0.59702   0.78379   0.99913   0.00000  Uiso   1.00
N182   N     0.77939   0.34859   0.73150   0.00000  Uiso   1.00
N183   N     0.37187   0.17096   0.82262   0.00000  Uiso   1.00
N184   N     0.56068   0.88533   0.93111   0.00000  Uiso   1.00
C185   C     0.88977   0.85785   0.90241   0.00000  Uiso   1.00
C186   C     0.84201   0.85215   0.85743   0.00000  Uiso   1.00
C187   C     0.78161   0.79077   0.85750   0.00000  Uiso   1.00
C188   C     0.74520   0.79656   0.81253   0.00000  Uiso   1.00
C189   C     0.66753   0.77778   0.74929   0.00000  Uiso   1.00
C190   C     0.95433   0.80317   0.88254   0.00000  Uiso   1.00
C191   C     0.98836   0.70063   0.90373   0.00000  Uiso   1.00
C192   C     0.04650   0.66520   0.87990   0.00000  Uiso   1.00
C193   C     0.14321   0.57045   0.85567   0.00000  Uiso   1.00
C194   C     0.90228   0.00005   0.91244   0.00000  Uiso   1.00
C195   C     0.89257   0.06305   0.95877   0.00000  Uiso   1.00
C196   C     0.90691   0.19338   0.96011   0.00000  Uiso   1.00
C197   C     0.92281   0.40431   0.98230   0.00000  Uiso   1.00
C198   C     0.93252   0.97726   0.82242   0.00000  Uiso   1.00
C199   C     0.86523   0.91700   0.81399   0.00000  Uiso   1.00
C200   C     0.82890   0.92289   0.76901   0.00000  Uiso   1.00
C201   C     0.76846   0.86154   0.76901   0.00000  Uiso   1.00
C202   C     0.97754   0.86802   0.83910   0.00000  Uiso   1.00
C203   C     0.03565   0.83275   0.81523   0.00000  Uiso   1.00
C204   C     0.06976   0.73018   0.83637   0.00000  Uiso   1.00
C205   C     0.92550   0.06491   0.86899   0.00000  Uiso   1.00
C206   C     0.93986   0.19516   0.87027   0.00000  Uiso   1.00
C207   C     0.93017   0.25835   0.91659   0.00000  Uiso   1.00
H208   H     0.87170   0.80735   0.93623   0.00000  Uiso   1.00
H209   H     0.76367   0.74058   0.89113   0.00000  Uiso   1.00
H210   H     0.97038   0.65047   0.93735   0.00000  Uiso   1.00
H211   H     0.87460   0.01283   0.99238   0.00000  Uiso   1.00
H212   H     0.65414   0.69512   0.82196   0.00000  Uiso   1.00
H213   H     0.09002   0.50514   0.91943   0.00000  Uiso   1.00
H214   H     0.88806   0.26924   0.03547   0.00000  Uiso   1.00
H215   H     0.95060   0.02775   0.78860   0.00000  Uiso   1.00
H216   H     0.84688   0.97308   0.73539   0.00000  Uiso   1.00
H217   H     0.05360   0.88296   0.78162   0.00000  Uiso   1.00
H218   H     0.95782   0.24532   0.83664   0.00000  Uiso   1.00
H219   H     0.72168   0.88382   0.69555   0.00000  Uiso   1.00
H220   H     0.15757   0.69384   0.79303   0.00000  Uiso   1.00
H221   H     0.95560   0.45794   0.90906   0.00000  Uiso   1.00
O222   O     0.61827   0.74949   0.72641   0.00000  Uiso   1.00
O223   O     0.19014   0.50026   0.85430   0.00000  Uiso   1.00
O224   O     0.92516   0.50274   0.00654   0.00000  Uiso   1.00
N225   N     0.68426   0.74705   0.79951   0.00000  Uiso   1.00
N226   N     0.09178   0.56942   0.89064   0.00000  Uiso   1.00
N227   N     0.90298   0.28379   0.99913   0.00000  Uiso   1.00
N228   N     0.72061   0.84859   0.73150   0.00000  Uiso   1.00
N229   N     0.12813   0.67096   0.82262   0.00000  Uiso   1.00
N230   N     0.93932   0.38533   0.93111   0.00000  Uiso   1.00
C231   C     0.61023   0.64215   0.40241   0.00000  Uiso   1.00
C232   C     0.65799   0.64785   0.35743   0.00000  Uiso   1.00
C233   C     0.71839   0.70923   0.35750   0.00000  Uiso   1.00
C234   C     0.75480   0.70344   0.31253   0.00000  Uiso   1.00
C235   C     0.83247   0.72222   0.24929   0.00000  Uiso   1.00
C236   C     0.54567   0.69683   0.38254   0.00000  Uiso   1.00
C237   C     0.51164   0.79937   0.40373   0.00000  Uiso   1.00
C238   C     0.45350   0.83480   0.37990   0.00000  Uiso   1.00
C239   C     0.35679   0.92955   0.35567   0.00000  Uiso   1.00
C240   C     0.59772   0.49995   0.41244   0.00000  Uiso   1.00
C241   C     0.60743   0.43695   0.45877   0.00000  Uiso   1.00
C242   C     0.59309   0.30662   0.46011   0.00000  Uiso   1.00
C243   C     0.57719   0.09569   0.48230   0.00000  Uiso   1.00
C244   C     0.56748   0.52274   0.32242   0.00000  Uiso   1.00
C245   C     0.63477   0.58300   0.31399   0.00000  Uiso   1.00
C246   C     0.67110   0.57711   0.26901   0.00000  Uiso   1.00
C247   C     0.73154   0.63846   0.26901   0.00000  Uiso   1.00
C248   C     0.52246   0.63198   0.33910   0.00000  Uiso   1.00
C249   C     0.46435   0.66725   0.31523   0.00000  Uiso   1.00
C250   C     0.43024   0.76982   0.33637   0.00000  Uiso   1.00
C251   C     0.57450   0.43509   0.36899   0.00000  Uiso   1.00
C252   C     0.56014   0.30484   0.37027   0.00000  Uiso   1.00
C253   C     0.56983   0.24165   0.41659   0.00000  Uiso   1.00
H254   H     0.62830   0.69265   0.43623   0.00000  Uiso   1.00
H255   H     0.73633   0.75942   0.39113   0.00000  Uiso   1.00
H256   H     0.52962   0.84953   0.43735   0.00000  Uiso   1.00
H257   H     0.62540   0.48717   0.49238   0.00000  Uiso   1.00
H258   H     0.84586   0.80488   0.32196   0.00000  Uiso   1.00
H259   H     0.40998   0.99486   0.41943   0.00000  Uiso   1.00
H260   H     0.61194   0.23076   0.53547   0.00000  Uiso   1.00
H261   H     0.54940   0.47225   0.28860   0.00000  Uiso   1.00
H262   H     0.65312   0.52692   0.23539   0.00000  Uiso   1.00
H263   H     0.44640   0.61704   0.28162   0.00000  Uiso   1.00
H264   H     0.54218   0.25468   0.33664   0.00000  Uiso   1.00
H265   H     0.77832   0.61618   0.19555   0.00000  Uiso   1.00
H266   H     0.34243   0.80616   0.29303   0.00000  Uiso   1.00
H267   H     0.54440   0.04206   0.40906   0.00000  Uiso   1.00
O268   O     0.88173   0.75051   0.22641   0.00000  Uiso   1.00
O269   O     0.30986   0.99974   0.35430   0.00000  Uiso   1.00
O270   O     0.57484   0.99726   0.50654   0.00000  Uiso   1.00
N271   N     0.81574   0.75295   0.29951   0.00000  Uiso   1.00
N272   N     0.40822   0.93058   0.39064   0.00000  Uiso   1.00
N273   N     0.59702   0.21621   0.49913   0.00000  Uiso   1.00
N274   N     0.77939   0.65141   0.23150   0.00000  Uiso   1.00
N275   N     0.37187   0.82904   0.32262   0.00000  Uiso   1.00
N276   N     0.56068   0.11467   0.43111   0.00000  Uiso   1.00
C277   C     0.11023   0.85785   0.59759   0.00000  Uiso   1.00
C278   C     0.15799   0.85215   0.64257   0.00000  Uiso   1.00
C279   C     0.21839   0.79077   0.64250   0.00000  Uiso   1.00
C280   C     0.25480   0.79656   0.68747   0.00000  Uiso   1.00
C281   C     0.33247   0.77778   0.75071   0.00000  Uiso   1.00
C282   C     0.04567   0.80317   0.61746   0.00000  Uiso   1.00
C283   C     0.01164   0.70063   0.59627   0.00000  Uiso   1.00
C284   C     0.95350   0.66520   0.62010   0.00000  Uiso   1.00
C285   C     0.85679   0.57045   0.64433   0.00000  Uiso   1.00
C286   C     0.09772   0.00005   0.58756   0.00000  Uiso   1.00
C287   C     0.10743   0.06305   0.54123   0.00000  Uiso   1.00
C288   C     0.09309   0.19338   0.53989   0.00000  Uiso   1.00
C289   C     0.07719   0.40431   0.51770   0.00000  Uiso   1.00
C290   C     0.06748   0.97726   0.67758   0.00000  Uiso   1.00
C291   C     0.13477   0.91700   0.68601   0.00000  Uiso   1.00
C292   C     0.17110   0.92289   0.73099   0.00000  Uiso   1.00
C293   C     0.23154   0.86154   0.73099   0.00000  Uiso   1.00
C294   C     0.02246   0.86802   0.66090   0.00000  Uiso   1.00
C295   C     0.96435   0.83275   0.68477   0.00000  Uiso   1.00
C296   C     0.93024   0.73018   0.66363   0.00000  Uiso   1.00
C297   C     0.07450   0.06491   0.63101   0.00000  Uiso   1.00
C298   C     0.06014   0.19516   0.62973   0.00000  Uiso   1.00
C299   C     0.06983   0.25835   0.58341   0.00000  Uiso   1.00
H300   H     0.12830   0.80735   0.56377   0.00000  Uiso   1.00
H301   H     0.23633   0.74058   0.60887   0.00000  Uiso   1.00
H302   H     0.02962   0.65047   0.56265   0.00000  Uiso   1.00
H303   H     0.12540   0.01283   0.50762   0.00000  Uiso   1.00
H304   H     0.34586   0.69512   0.67804   0.00000  Uiso   1.00
H305   H     0.90998   0.50514   0.58057   0.00000  Uiso   1.00
H306   H     0.11194   0.26924   0.46453   0.00000  Uiso   1.00
H307   H     0.04940   0.02775   0.71140   0.00000  Uiso   1.00
H308   H     0.15312   0.97308   0.76461   0.00000  Uiso   1.00
H309   H     0.94640   0.88296   0.71838   0.00000  Uiso   1.00
H310   H     0.04218   0.24532   0.66336   0.00000  Uiso   1.00
H311   H     0.27832   0.88382   0.80445   0.00000  Uiso   1.00
H312   H     0.84243   0.69384   0.70697   0.00000  Uiso   1.00
H313   H     0.04440   0.45794   0.59094   0.00000  Uiso   1.00
O314   O     0.38173   0.74949   0.77359   0.00000  Uiso   1.00
O315   O     0.80986   0.50026   0.64570   0.00000  Uiso   1.00
O316   O     0.07484   0.50274   0.49346   0.00000  Uiso   1.00
N317   N     0.31574   0.74705   0.70049   0.00000  Uiso   1.00
N318   N     0.90822   0.56942   0.60936   0.00000  Uiso   1.00
N319   N     0.09702   0.28379   0.50087   0.00000  Uiso   1.00
N320   N     0.27939   0.84859   0.76850   0.00000  Uiso   1.00
N321   N     0.87187   0.67096   0.67738   0.00000  Uiso   1.00
N322   N     0.06068   0.38533   0.56889   0.00000  Uiso   1.00
C323   C     0.38977   0.64215   0.09759   0.00000  Uiso   1.00
C324   C     0.34201   0.64785   0.14257   0.00000  Uiso   1.00
C325   C     0.28161   0.70923   0.14250   0.00000  Uiso   1.00
C326   C     0.24520   0.70344   0.18747   0.00000  Uiso   1.00
C327   C     0.16753   0.72222   0.25071   0.00000  Uiso   1.00
C328   C     0.45433   0.69683   0.11746   0.00000  Uiso   1.00
C329   C     0.48836   0.79937   0.09627   0.00000  Uiso   1.00
C330   C     0.54650   0.83480   0.12010   0.00000  Uiso   1.00
C331   C     0.64321   0.92955   0.14433   0.00000  Uiso   1.00
C332   C     0.40228   0.49995   0.08756   0.00000  Uiso   1.00
C333   C     0.39257   0.43695   0.04123   0.00000  Uiso   1.00
C334   C     0.40691   0.30662   0.03989   0.00000  Uiso   1.00
C335   C     0.42281   0.09569   0.01770   0.00000  Uiso   1.00
C336   C     0.43252   0.52274   0.17758   0.00000  Uiso   1.00
C337   C     0.36523   0.58300   0.18601   0.00000  Uiso   1.00
C338   C     0.32890   0.57711   0.23099   0.00000  Uiso   1.00
C339   C     0.26846   0.63846   0.23099   0.00000  Uiso   1.00
C340   C     0.47754   0.63198   0.16090   0.00000  Uiso   1.00
C341   C     0.53565   0.66725   0.18477   0.00000  Uiso   1.00
C342   C     0.56976   0.76982   0.16363   0.00000  Uiso   1.00
C343   C     0.42550   0.43509   0.13101   0.00000  Uiso   1.00
C344   C     0.43986   0.30484   0.12973   0.00000  Uiso   1.00
C345   C     0.43017   0.24165   0.08341   0.00000  Uiso   1.00
H346   H     0.37170   0.69265   0.06377   0.00000  Uiso   1.00
H347   H     0.26367   0.75942   0.10887   0.00000  Uiso   1.00
H348   H     0.47038   0.84953   0.06265   0.00000  Uiso   1.00
H349   H     0.37460   0.48717   0.00762   0.00000  Uiso   1.00
H350   H     0.15414   0.80488   0.17804   0.00000  Uiso   1.00
H351   H     0.59002   0.99486   0.08057   0.00000  Uiso   1.00
H352   H     0.38806   0.23076   0.96453   0.00000  Uiso   1.00
H353   H     0.45060   0.47225   0.21140   0.00000  Uiso   1.00
H354   H     0.34688   0.52692   0.26461   0.00000  Uiso   1.00
H355   H     0.55360   0.61704   0.21838   0.00000  Uiso   1.00
H356   H     0.45782   0.25468   0.16336   0.00000  Uiso   1.00
H357   H     0.22168   0.61618   0.30445   0.00000  Uiso   1.00
H358   H     0.65757   0.80616   0.20697   0.00000  Uiso   1.00
H359   H     0.45560   0.04206   0.09094   0.00000  Uiso   1.00
O360   O     0.11827   0.75051   0.27359   0.00000  Uiso   1.00
O361   O     0.69014   0.99974   0.14570   0.00000  Uiso   1.00
O362   O     0.42516   0.99726   0.99346   0.00000  Uiso   1.00
N363   N     0.18426   0.75295   0.20049   0.00000  Uiso   1.00
N364   N     0.59178   0.93058   0.10936   0.00000  Uiso   1.00
N365   N     0.40298   0.21621   0.00087   0.00000  Uiso   1.00
N366   N     0.22061   0.65141   0.26850   0.00000  Uiso   1.00
N367   N     0.62813   0.82904   0.17738   0.00000  Uiso   1.00
N368   N     0.43932   0.11467   0.06889   0.00000  Uiso   1.00
