data_job_01386
_audit_creation_date              2018-12-19
_audit_creation_method            'Materials Studio'
_symmetry_space_group_name_H-M    'P1'
_symmetry_Int_Tables_number       1
_symmetry_cell_setting            triclinic
loop_
_symmetry_equiv_pos_as_xyz
  x,y,z
_cell_length_a                    12.1170
_cell_length_b                    12.1170
_cell_length_c                    34.4433
_cell_angle_alpha                 90.0000
_cell_angle_beta                  90.0000
_cell_angle_gamma                 120.0000
loop_
_atom_site_label
_atom_site_type_symbol
_atom_site_fract_x
_atom_site_fract_y
_atom_site_fract_z
_atom_site_U_iso_or_equiv
_atom_site_adp_type
_atom_site_occupancy
C1     C     0.79419   0.82351   0.42541   0.00000  Uiso   1.00
C2     C     0.66335   0.71409   0.43687   0.00000  Uiso   1.00
C3     C     0.57493   0.72430   0.45992   0.00000  Uiso   1.00
C4     C     0.46073   0.61302   0.46707   0.00000  Uiso   1.00
C5     C     0.26135   0.46094   0.48722   0.00000  Uiso   1.00
C6     C     0.89018   0.78504   0.43881   0.00000  Uiso   1.00
C7     C     0.99250   0.85492   0.46348   0.00000  Uiso   1.00
C8     C     0.06926   0.80337   0.47225   0.00000  Uiso   1.00
C9     C     0.22211   0.76149   0.49539   0.00000  Uiso   1.00
C10    C     0.79782   0.82351   0.38115   0.00000  Uiso   1.00
C11    C     0.82251   0.92575   0.35734   0.00000  Uiso   1.00
C12    C     0.82154   0.90659   0.31757   0.00000  Uiso   1.00
C13    C     0.83098   0.92444   0.25119   0.00000  Uiso   1.00
C14    C     0.74862   0.60772   0.39711   0.00000  Uiso   1.00
C15    C     0.63860   0.59688   0.42151   0.00000  Uiso   1.00
C16    C     0.52451   0.48556   0.42862   0.00000  Uiso   1.00
C17    C     0.43593   0.49560   0.45167   0.00000  Uiso   1.00
C18    C     0.86544   0.66784   0.42344   0.00000  Uiso   1.00
C19    C     0.94208   0.61618   0.43218   0.00000  Uiso   1.00
C20    C     0.04447   0.68595   0.45686   0.00000  Uiso   1.00
C21    C     0.77307   0.70630   0.36579   0.00000  Uiso   1.00
C22    C     0.77208   0.68699   0.32604   0.00000  Uiso   1.00
C23    C     0.79675   0.78917   0.30218   0.00000  Uiso   1.00
H24    H     0.81347   0.91476   0.43737   0.00000  Uiso   1.00
H25    H     0.59412   0.81503   0.47181   0.00000  Uiso   1.00
H26    H     0.01163   0.94563   0.47536   0.00000  Uiso   1.00
H27    H     0.84166   0.01643   0.36925   0.00000  Uiso   1.00
H28    H     0.34004   0.65275   0.50323   0.00000  Uiso   1.00
H29    H     0.22041   0.92816   0.51071   0.00000  Uiso   1.00
H30    H     0.86199   0.07747   0.28694   0.00000  Uiso   1.00
H31    H     0.72935   0.51646   0.38515   0.00000  Uiso   1.00
H32    H     0.50538   0.39487   0.41672   0.00000  Uiso   1.00
H33    H     0.92290   0.52547   0.42028   0.00000  Uiso   1.00
H34    H     0.75292   0.59628   0.31416   0.00000  Uiso   1.00
H35    H     0.26801   0.31174   0.45852   0.00000  Uiso   1.00
H36    H     0.14839   0.58715   0.46600   0.00000  Uiso   1.00
H37    H     0.78997   0.73645   0.24223   0.00000  Uiso   1.00
O38    O     0.15823   0.40944   0.50259   0.00000  Uiso   1.00
O39    O     0.31325   0.77077   0.51240   0.00000  Uiso   1.00
O40    O     0.84300   0.96666   0.21883   0.00000  Uiso   1.00
N41    N     0.35381   0.58919   0.48836   0.00000  Uiso   1.00
N42    N     0.17690   0.84667   0.49537   0.00000  Uiso   1.00
N43    N     0.84184   0.98627   0.28616   0.00000  Uiso   1.00
N44    N     0.31506   0.40569   0.46431   0.00000  Uiso   1.00
N45    N     0.13814   0.66317   0.47131   0.00000  Uiso   1.00
N46    N     0.80308   0.80277   0.26210   0.00000  Uiso   1.00
C47    C     0.79682   0.74392   0.57037   0.00000  Uiso   1.00
C48    C     0.68601   0.61286   0.55979   0.00000  Uiso   1.00
C49    C     0.69362   0.52329   0.53657   0.00000  Uiso   1.00
C50    C     0.58144   0.40909   0.53034   0.00000  Uiso   1.00
C51    C     0.42696   0.20920   0.51139   0.00000  Uiso   1.00
C52    C     0.75767   0.83982   0.55741   0.00000  Uiso   1.00
C53    C     0.82555   0.94107   0.53221   0.00000  Uiso   1.00
C54    C     0.77369   0.01793   0.52398   0.00000  Uiso   1.00
C55    C     0.73050   0.17045   0.50138   0.00000  Uiso   1.00
C56    C     0.80096   0.74928   0.61461   0.00000  Uiso   1.00
C57    C     0.90525   0.77445   0.63750   0.00000  Uiso   1.00
C58    C     0.88985   0.77512   0.67743   0.00000  Uiso   1.00
C59    C     0.91388   0.78707   0.74363   0.00000  Uiso   1.00
C60    C     0.58405   0.70041   0.60058   0.00000  Uiso   1.00
C61    C     0.57045   0.58923   0.57619   0.00000  Uiso   1.00
C62    C     0.45822   0.47514   0.56999   0.00000  Uiso   1.00
C63    C     0.46567   0.38541   0.54678   0.00000  Uiso   1.00
C64    C     0.64211   0.81618   0.57382   0.00000  Uiso   1.00
C65    C     0.59014   0.89292   0.56563   0.00000  Uiso   1.00
C66    C     0.65792   0.99426   0.54042   0.00000  Uiso   1.00
C67    C     0.68539   0.72564   0.63102   0.00000  Uiso   1.00
C68    C     0.66984   0.72629   0.67092   0.00000  Uiso   1.00
C69    C     0.77408   0.75144   0.69387   0.00000  Uiso   1.00
H70    H     0.88679   0.76233   0.55760   0.00000  Uiso   1.00
H71    H     0.78308   0.54162   0.52388   0.00000  Uiso   1.00
H72    H     0.91498   0.95934   0.51952   0.00000  Uiso   1.00
H73    H     0.99466   0.79273   0.62479   0.00000  Uiso   1.00
H74    H     0.61711   0.28651   0.49372   0.00000  Uiso   1.00
H75    H     0.89526   0.16733   0.48454   0.00000  Uiso   1.00
H76    H     0.06330   0.81601   0.70653   0.00000  Uiso   1.00
H77    H     0.49408   0.68201   0.61335   0.00000  Uiso   1.00
H78    H     0.36880   0.45687   0.58269   0.00000  Uiso   1.00
H79    H     0.50071   0.87460   0.57833   0.00000  Uiso   1.00
H80    H     0.58039   0.70799   0.68361   0.00000  Uiso   1.00
H81    H     0.28088   0.21773   0.54146   0.00000  Uiso   1.00
H82    H     0.55903   0.09856   0.53228   0.00000  Uiso   1.00
H83    H     0.72706   0.74723   0.75426   0.00000  Uiso   1.00
O84    O     0.37367   0.10549   0.49641   0.00000  Uiso   1.00
O85    O     0.73861   0.26110   0.48437   0.00000  Uiso   1.00
O86    O     0.95905   0.80017   0.77561   0.00000  Uiso   1.00
N87    N     0.55518   0.30121   0.50917   0.00000  Uiso   1.00
N88    N     0.81522   0.12471   0.50058   0.00000  Uiso   1.00
N89    N     0.97233   0.79629   0.70812   0.00000  Uiso   1.00
N90    N     0.37425   0.26420   0.53486   0.00000  Uiso   1.00
N91    N     0.63430   0.08770   0.52627   0.00000  Uiso   1.00
N92    N     0.79140   0.75928   0.73381   0.00000  Uiso   1.00
C93    C     0.17649   0.97068   0.09207   0.00000  Uiso   1.00
C94    C     0.28591   0.94925   0.10354   0.00000  Uiso   1.00
C95    C     0.27570   0.85062   0.12659   0.00000  Uiso   1.00
C96    C     0.38698   0.84771   0.13373   0.00000  Uiso   1.00
C97    C     0.53906   0.80041   0.15389   0.00000  Uiso   1.00
C98    C     0.21496   0.10514   0.10548   0.00000  Uiso   1.00
C99    C     0.14508   0.13757   0.13015   0.00000  Uiso   1.00
C100   C     0.19663   0.26589   0.13892   0.00000  Uiso   1.00
C101   C     0.23851   0.46062   0.16206   0.00000  Uiso   1.00
C102   C     0.17649   0.97431   0.04782   0.00000  Uiso   1.00
C103   C     0.07425   0.89676   0.02401   0.00000  Uiso   1.00
C104   C     0.09341   0.91495   0.98424   0.00000  Uiso   1.00
C105   C     0.07556   0.90654   0.91786   0.00000  Uiso   1.00
C106   C     0.39228   0.14090   0.06378   0.00000  Uiso   1.00
C107   C     0.40312   0.04172   0.08817   0.00000  Uiso   1.00
C108   C     0.51444   0.03895   0.09528   0.00000  Uiso   1.00
C109   C     0.50440   0.94033   0.11834   0.00000  Uiso   1.00
C110   C     0.33216   0.19760   0.09011   0.00000  Uiso   1.00
C111   C     0.38382   0.32590   0.09884   0.00000  Uiso   1.00
C112   C     0.31405   0.35852   0.12352   0.00000  Uiso   1.00
C113   C     0.29370   0.06676   0.03245   0.00000  Uiso   1.00
C114   C     0.31301   0.08508   0.99271   0.00000  Uiso   1.00
C115   C     0.21083   0.00757   0.96884   0.00000  Uiso   1.00
H116   H     0.08524   0.89871   0.10404   0.00000  Uiso   1.00
H117   H     0.18497   0.77909   0.13848   0.00000  Uiso   1.00
H118   H     0.05437   0.06600   0.14203   0.00000  Uiso   1.00
H119   H     0.98357   0.82522   0.03591   0.00000  Uiso   1.00
H120   H     0.34725   0.68728   0.16989   0.00000  Uiso   1.00
H121   H     0.07184   0.29225   0.17738   0.00000  Uiso   1.00
H122   H     0.92253   0.78452   0.95361   0.00000  Uiso   1.00
H123   H     0.48354   0.21289   0.05182   0.00000  Uiso   1.00
H124   H     0.60513   0.11051   0.08339   0.00000  Uiso   1.00
H125   H     0.47453   0.39742   0.08694   0.00000  Uiso   1.00
H126   H     0.40372   0.15664   0.98083   0.00000  Uiso   1.00
H127   H     0.68826   0.95628   0.12518   0.00000  Uiso   1.00
H128   H     0.41285   0.56124   0.13267   0.00000  Uiso   1.00
H129   H     0.26355   0.05351   0.90890   0.00000  Uiso   1.00
O130   O     0.59056   0.74879   0.16926   0.00000  Uiso   1.00
O131   O     0.22923   0.54248   0.17907   0.00000  Uiso   1.00
O132   O     0.03334   0.87635   0.88549   0.00000  Uiso   1.00
N133   N     0.41081   0.76462   0.15503   0.00000  Uiso   1.00
N134   N     0.15333   0.33023   0.16203   0.00000  Uiso   1.00
N135   N     0.01373   0.85557   0.95283   0.00000  Uiso   1.00
N136   N     0.59431   0.90937   0.13097   0.00000  Uiso   1.00
N137   N     0.33683   0.47497   0.13797   0.00000  Uiso   1.00
N138   N     0.19723   0.00031   0.92877   0.00000  Uiso   1.00
C139   C     0.25608   0.05289   0.23704   0.00000  Uiso   1.00
C140   C     0.38714   0.07315   0.22645   0.00000  Uiso   1.00
C141   C     0.47671   0.17034   0.20324   0.00000  Uiso   1.00
C142   C     0.59091   0.17235   0.19701   0.00000  Uiso   1.00
C143   C     0.79080   0.21775   0.17806   0.00000  Uiso   1.00
C144   C     0.16018   0.91785   0.22408   0.00000  Uiso   1.00
C145   C     0.05893   0.88448   0.19888   0.00000  Uiso   1.00
C146   C     0.98207   0.75576   0.19065   0.00000  Uiso   1.00
C147   C     0.82955   0.56005   0.16804   0.00000  Uiso   1.00
C148   C     0.25072   0.05168   0.28128   0.00000  Uiso   1.00
C149   C     0.22555   0.13080   0.30417   0.00000  Uiso   1.00
C150   C     0.22488   0.11473   0.34410   0.00000  Uiso   1.00
C151   C     0.21293   0.12681   0.41029   0.00000  Uiso   1.00
C152   C     0.29959   0.88364   0.26724   0.00000  Uiso   1.00
C153   C     0.41077   0.98122   0.24286   0.00000  Uiso   1.00
C154   C     0.52486   0.98309   0.23666   0.00000  Uiso   1.00
C155   C     0.61459   0.08026   0.21344   0.00000  Uiso   1.00
C156   C     0.18382   0.82593   0.24049   0.00000  Uiso   1.00
C157   C     0.10708   0.69722   0.23230   0.00000  Uiso   1.00
C158   C     0.00574   0.66366   0.20709   0.00000  Uiso   1.00
C159   C     0.27436   0.95975   0.29768   0.00000  Uiso   1.00
C160   C     0.27371   0.94355   0.33759   0.00000  Uiso   1.00
C161   C     0.24856   0.02263   0.36053   0.00000  Uiso   1.00
H162   H     0.23767   0.12446   0.22426   0.00000  Uiso   1.00
H163   H     0.45838   0.24146   0.19055   0.00000  Uiso   1.00
H164   H     0.04066   0.95564   0.18619   0.00000  Uiso   1.00
H165   H     0.20727   0.20193   0.29146   0.00000  Uiso   1.00
H166   H     0.71349   0.33061   0.16039   0.00000  Uiso   1.00
H167   H     0.83267   0.72794   0.15121   0.00000  Uiso   1.00
H168   H     0.18399   0.24729   0.37320   0.00000  Uiso   1.00
H169   H     0.31799   0.81207   0.28002   0.00000  Uiso   1.00
H170   H     0.54313   0.91193   0.24936   0.00000  Uiso   1.00
H171   H     0.12540   0.62611   0.24500   0.00000  Uiso   1.00
H172   H     0.29201   0.87240   0.35027   0.00000  Uiso   1.00
H173   H     0.78227   0.06315   0.20812   0.00000  Uiso   1.00
H174   H     0.90144   0.46048   0.19894   0.00000  Uiso   1.00
H175   H     0.25277   0.97983   0.42093   0.00000  Uiso   1.00
O176   O     0.89451   0.26818   0.16307   0.00000  Uiso   1.00
O177   O     0.73890   0.47750   0.15103   0.00000  Uiso   1.00
O178   O     0.19983   0.15888   0.44227   0.00000  Uiso   1.00
N179   N     0.69879   0.25397   0.17584   0.00000  Uiso   1.00
N180   N     0.87529   0.69051   0.16725   0.00000  Uiso   1.00
N181   N     0.20371   0.17604   0.37479   0.00000  Uiso   1.00
N182   N     0.73580   0.11005   0.20152   0.00000  Uiso   1.00
N183   N     0.91230   0.54659   0.19293   0.00000  Uiso   1.00
N184   N     0.24072   0.03212   0.40047   0.00000  Uiso   1.00
C185   C     0.02932   0.20581   0.75874   0.00000  Uiso   1.00
C186   C     0.05075   0.33665   0.77021   0.00000  Uiso   1.00
C187   C     0.14938   0.42507   0.79325   0.00000  Uiso   1.00
C188   C     0.15229   0.53927   0.80040   0.00000  Uiso   1.00
C189   C     0.19959   0.73865   0.82056   0.00000  Uiso   1.00
C190   C     0.89486   0.10982   0.77214   0.00000  Uiso   1.00
C191   C     0.86243   0.00750   0.79681   0.00000  Uiso   1.00
C192   C     0.73411   0.93074   0.80558   0.00000  Uiso   1.00
C193   C     0.53938   0.77789   0.82872   0.00000  Uiso   1.00
C194   C     0.02569   0.20218   0.71449   0.00000  Uiso   1.00
C195   C     0.10324   0.17749   0.69068   0.00000  Uiso   1.00
C196   C     0.08505   0.17846   0.65091   0.00000  Uiso   1.00
C197   C     0.09346   0.16902   0.58453   0.00000  Uiso   1.00
C198   C     0.85910   0.25138   0.73045   0.00000  Uiso   1.00
C199   C     0.95828   0.36140   0.75484   0.00000  Uiso   1.00
C200   C     0.96105   0.47549   0.76195   0.00000  Uiso   1.00
C201   C     0.05967   0.56407   0.78500   0.00000  Uiso   1.00
C202   C     0.80240   0.13456   0.75678   0.00000  Uiso   1.00
C203   C     0.67410   0.05792   0.76551   0.00000  Uiso   1.00
C204   C     0.64148   0.95553   0.79019   0.00000  Uiso   1.00
C205   C     0.93324   0.22693   0.69912   0.00000  Uiso   1.00
C206   C     0.91492   0.22792   0.65938   0.00000  Uiso   1.00
C207   C     0.99243   0.20325   0.63551   0.00000  Uiso   1.00
H208   H     0.10129   0.18653   0.77071   0.00000  Uiso   1.00
H209   H     0.22091   0.40588   0.80514   0.00000  Uiso   1.00
H210   H     0.93400   0.98837   0.80870   0.00000  Uiso   1.00
H211   H     0.17478   0.15834   0.70258   0.00000  Uiso   1.00
H212   H     0.31272   0.65996   0.83656   0.00000  Uiso   1.00
H213   H     0.70775   0.77959   0.84404   0.00000  Uiso   1.00
H214   H     0.21548   0.13801   0.62027   0.00000  Uiso   1.00
H215   H     0.78711   0.27065   0.71848   0.00000  Uiso   1.00
H216   H     0.88949   0.49462   0.75006   0.00000  Uiso   1.00
H217   H     0.60258   0.07710   0.75361   0.00000  Uiso   1.00
H218   H     0.84336   0.24708   0.64749   0.00000  Uiso   1.00
H219   H     0.04372   0.73199   0.79185   0.00000  Uiso   1.00
H220   H     0.43876   0.85161   0.79933   0.00000  Uiso   1.00
H221   H     0.94649   0.21003   0.57556   0.00000  Uiso   1.00
O222   O     0.25121   0.84177   0.83593   0.00000  Uiso   1.00
O223   O     0.45752   0.68675   0.84574   0.00000  Uiso   1.00
O224   O     0.12365   0.15700   0.55216   0.00000  Uiso   1.00
N225   N     0.23538   0.64619   0.82170   0.00000  Uiso   1.00
N226   N     0.66977   0.82310   0.82870   0.00000  Uiso   1.00
N227   N     0.14443   0.15816   0.61949   0.00000  Uiso   1.00
N228   N     0.09063   0.68494   0.79764   0.00000  Uiso   1.00
N229   N     0.52503   0.86186   0.80464   0.00000  Uiso   1.00
N230   N     0.99969   0.19692   0.59544   0.00000  Uiso   1.00
C231   C     0.94711   0.20318   0.90370   0.00000  Uiso   1.00
C232   C     0.92685   0.31399   0.89312   0.00000  Uiso   1.00
C233   C     0.82966   0.30638   0.86991   0.00000  Uiso   1.00
C234   C     0.82765   0.41856   0.86367   0.00000  Uiso   1.00
C235   C     0.78225   0.57304   0.84473   0.00000  Uiso   1.00
C236   C     0.08215   0.24233   0.89075   0.00000  Uiso   1.00
C237   C     0.11552   0.17445   0.86554   0.00000  Uiso   1.00
C238   C     0.24424   0.22631   0.85732   0.00000  Uiso   1.00
C239   C     0.43995   0.26950   0.83471   0.00000  Uiso   1.00
C240   C     0.94832   0.19904   0.94794   0.00000  Uiso   1.00
C241   C     0.86920   0.09475   0.97083   0.00000  Uiso   1.00
C242   C     0.88527   0.11015   0.01076   0.00000  Uiso   1.00
C243   C     0.87319   0.08612   0.07696   0.00000  Uiso   1.00
C244   C     0.11636   0.41595   0.93391   0.00000  Uiso   1.00
C245   C     0.01878   0.42955   0.90953   0.00000  Uiso   1.00
C246   C     0.01691   0.54178   0.90333   0.00000  Uiso   1.00
C247   C     0.91974   0.53433   0.88011   0.00000  Uiso   1.00
C248   C     0.17407   0.35789   0.90715   0.00000  Uiso   1.00
C249   C     0.30278   0.40986   0.89896   0.00000  Uiso   1.00
C250   C     0.33634   0.34208   0.87375   0.00000  Uiso   1.00
C251   C     0.04025   0.31461   0.96435   0.00000  Uiso   1.00
C252   C     0.05645   0.33016   0.00425   0.00000  Uiso   1.00
C253   C     0.97737   0.22592   0.02720   0.00000  Uiso   1.00
H254   H     0.87554   0.11321   0.89093   0.00000  Uiso   1.00
H255   H     0.75854   0.21692   0.85721   0.00000  Uiso   1.00
H256   H     0.04436   0.08502   0.85286   0.00000  Uiso   1.00
H257   H     0.79807   0.00534   0.95813   0.00000  Uiso   1.00
H258   H     0.66939   0.38289   0.82706   0.00000  Uiso   1.00
H259   H     0.27206   0.10474   0.81788   0.00000  Uiso   1.00
H260   H     0.75271   0.93670   0.03986   0.00000  Uiso   1.00
H261   H     0.18793   0.50592   0.94668   0.00000  Uiso   1.00
H262   H     0.08807   0.63120   0.91603   0.00000  Uiso   1.00
H263   H     0.37389   0.49929   0.91167   0.00000  Uiso   1.00
H264   H     0.12760   0.41961   0.01694   0.00000  Uiso   1.00
H265   H     0.93685   0.71912   0.87479   0.00000  Uiso   1.00
H266   H     0.53952   0.44097   0.86561   0.00000  Uiso   1.00
H267   H     0.02017   0.27294   0.08760   0.00000  Uiso   1.00
O268   O     0.73182   0.62633   0.82974   0.00000  Uiso   1.00
O269   O     0.52250   0.26139   0.81770   0.00000  Uiso   1.00
O270   O     0.84112   0.04095   0.10894   0.00000  Uiso   1.00
N271   N     0.74603   0.44482   0.84250   0.00000  Uiso   1.00
N272   N     0.30949   0.18478   0.83392   0.00000  Uiso   1.00
N273   N     0.82396   0.02767   0.04145   0.00000  Uiso   1.00
N274   N     0.88995   0.62575   0.86819   0.00000  Uiso   1.00
N275   N     0.45341   0.36570   0.85960   0.00000  Uiso   1.00
N276   N     0.96788   0.20860   0.06714   0.00000  Uiso   1.00
