data_job_02718
_audit_creation_date              2018-12-19
_audit_creation_method            'Materials Studio'
_symmetry_space_group_name_H-M    'P1'
_symmetry_Int_Tables_number       1
_symmetry_cell_setting            triclinic
loop_
_symmetry_equiv_pos_as_xyz
  x,y,z
_cell_length_a                    13.6275
_cell_length_b                    23.1050
_cell_length_c                    17.1949
_cell_angle_alpha                 90.0000
_cell_angle_beta                  90.0000
_cell_angle_gamma                 90.0000
loop_
_atom_site_label
_atom_site_type_symbol
_atom_site_fract_x
_atom_site_fract_y
_atom_site_fract_z
_atom_site_U_iso_or_equiv
_atom_site_adp_type
_atom_site_occupancy
C1     C     0.87670   0.21066   0.44005   0.00000  Uiso   1.00
C2     C     0.85722   0.27180   0.46968   0.00000  Uiso   1.00
C3     C     0.92356   0.31736   0.46841   0.00000  Uiso   1.00
C4     C     0.89166   0.36993   0.49827   0.00000  Uiso   1.00
C5     C     0.87585   0.46383   0.53975   0.00000  Uiso   1.00
C6     C     0.85615   0.17037   0.50838   0.00000  Uiso   1.00
C7     C     0.92158   0.13064   0.53962   0.00000  Uiso   1.00
C8     C     0.88876   0.09781   0.60206   0.00000  Uiso   1.00
C9     C     0.87127   0.03421   0.70356   0.00000  Uiso   1.00
C10    C     0.79708   0.19827   0.38001   0.00000  Uiso   1.00
C11    C     0.81284   0.18198   0.30334   0.00000  Uiso   1.00
C12    C     0.73029   0.17263   0.25770   0.00000  Uiso   1.00
C13    C     0.62109   0.15234   0.15990   0.00000  Uiso   1.00
C14    C     0.70209   0.22299   0.49536   0.00000  Uiso   1.00
C15    C     0.76238   0.27849   0.49973   0.00000  Uiso   1.00
C16    C     0.73037   0.33100   0.52960   0.00000  Uiso   1.00
C17    C     0.79664   0.37664   0.52837   0.00000  Uiso   1.00
C18    C     0.76131   0.17706   0.53842   0.00000  Uiso   1.00
C19    C     0.72839   0.14428   0.60082   0.00000  Uiso   1.00
C20    C     0.79375   0.10452   0.63215   0.00000  Uiso   1.00
C21    C     0.70224   0.20496   0.41005   0.00000  Uiso   1.00
C22    C     0.61965   0.19562   0.36453   0.00000  Uiso   1.00
C23    C     0.63528   0.17933   0.28780   0.00000  Uiso   1.00
H24    H     0.95054   0.20545   0.41667   0.00000  Uiso   1.00
H25    H     0.99695   0.31217   0.44516   0.00000  Uiso   1.00
H26    H     0.99496   0.12547   0.51636   0.00000  Uiso   1.00
H27    H     0.88624   0.17680   0.28011   0.00000  Uiso   1.00
H28    H     0.00659   0.43343   0.49002   0.00000  Uiso   1.00
H29    H     0.00239   0.03975   0.64013   0.00000  Uiso   1.00
H30    H     0.77313   0.14800   0.14195   0.00000  Uiso   1.00
H31    H     0.62825   0.22820   0.51875   0.00000  Uiso   1.00
H32    H     0.65697   0.33617   0.55284   0.00000  Uiso   1.00
H33    H     0.65499   0.14947   0.62405   0.00000  Uiso   1.00
H34    H     0.54627   0.20081   0.38780   0.00000  Uiso   1.00
H35    H     0.73065   0.45291   0.57742   0.00000  Uiso   1.00
H36    H     0.72646   0.05923   0.72754   0.00000  Uiso   1.00
H37    H     0.49720   0.16748   0.22936   0.00000  Uiso   1.00
O38    O     0.89334   0.51378   0.55433   0.00000  Uiso   1.00
O39    O     0.88783   0.99729   0.75126   0.00000  Uiso   1.00
O40    O     0.58705   0.13931   0.09766   0.00000  Uiso   1.00
N41    N     0.93770   0.42320   0.50590   0.00000  Uiso   1.00
N42    N     0.93378   0.05514   0.64625   0.00000  Uiso   1.00
N43    N     0.71944   0.15633   0.18050   0.00000  Uiso   1.00
N44    N     0.78922   0.43368   0.55293   0.00000  Uiso   1.00
N45    N     0.78530   0.06563   0.69328   0.00000  Uiso   1.00
N46    N     0.57096   0.16681   0.22753   0.00000  Uiso   1.00
C47    C     0.62330   0.78934   0.44005   0.00000  Uiso   1.00
C48    C     0.64278   0.72820   0.46968   0.00000  Uiso   1.00
C49    C     0.57644   0.68264   0.46841   0.00000  Uiso   1.00
C50    C     0.60834   0.63007   0.49827   0.00000  Uiso   1.00
C51    C     0.62415   0.53617   0.53975   0.00000  Uiso   1.00
C52    C     0.64385   0.82963   0.50838   0.00000  Uiso   1.00
C53    C     0.57842   0.86936   0.53962   0.00000  Uiso   1.00
C54    C     0.61124   0.90219   0.60206   0.00000  Uiso   1.00
C55    C     0.62873   0.96579   0.70356   0.00000  Uiso   1.00
C56    C     0.70292   0.80173   0.38001   0.00000  Uiso   1.00
C57    C     0.68716   0.81802   0.30334   0.00000  Uiso   1.00
C58    C     0.76971   0.82737   0.25770   0.00000  Uiso   1.00
C59    C     0.87891   0.84766   0.15990   0.00000  Uiso   1.00
C60    C     0.79791   0.77701   0.49536   0.00000  Uiso   1.00
C61    C     0.73762   0.72151   0.49973   0.00000  Uiso   1.00
C62    C     0.76963   0.66900   0.52960   0.00000  Uiso   1.00
C63    C     0.70336   0.62336   0.52837   0.00000  Uiso   1.00
C64    C     0.73869   0.82294   0.53842   0.00000  Uiso   1.00
C65    C     0.77161   0.85572   0.60082   0.00000  Uiso   1.00
C66    C     0.70625   0.89548   0.63215   0.00000  Uiso   1.00
C67    C     0.79776   0.79504   0.41005   0.00000  Uiso   1.00
C68    C     0.88035   0.80438   0.36453   0.00000  Uiso   1.00
C69    C     0.86472   0.82067   0.28780   0.00000  Uiso   1.00
H70    H     0.54946   0.79455   0.41667   0.00000  Uiso   1.00
H71    H     0.50305   0.68783   0.44516   0.00000  Uiso   1.00
H72    H     0.50504   0.87453   0.51636   0.00000  Uiso   1.00
H73    H     0.61376   0.82320   0.28011   0.00000  Uiso   1.00
H74    H     0.49341   0.56657   0.49002   0.00000  Uiso   1.00
H75    H     0.49761   0.96025   0.64013   0.00000  Uiso   1.00
H76    H     0.72687   0.85200   0.14195   0.00000  Uiso   1.00
H77    H     0.87175   0.77180   0.51875   0.00000  Uiso   1.00
H78    H     0.84303   0.66383   0.55284   0.00000  Uiso   1.00
H79    H     0.84501   0.85053   0.62405   0.00000  Uiso   1.00
H80    H     0.95373   0.79919   0.38780   0.00000  Uiso   1.00
H81    H     0.76935   0.54709   0.57742   0.00000  Uiso   1.00
H82    H     0.77354   0.94077   0.72754   0.00000  Uiso   1.00
H83    H     0.00280   0.83252   0.22936   0.00000  Uiso   1.00
O84    O     0.60666   0.48622   0.55433   0.00000  Uiso   1.00
O85    O     0.61217   0.00271   0.75126   0.00000  Uiso   1.00
O86    O     0.91295   0.86069   0.09766   0.00000  Uiso   1.00
N87    N     0.56230   0.57680   0.50590   0.00000  Uiso   1.00
N88    N     0.56622   0.94486   0.64625   0.00000  Uiso   1.00
N89    N     0.78056   0.84367   0.18050   0.00000  Uiso   1.00
N90    N     0.71078   0.56632   0.55293   0.00000  Uiso   1.00
N91    N     0.71470   0.93437   0.69328   0.00000  Uiso   1.00
N92    N     0.92904   0.83319   0.22753   0.00000  Uiso   1.00
C93    C     0.62330   0.71066   0.05995   0.00000  Uiso   1.00
C94    C     0.64278   0.77180   0.03032   0.00000  Uiso   1.00
C95    C     0.57644   0.81736   0.03159   0.00000  Uiso   1.00
C96    C     0.60834   0.86993   0.00173   0.00000  Uiso   1.00
C97    C     0.62415   0.96383   0.96025   0.00000  Uiso   1.00
C98    C     0.64385   0.67037   0.99162   0.00000  Uiso   1.00
C99    C     0.57842   0.63064   0.96038   0.00000  Uiso   1.00
C100   C     0.61124   0.59781   0.89794   0.00000  Uiso   1.00
C101   C     0.62873   0.53421   0.79644   0.00000  Uiso   1.00
C102   C     0.70292   0.69827   0.11999   0.00000  Uiso   1.00
C103   C     0.68716   0.68198   0.19666   0.00000  Uiso   1.00
C104   C     0.76971   0.67263   0.24230   0.00000  Uiso   1.00
C105   C     0.87891   0.65234   0.34010   0.00000  Uiso   1.00
C106   C     0.79791   0.72299   0.00464   0.00000  Uiso   1.00
C107   C     0.73762   0.77849   0.00027   0.00000  Uiso   1.00
C108   C     0.76963   0.83100   0.97040   0.00000  Uiso   1.00
C109   C     0.70336   0.87664   0.97163   0.00000  Uiso   1.00
C110   C     0.73869   0.67706   0.96158   0.00000  Uiso   1.00
C111   C     0.77161   0.64428   0.89918   0.00000  Uiso   1.00
C112   C     0.70625   0.60452   0.86785   0.00000  Uiso   1.00
C113   C     0.79776   0.70496   0.08995   0.00000  Uiso   1.00
C114   C     0.88035   0.69562   0.13547   0.00000  Uiso   1.00
C115   C     0.86472   0.67933   0.21220   0.00000  Uiso   1.00
H116   H     0.54946   0.70545   0.08333   0.00000  Uiso   1.00
H117   H     0.50305   0.81217   0.05484   0.00000  Uiso   1.00
H118   H     0.50504   0.62547   0.98364   0.00000  Uiso   1.00
H119   H     0.61376   0.67680   0.21989   0.00000  Uiso   1.00
H120   H     0.49341   0.93343   0.00998   0.00000  Uiso   1.00
H121   H     0.49761   0.53975   0.85987   0.00000  Uiso   1.00
H122   H     0.72687   0.64800   0.35805   0.00000  Uiso   1.00
H123   H     0.87175   0.72820   0.98125   0.00000  Uiso   1.00
H124   H     0.84303   0.83617   0.94716   0.00000  Uiso   1.00
H125   H     0.84501   0.64947   0.87595   0.00000  Uiso   1.00
H126   H     0.95373   0.70081   0.11220   0.00000  Uiso   1.00
H127   H     0.76935   0.95291   0.92258   0.00000  Uiso   1.00
H128   H     0.77354   0.55923   0.77246   0.00000  Uiso   1.00
H129   H     0.00280   0.66748   0.27064   0.00000  Uiso   1.00
O130   O     0.60666   0.01378   0.94567   0.00000  Uiso   1.00
O131   O     0.61217   0.49729   0.74874   0.00000  Uiso   1.00
O132   O     0.91295   0.63931   0.40234   0.00000  Uiso   1.00
N133   N     0.56230   0.92320   0.99410   0.00000  Uiso   1.00
N134   N     0.56622   0.55514   0.85375   0.00000  Uiso   1.00
N135   N     0.78056   0.65633   0.31950   0.00000  Uiso   1.00
N136   N     0.71078   0.93368   0.94707   0.00000  Uiso   1.00
N137   N     0.71470   0.56563   0.80672   0.00000  Uiso   1.00
N138   N     0.92904   0.66681   0.27247   0.00000  Uiso   1.00
C139   C     0.87670   0.28934   0.05995   0.00000  Uiso   1.00
C140   C     0.85722   0.22820   0.03032   0.00000  Uiso   1.00
C141   C     0.92356   0.18264   0.03159   0.00000  Uiso   1.00
C142   C     0.89166   0.13007   0.00173   0.00000  Uiso   1.00
C143   C     0.87585   0.03617   0.96025   0.00000  Uiso   1.00
C144   C     0.85615   0.32963   0.99162   0.00000  Uiso   1.00
C145   C     0.92158   0.36936   0.96038   0.00000  Uiso   1.00
C146   C     0.88876   0.40219   0.89794   0.00000  Uiso   1.00
C147   C     0.87127   0.46579   0.79644   0.00000  Uiso   1.00
C148   C     0.79708   0.30173   0.11999   0.00000  Uiso   1.00
C149   C     0.81284   0.31802   0.19666   0.00000  Uiso   1.00
C150   C     0.73029   0.32737   0.24230   0.00000  Uiso   1.00
C151   C     0.62109   0.34766   0.34010   0.00000  Uiso   1.00
C152   C     0.70209   0.27701   0.00464   0.00000  Uiso   1.00
C153   C     0.76238   0.22151   0.00027   0.00000  Uiso   1.00
C154   C     0.73037   0.16900   0.97040   0.00000  Uiso   1.00
C155   C     0.79664   0.12336   0.97163   0.00000  Uiso   1.00
C156   C     0.76131   0.32294   0.96158   0.00000  Uiso   1.00
C157   C     0.72839   0.35572   0.89918   0.00000  Uiso   1.00
C158   C     0.79375   0.39548   0.86785   0.00000  Uiso   1.00
C159   C     0.70224   0.29504   0.08995   0.00000  Uiso   1.00
C160   C     0.61965   0.30438   0.13547   0.00000  Uiso   1.00
C161   C     0.63528   0.32067   0.21220   0.00000  Uiso   1.00
H162   H     0.95054   0.29455   0.08333   0.00000  Uiso   1.00
H163   H     0.99695   0.18783   0.05484   0.00000  Uiso   1.00
H164   H     0.99496   0.37453   0.98364   0.00000  Uiso   1.00
H165   H     0.88624   0.32320   0.21989   0.00000  Uiso   1.00
H166   H     0.00659   0.06657   0.00998   0.00000  Uiso   1.00
H167   H     0.00239   0.46025   0.85987   0.00000  Uiso   1.00
H168   H     0.77313   0.35200   0.35805   0.00000  Uiso   1.00
H169   H     0.62825   0.27180   0.98125   0.00000  Uiso   1.00
H170   H     0.65697   0.16383   0.94716   0.00000  Uiso   1.00
H171   H     0.65499   0.35053   0.87595   0.00000  Uiso   1.00
H172   H     0.54627   0.29919   0.11220   0.00000  Uiso   1.00
H173   H     0.73065   0.04709   0.92258   0.00000  Uiso   1.00
H174   H     0.72646   0.44077   0.77246   0.00000  Uiso   1.00
H175   H     0.49720   0.33252   0.27064   0.00000  Uiso   1.00
O176   O     0.89334   0.98622   0.94567   0.00000  Uiso   1.00
O177   O     0.88783   0.50271   0.74874   0.00000  Uiso   1.00
O178   O     0.58705   0.36069   0.40234   0.00000  Uiso   1.00
N179   N     0.93770   0.07680   0.99410   0.00000  Uiso   1.00
N180   N     0.93378   0.44486   0.85375   0.00000  Uiso   1.00
N181   N     0.71944   0.34367   0.31950   0.00000  Uiso   1.00
N182   N     0.78922   0.06632   0.94707   0.00000  Uiso   1.00
N183   N     0.78530   0.43437   0.80672   0.00000  Uiso   1.00
N184   N     0.57096   0.33319   0.27247   0.00000  Uiso   1.00
C185   C     0.12330   0.78934   0.55995   0.00000  Uiso   1.00
C186   C     0.14278   0.72820   0.53032   0.00000  Uiso   1.00
C187   C     0.07644   0.68264   0.53159   0.00000  Uiso   1.00
C188   C     0.10834   0.63007   0.50173   0.00000  Uiso   1.00
C189   C     0.12415   0.53617   0.46025   0.00000  Uiso   1.00
C190   C     0.14385   0.82963   0.49162   0.00000  Uiso   1.00
C191   C     0.07842   0.86936   0.46038   0.00000  Uiso   1.00
C192   C     0.11124   0.90219   0.39794   0.00000  Uiso   1.00
C193   C     0.12873   0.96579   0.29644   0.00000  Uiso   1.00
C194   C     0.20292   0.80173   0.61999   0.00000  Uiso   1.00
C195   C     0.18716   0.81802   0.69666   0.00000  Uiso   1.00
C196   C     0.26971   0.82737   0.74230   0.00000  Uiso   1.00
C197   C     0.37891   0.84766   0.84010   0.00000  Uiso   1.00
C198   C     0.29791   0.77701   0.50464   0.00000  Uiso   1.00
C199   C     0.23762   0.72151   0.50027   0.00000  Uiso   1.00
C200   C     0.26963   0.66900   0.47040   0.00000  Uiso   1.00
C201   C     0.20336   0.62336   0.47163   0.00000  Uiso   1.00
C202   C     0.23869   0.82294   0.46158   0.00000  Uiso   1.00
C203   C     0.27161   0.85572   0.39918   0.00000  Uiso   1.00
C204   C     0.20625   0.89548   0.36785   0.00000  Uiso   1.00
C205   C     0.29776   0.79504   0.58995   0.00000  Uiso   1.00
C206   C     0.38035   0.80438   0.63547   0.00000  Uiso   1.00
C207   C     0.36472   0.82067   0.71220   0.00000  Uiso   1.00
H208   H     0.04946   0.79455   0.58333   0.00000  Uiso   1.00
H209   H     0.00305   0.68783   0.55484   0.00000  Uiso   1.00
H210   H     0.00504   0.87453   0.48364   0.00000  Uiso   1.00
H211   H     0.11376   0.82320   0.71989   0.00000  Uiso   1.00
H212   H     0.99341   0.56657   0.50998   0.00000  Uiso   1.00
H213   H     0.99761   0.96025   0.35987   0.00000  Uiso   1.00
H214   H     0.22687   0.85200   0.85805   0.00000  Uiso   1.00
H215   H     0.37175   0.77180   0.48125   0.00000  Uiso   1.00
H216   H     0.34303   0.66383   0.44716   0.00000  Uiso   1.00
H217   H     0.34501   0.85053   0.37595   0.00000  Uiso   1.00
H218   H     0.45373   0.79919   0.61220   0.00000  Uiso   1.00
H219   H     0.26935   0.54709   0.42258   0.00000  Uiso   1.00
H220   H     0.27354   0.94077   0.27246   0.00000  Uiso   1.00
H221   H     0.50280   0.83252   0.77064   0.00000  Uiso   1.00
O222   O     0.10666   0.48622   0.44567   0.00000  Uiso   1.00
O223   O     0.11217   0.00271   0.24874   0.00000  Uiso   1.00
O224   O     0.41295   0.86069   0.90234   0.00000  Uiso   1.00
N225   N     0.06230   0.57680   0.49410   0.00000  Uiso   1.00
N226   N     0.06622   0.94486   0.35375   0.00000  Uiso   1.00
N227   N     0.28056   0.84367   0.81950   0.00000  Uiso   1.00
N228   N     0.21078   0.56632   0.44707   0.00000  Uiso   1.00
N229   N     0.21470   0.93437   0.30672   0.00000  Uiso   1.00
N230   N     0.42904   0.83319   0.77247   0.00000  Uiso   1.00
C231   C     0.37670   0.21066   0.55995   0.00000  Uiso   1.00
C232   C     0.35722   0.27180   0.53032   0.00000  Uiso   1.00
C233   C     0.42356   0.31736   0.53159   0.00000  Uiso   1.00
C234   C     0.39166   0.36993   0.50173   0.00000  Uiso   1.00
C235   C     0.37585   0.46383   0.46025   0.00000  Uiso   1.00
C236   C     0.35615   0.17037   0.49162   0.00000  Uiso   1.00
C237   C     0.42158   0.13064   0.46038   0.00000  Uiso   1.00
C238   C     0.38876   0.09781   0.39794   0.00000  Uiso   1.00
C239   C     0.37127   0.03421   0.29644   0.00000  Uiso   1.00
C240   C     0.29708   0.19827   0.61999   0.00000  Uiso   1.00
C241   C     0.31284   0.18198   0.69666   0.00000  Uiso   1.00
C242   C     0.23029   0.17263   0.74230   0.00000  Uiso   1.00
C243   C     0.12109   0.15234   0.84010   0.00000  Uiso   1.00
C244   C     0.20209   0.22299   0.50464   0.00000  Uiso   1.00
C245   C     0.26238   0.27849   0.50027   0.00000  Uiso   1.00
C246   C     0.23037   0.33100   0.47040   0.00000  Uiso   1.00
C247   C     0.29664   0.37664   0.47163   0.00000  Uiso   1.00
C248   C     0.26131   0.17706   0.46158   0.00000  Uiso   1.00
C249   C     0.22839   0.14428   0.39918   0.00000  Uiso   1.00
C250   C     0.29375   0.10452   0.36785   0.00000  Uiso   1.00
C251   C     0.20224   0.20496   0.58995   0.00000  Uiso   1.00
C252   C     0.11965   0.19562   0.63547   0.00000  Uiso   1.00
C253   C     0.13528   0.17933   0.71220   0.00000  Uiso   1.00
H254   H     0.45054   0.20545   0.58333   0.00000  Uiso   1.00
H255   H     0.49695   0.31217   0.55484   0.00000  Uiso   1.00
H256   H     0.49496   0.12547   0.48364   0.00000  Uiso   1.00
H257   H     0.38624   0.17680   0.71989   0.00000  Uiso   1.00
H258   H     0.50659   0.43343   0.50998   0.00000  Uiso   1.00
H259   H     0.50239   0.03975   0.35987   0.00000  Uiso   1.00
H260   H     0.27313   0.14800   0.85805   0.00000  Uiso   1.00
H261   H     0.12825   0.22820   0.48125   0.00000  Uiso   1.00
H262   H     0.15697   0.33617   0.44716   0.00000  Uiso   1.00
H263   H     0.15499   0.14947   0.37595   0.00000  Uiso   1.00
H264   H     0.04627   0.20081   0.61220   0.00000  Uiso   1.00
H265   H     0.23065   0.45291   0.42258   0.00000  Uiso   1.00
H266   H     0.22646   0.05923   0.27246   0.00000  Uiso   1.00
H267   H     0.99720   0.16748   0.77064   0.00000  Uiso   1.00
O268   O     0.39334   0.51378   0.44567   0.00000  Uiso   1.00
O269   O     0.38783   0.99729   0.24874   0.00000  Uiso   1.00
O270   O     0.08705   0.13931   0.90234   0.00000  Uiso   1.00
N271   N     0.43770   0.42320   0.49410   0.00000  Uiso   1.00
N272   N     0.43378   0.05514   0.35375   0.00000  Uiso   1.00
N273   N     0.21944   0.15633   0.81950   0.00000  Uiso   1.00
N274   N     0.28922   0.43368   0.44707   0.00000  Uiso   1.00
N275   N     0.28530   0.06563   0.30672   0.00000  Uiso   1.00
N276   N     0.07096   0.16681   0.77247   0.00000  Uiso   1.00
C277   C     0.37670   0.28934   0.94005   0.00000  Uiso   1.00
C278   C     0.35722   0.22820   0.96968   0.00000  Uiso   1.00
C279   C     0.42356   0.18264   0.96841   0.00000  Uiso   1.00
C280   C     0.39166   0.13007   0.99827   0.00000  Uiso   1.00
C281   C     0.37585   0.03617   0.03975   0.00000  Uiso   1.00
C282   C     0.35615   0.32963   0.00838   0.00000  Uiso   1.00
C283   C     0.42158   0.36936   0.03962   0.00000  Uiso   1.00
C284   C     0.38876   0.40219   0.10206   0.00000  Uiso   1.00
C285   C     0.37127   0.46579   0.20356   0.00000  Uiso   1.00
C286   C     0.29708   0.30173   0.88001   0.00000  Uiso   1.00
C287   C     0.31284   0.31802   0.80334   0.00000  Uiso   1.00
C288   C     0.23029   0.32737   0.75770   0.00000  Uiso   1.00
C289   C     0.12109   0.34766   0.65990   0.00000  Uiso   1.00
C290   C     0.20209   0.27701   0.99536   0.00000  Uiso   1.00
C291   C     0.26238   0.22151   0.99973   0.00000  Uiso   1.00
C292   C     0.23037   0.16900   0.02960   0.00000  Uiso   1.00
C293   C     0.29664   0.12336   0.02837   0.00000  Uiso   1.00
C294   C     0.26131   0.32294   0.03842   0.00000  Uiso   1.00
C295   C     0.22839   0.35572   0.10082   0.00000  Uiso   1.00
C296   C     0.29375   0.39548   0.13215   0.00000  Uiso   1.00
C297   C     0.20224   0.29504   0.91005   0.00000  Uiso   1.00
C298   C     0.11965   0.30438   0.86453   0.00000  Uiso   1.00
C299   C     0.13528   0.32067   0.78780   0.00000  Uiso   1.00
H300   H     0.45054   0.29455   0.91667   0.00000  Uiso   1.00
H301   H     0.49695   0.18783   0.94516   0.00000  Uiso   1.00
H302   H     0.49496   0.37453   0.01636   0.00000  Uiso   1.00
H303   H     0.38624   0.32320   0.78011   0.00000  Uiso   1.00
H304   H     0.50659   0.06657   0.99002   0.00000  Uiso   1.00
H305   H     0.50239   0.46025   0.14013   0.00000  Uiso   1.00
H306   H     0.27313   0.35200   0.64195   0.00000  Uiso   1.00
H307   H     0.12825   0.27180   0.01875   0.00000  Uiso   1.00
H308   H     0.15697   0.16383   0.05284   0.00000  Uiso   1.00
H309   H     0.15499   0.35053   0.12405   0.00000  Uiso   1.00
H310   H     0.04627   0.29919   0.88780   0.00000  Uiso   1.00
H311   H     0.23065   0.04709   0.07742   0.00000  Uiso   1.00
H312   H     0.22646   0.44077   0.22754   0.00000  Uiso   1.00
H313   H     0.99720   0.33252   0.72936   0.00000  Uiso   1.00
O314   O     0.39334   0.98622   0.05433   0.00000  Uiso   1.00
O315   O     0.38783   0.50271   0.25126   0.00000  Uiso   1.00
O316   O     0.08705   0.36069   0.59766   0.00000  Uiso   1.00
N317   N     0.43770   0.07680   0.00590   0.00000  Uiso   1.00
N318   N     0.43378   0.44486   0.14625   0.00000  Uiso   1.00
N319   N     0.21944   0.34367   0.68050   0.00000  Uiso   1.00
N320   N     0.28922   0.06632   0.05293   0.00000  Uiso   1.00
N321   N     0.28530   0.43437   0.19328   0.00000  Uiso   1.00
N322   N     0.07096   0.33319   0.72753   0.00000  Uiso   1.00
C323   C     0.12330   0.71066   0.94005   0.00000  Uiso   1.00
C324   C     0.14278   0.77180   0.96968   0.00000  Uiso   1.00
C325   C     0.07644   0.81736   0.96841   0.00000  Uiso   1.00
C326   C     0.10834   0.86993   0.99827   0.00000  Uiso   1.00
C327   C     0.12415   0.96383   0.03975   0.00000  Uiso   1.00
C328   C     0.14385   0.67037   0.00838   0.00000  Uiso   1.00
C329   C     0.07842   0.63064   0.03962   0.00000  Uiso   1.00
C330   C     0.11124   0.59781   0.10206   0.00000  Uiso   1.00
C331   C     0.12873   0.53421   0.20356   0.00000  Uiso   1.00
C332   C     0.20292   0.69827   0.88001   0.00000  Uiso   1.00
C333   C     0.18716   0.68198   0.80334   0.00000  Uiso   1.00
C334   C     0.26971   0.67263   0.75770   0.00000  Uiso   1.00
C335   C     0.37891   0.65234   0.65990   0.00000  Uiso   1.00
C336   C     0.29791   0.72299   0.99536   0.00000  Uiso   1.00
C337   C     0.23762   0.77849   0.99973   0.00000  Uiso   1.00
C338   C     0.26963   0.83100   0.02960   0.00000  Uiso   1.00
C339   C     0.20336   0.87664   0.02837   0.00000  Uiso   1.00
C340   C     0.23869   0.67706   0.03842   0.00000  Uiso   1.00
C341   C     0.27161   0.64428   0.10082   0.00000  Uiso   1.00
C342   C     0.20625   0.60452   0.13215   0.00000  Uiso   1.00
C343   C     0.29776   0.70496   0.91005   0.00000  Uiso   1.00
C344   C     0.38035   0.69562   0.86453   0.00000  Uiso   1.00
C345   C     0.36472   0.67933   0.78780   0.00000  Uiso   1.00
H346   H     0.04946   0.70545   0.91667   0.00000  Uiso   1.00
H347   H     0.00305   0.81217   0.94516   0.00000  Uiso   1.00
H348   H     0.00504   0.62547   0.01636   0.00000  Uiso   1.00
H349   H     0.11376   0.67680   0.78011   0.00000  Uiso   1.00
H350   H     0.99341   0.93343   0.99002   0.00000  Uiso   1.00
H351   H     0.99761   0.53975   0.14013   0.00000  Uiso   1.00
H352   H     0.22687   0.64800   0.64195   0.00000  Uiso   1.00
H353   H     0.37175   0.72820   0.01875   0.00000  Uiso   1.00
H354   H     0.34303   0.83617   0.05284   0.00000  Uiso   1.00
H355   H     0.34501   0.64947   0.12405   0.00000  Uiso   1.00
H356   H     0.45373   0.70081   0.88780   0.00000  Uiso   1.00
H357   H     0.26935   0.95291   0.07742   0.00000  Uiso   1.00
H358   H     0.27354   0.55923   0.22754   0.00000  Uiso   1.00
H359   H     0.50280   0.66748   0.72936   0.00000  Uiso   1.00
O360   O     0.10666   0.01378   0.05433   0.00000  Uiso   1.00
O361   O     0.11217   0.49729   0.25126   0.00000  Uiso   1.00
O362   O     0.41295   0.63931   0.59766   0.00000  Uiso   1.00
N363   N     0.06230   0.92320   0.00590   0.00000  Uiso   1.00
N364   N     0.06622   0.55514   0.14625   0.00000  Uiso   1.00
N365   N     0.28056   0.65633   0.68050   0.00000  Uiso   1.00
N366   N     0.21078   0.93368   0.05293   0.00000  Uiso   1.00
N367   N     0.21470   0.56563   0.19328   0.00000  Uiso   1.00
N368   N     0.42904   0.66681   0.72753   0.00000  Uiso   1.00
