data_job_05808
_audit_creation_date              2018-12-19
_audit_creation_method            'Materials Studio'
_symmetry_space_group_name_H-M    'P1'
_symmetry_Int_Tables_number       1
_symmetry_cell_setting            triclinic
loop_
_symmetry_equiv_pos_as_xyz
  x,y,z
_cell_length_a                    12.5155
_cell_length_b                    16.0253
_cell_length_c                    16.3386
_cell_angle_alpha                 90.0000
_cell_angle_beta                  90.0000
_cell_angle_gamma                 90.0000
loop_
_atom_site_label
_atom_site_type_symbol
_atom_site_fract_x
_atom_site_fract_y
_atom_site_fract_z
_atom_site_U_iso_or_equiv
_atom_site_adp_type
_atom_site_occupancy
C1     C     0.38464   0.39326   0.90458   0.00000  Uiso   1.00
C2     C     0.46823   0.32669   0.88592   0.00000  Uiso   1.00
C3     C     0.56514   0.34001   0.84677   0.00000  Uiso   1.00
C4     C     0.63051   0.27097   0.83546   0.00000  Uiso   1.00
C5     C     0.76492   0.17968   0.80236   0.00000  Uiso   1.00
C6     C     0.28124   0.36317   0.86500   0.00000  Uiso   1.00
C7     C     0.22093   0.40717   0.80827   0.00000  Uiso   1.00
C8     C     0.12888   0.36884   0.77935   0.00000  Uiso   1.00
C9     C     0.97295   0.33421   0.71383   0.00000  Uiso   1.00
C10    C     0.36591   0.38966   0.99673   0.00000  Uiso   1.00
C11    C     0.37676   0.45595   0.05076   0.00000  Uiso   1.00
C12    C     0.35597   0.43992   0.13274   0.00000  Uiso   1.00
C13    C     0.33150   0.44643   0.27174   0.00000  Uiso   1.00
C14    C     0.32840   0.24695   0.95409   0.00000  Uiso   1.00
C15    C     0.43767   0.24722   0.91282   0.00000  Uiso   1.00
C16    C     0.50291   0.17814   0.90156   0.00000  Uiso   1.00
C17    C     0.59991   0.19136   0.86240   0.00000  Uiso   1.00
C18    C     0.25069   0.28370   0.89190   0.00000  Uiso   1.00
C19    C     0.15870   0.24530   0.86306   0.00000  Uiso   1.00
C20    C     0.09827   0.28923   0.80630   0.00000  Uiso   1.00
C21    C     0.33536   0.31019   0.02363   0.00000  Uiso   1.00
C22    C     0.31454   0.29407   0.10554   0.00000  Uiso   1.00
C23    C     0.32536   0.36031   0.15968   0.00000  Uiso   1.00
H24    H     0.40842   0.45513   0.88363   0.00000  Uiso   1.00
H25    H     0.58875   0.40152   0.82596   0.00000  Uiso   1.00
H26    H     0.24459   0.46867   0.78748   0.00000  Uiso   1.00
H27    H     0.40040   0.51743   0.02992   0.00000  Uiso   1.00
H28    H     0.77519   0.30704   0.77386   0.00000  Uiso   1.00
H29    H     0.04948   0.44864   0.69273   0.00000  Uiso   1.00
H30    H     0.37805   0.55146   0.20397   0.00000  Uiso   1.00
H31    H     0.30461   0.18508   0.97503   0.00000  Uiso   1.00
H32    H     0.47925   0.11665   0.92238   0.00000  Uiso   1.00
H33    H     0.13508   0.18380   0.88389   0.00000  Uiso   1.00
H34    H     0.29090   0.23256   0.12633   0.00000  Uiso   1.00
H35    H     0.68631   0.07582   0.85211   0.00000  Uiso   1.00
H36    H     0.96060   0.21743   0.77098   0.00000  Uiso   1.00
H37    H     0.28917   0.32025   0.28222   0.00000  Uiso   1.00
O38    O     0.84749   0.15128   0.77667   0.00000  Uiso   1.00
O39    O     0.89538   0.33707   0.67025   0.00000  Uiso   1.00
O40    O     0.32646   0.47197   0.34098   0.00000  Uiso   1.00
N41    N     0.73032   0.26201   0.79951   0.00000  Uiso   1.00
N42    N     0.05183   0.39440   0.72365   0.00000  Uiso   1.00
N43    N     0.35898   0.49054   0.20162   0.00000  Uiso   1.00
N44    N     0.68249   0.13760   0.84162   0.00000  Uiso   1.00
N45    N     0.00401   0.26998   0.76576   0.00000  Uiso   1.00
N46    N     0.31116   0.36612   0.24372   0.00000  Uiso   1.00
C47    C     0.61536   0.60674   0.90458   0.00000  Uiso   1.00
C48    C     0.53177   0.67331   0.88592   0.00000  Uiso   1.00
C49    C     0.43486   0.65999   0.84677   0.00000  Uiso   1.00
C50    C     0.36949   0.72903   0.83546   0.00000  Uiso   1.00
C51    C     0.23508   0.82032   0.80236   0.00000  Uiso   1.00
C52    C     0.71876   0.63683   0.86500   0.00000  Uiso   1.00
C53    C     0.77907   0.59283   0.80827   0.00000  Uiso   1.00
C54    C     0.87112   0.63116   0.77935   0.00000  Uiso   1.00
C55    C     0.02705   0.66579   0.71383   0.00000  Uiso   1.00
C56    C     0.63409   0.61034   0.99673   0.00000  Uiso   1.00
C57    C     0.62324   0.54405   0.05076   0.00000  Uiso   1.00
C58    C     0.64403   0.56008   0.13274   0.00000  Uiso   1.00
C59    C     0.66850   0.55357   0.27174   0.00000  Uiso   1.00
C60    C     0.67160   0.75305   0.95409   0.00000  Uiso   1.00
C61    C     0.56233   0.75278   0.91282   0.00000  Uiso   1.00
C62    C     0.49709   0.82186   0.90156   0.00000  Uiso   1.00
C63    C     0.40009   0.80864   0.86240   0.00000  Uiso   1.00
C64    C     0.74931   0.71630   0.89190   0.00000  Uiso   1.00
C65    C     0.84130   0.75470   0.86306   0.00000  Uiso   1.00
C66    C     0.90173   0.71077   0.80630   0.00000  Uiso   1.00
C67    C     0.66464   0.68981   0.02363   0.00000  Uiso   1.00
C68    C     0.68546   0.70593   0.10554   0.00000  Uiso   1.00
C69    C     0.67464   0.63969   0.15968   0.00000  Uiso   1.00
H70    H     0.59158   0.54487   0.88363   0.00000  Uiso   1.00
H71    H     0.41125   0.59848   0.82596   0.00000  Uiso   1.00
H72    H     0.75541   0.53133   0.78748   0.00000  Uiso   1.00
H73    H     0.59960   0.48257   0.02992   0.00000  Uiso   1.00
H74    H     0.22481   0.69296   0.77386   0.00000  Uiso   1.00
H75    H     0.95052   0.55136   0.69273   0.00000  Uiso   1.00
H76    H     0.62195   0.44854   0.20397   0.00000  Uiso   1.00
H77    H     0.69539   0.81492   0.97503   0.00000  Uiso   1.00
H78    H     0.52075   0.88335   0.92238   0.00000  Uiso   1.00
H79    H     0.86492   0.81620   0.88389   0.00000  Uiso   1.00
H80    H     0.70910   0.76744   0.12633   0.00000  Uiso   1.00
H81    H     0.31369   0.92418   0.85211   0.00000  Uiso   1.00
H82    H     0.03940   0.78257   0.77098   0.00000  Uiso   1.00
H83    H     0.71083   0.67975   0.28222   0.00000  Uiso   1.00
O84    O     0.15251   0.84872   0.77667   0.00000  Uiso   1.00
O85    O     0.10462   0.66293   0.67025   0.00000  Uiso   1.00
O86    O     0.67354   0.52803   0.34098   0.00000  Uiso   1.00
N87    N     0.26968   0.73799   0.79951   0.00000  Uiso   1.00
N88    N     0.94817   0.60560   0.72365   0.00000  Uiso   1.00
N89    N     0.64102   0.50946   0.20162   0.00000  Uiso   1.00
N90    N     0.31751   0.86240   0.84162   0.00000  Uiso   1.00
N91    N     0.99599   0.73002   0.76576   0.00000  Uiso   1.00
N92    N     0.68884   0.63388   0.24372   0.00000  Uiso   1.00
C93    C     0.38464   0.10674   0.40458   0.00000  Uiso   1.00
C94    C     0.46823   0.17331   0.38592   0.00000  Uiso   1.00
C95    C     0.56514   0.15999   0.34677   0.00000  Uiso   1.00
C96    C     0.63051   0.22903   0.33546   0.00000  Uiso   1.00
C97    C     0.76492   0.32032   0.30236   0.00000  Uiso   1.00
C98    C     0.28124   0.13683   0.36500   0.00000  Uiso   1.00
C99    C     0.22093   0.09283   0.30827   0.00000  Uiso   1.00
C100   C     0.12888   0.13116   0.27935   0.00000  Uiso   1.00
C101   C     0.97295   0.16579   0.21383   0.00000  Uiso   1.00
C102   C     0.36591   0.11034   0.49673   0.00000  Uiso   1.00
C103   C     0.37676   0.04405   0.55076   0.00000  Uiso   1.00
C104   C     0.35597   0.06008   0.63274   0.00000  Uiso   1.00
C105   C     0.33150   0.05357   0.77174   0.00000  Uiso   1.00
C106   C     0.32840   0.25305   0.45409   0.00000  Uiso   1.00
C107   C     0.43767   0.25278   0.41282   0.00000  Uiso   1.00
C108   C     0.50291   0.32186   0.40156   0.00000  Uiso   1.00
C109   C     0.59991   0.30864   0.36240   0.00000  Uiso   1.00
C110   C     0.25069   0.21630   0.39190   0.00000  Uiso   1.00
C111   C     0.15870   0.25470   0.36306   0.00000  Uiso   1.00
C112   C     0.09827   0.21077   0.30630   0.00000  Uiso   1.00
C113   C     0.33536   0.18981   0.52363   0.00000  Uiso   1.00
C114   C     0.31454   0.20593   0.60554   0.00000  Uiso   1.00
C115   C     0.32536   0.13969   0.65968   0.00000  Uiso   1.00
H116   H     0.40842   0.04487   0.38363   0.00000  Uiso   1.00
H117   H     0.58875   0.09848   0.32596   0.00000  Uiso   1.00
H118   H     0.24459   0.03133   0.28748   0.00000  Uiso   1.00
H119   H     0.40040   0.98257   0.52992   0.00000  Uiso   1.00
H120   H     0.77519   0.19296   0.27386   0.00000  Uiso   1.00
H121   H     0.04948   0.05136   0.19273   0.00000  Uiso   1.00
H122   H     0.37805   0.94854   0.70397   0.00000  Uiso   1.00
H123   H     0.30461   0.31492   0.47503   0.00000  Uiso   1.00
H124   H     0.47925   0.38335   0.42238   0.00000  Uiso   1.00
H125   H     0.13508   0.31620   0.38389   0.00000  Uiso   1.00
H126   H     0.29090   0.26744   0.62633   0.00000  Uiso   1.00
H127   H     0.68631   0.42418   0.35211   0.00000  Uiso   1.00
H128   H     0.96060   0.28257   0.27098   0.00000  Uiso   1.00
H129   H     0.28917   0.17975   0.78222   0.00000  Uiso   1.00
O130   O     0.84749   0.34872   0.27667   0.00000  Uiso   1.00
O131   O     0.89538   0.16293   0.17025   0.00000  Uiso   1.00
O132   O     0.32646   0.02803   0.84098   0.00000  Uiso   1.00
N133   N     0.73032   0.23799   0.29951   0.00000  Uiso   1.00
N134   N     0.05183   0.10560   0.22365   0.00000  Uiso   1.00
N135   N     0.35898   0.00946   0.70162   0.00000  Uiso   1.00
N136   N     0.68249   0.36240   0.34162   0.00000  Uiso   1.00
N137   N     0.00401   0.23002   0.26576   0.00000  Uiso   1.00
N138   N     0.31116   0.13388   0.74372   0.00000  Uiso   1.00
C139   C     0.61536   0.89326   0.40458   0.00000  Uiso   1.00
C140   C     0.53177   0.82669   0.38592   0.00000  Uiso   1.00
C141   C     0.43486   0.84001   0.34677   0.00000  Uiso   1.00
C142   C     0.36949   0.77097   0.33546   0.00000  Uiso   1.00
C143   C     0.23508   0.67968   0.30236   0.00000  Uiso   1.00
C144   C     0.71876   0.86317   0.36500   0.00000  Uiso   1.00
C145   C     0.77907   0.90717   0.30827   0.00000  Uiso   1.00
C146   C     0.87112   0.86884   0.27935   0.00000  Uiso   1.00
C147   C     0.02705   0.83421   0.21383   0.00000  Uiso   1.00
C148   C     0.63409   0.88966   0.49673   0.00000  Uiso   1.00
C149   C     0.62324   0.95595   0.55076   0.00000  Uiso   1.00
C150   C     0.64403   0.93992   0.63274   0.00000  Uiso   1.00
C151   C     0.66850   0.94643   0.77174   0.00000  Uiso   1.00
C152   C     0.67160   0.74695   0.45409   0.00000  Uiso   1.00
C153   C     0.56233   0.74722   0.41282   0.00000  Uiso   1.00
C154   C     0.49709   0.67814   0.40156   0.00000  Uiso   1.00
C155   C     0.40009   0.69136   0.36240   0.00000  Uiso   1.00
C156   C     0.74931   0.78370   0.39190   0.00000  Uiso   1.00
C157   C     0.84130   0.74530   0.36306   0.00000  Uiso   1.00
C158   C     0.90173   0.78923   0.30630   0.00000  Uiso   1.00
C159   C     0.66464   0.81019   0.52363   0.00000  Uiso   1.00
C160   C     0.68546   0.79407   0.60554   0.00000  Uiso   1.00
C161   C     0.67464   0.86031   0.65968   0.00000  Uiso   1.00
H162   H     0.59158   0.95513   0.38363   0.00000  Uiso   1.00
H163   H     0.41125   0.90152   0.32596   0.00000  Uiso   1.00
H164   H     0.75541   0.96867   0.28748   0.00000  Uiso   1.00
H165   H     0.59960   0.01743   0.52992   0.00000  Uiso   1.00
H166   H     0.22481   0.80704   0.27386   0.00000  Uiso   1.00
H167   H     0.95052   0.94864   0.19273   0.00000  Uiso   1.00
H168   H     0.62195   0.05146   0.70397   0.00000  Uiso   1.00
H169   H     0.69539   0.68508   0.47503   0.00000  Uiso   1.00
H170   H     0.52075   0.61665   0.42238   0.00000  Uiso   1.00
H171   H     0.86492   0.68380   0.38389   0.00000  Uiso   1.00
H172   H     0.70910   0.73256   0.62633   0.00000  Uiso   1.00
H173   H     0.31369   0.57582   0.35211   0.00000  Uiso   1.00
H174   H     0.03940   0.71743   0.27098   0.00000  Uiso   1.00
H175   H     0.71083   0.82025   0.78222   0.00000  Uiso   1.00
O176   O     0.15251   0.65128   0.27667   0.00000  Uiso   1.00
O177   O     0.10462   0.83707   0.17025   0.00000  Uiso   1.00
O178   O     0.67354   0.97197   0.84098   0.00000  Uiso   1.00
N179   N     0.26968   0.76201   0.29951   0.00000  Uiso   1.00
N180   N     0.94817   0.89440   0.22365   0.00000  Uiso   1.00
N181   N     0.64102   0.99054   0.70162   0.00000  Uiso   1.00
N182   N     0.31751   0.63760   0.34162   0.00000  Uiso   1.00
N183   N     0.99599   0.76998   0.26576   0.00000  Uiso   1.00
N184   N     0.68884   0.86612   0.74372   0.00000  Uiso   1.00
