data_job_03362
_audit_creation_date              2018-12-19
_audit_creation_method            'Materials Studio'
_symmetry_space_group_name_H-M    'P1'
_symmetry_Int_Tables_number       1
_symmetry_cell_setting            triclinic
loop_
_symmetry_equiv_pos_as_xyz
  x,y,z
_cell_length_a                    13.4756
_cell_length_b                    21.2130
_cell_length_c                    24.3330
_cell_angle_alpha                 90.0000
_cell_angle_beta                  90.0000
_cell_angle_gamma                 90.0000
loop_
_atom_site_label
_atom_site_type_symbol
_atom_site_fract_x
_atom_site_fract_y
_atom_site_fract_z
_atom_site_U_iso_or_equiv
_atom_site_adp_type
_atom_site_occupancy
C1     C     0.24515   0.19128   0.48572   0.00000  Uiso   1.00
C2     C     0.29559   0.25547   0.48970   0.00000  Uiso   1.00
C3     C     0.25668   0.30852   0.51520   0.00000  Uiso   1.00
C4     C     0.31438   0.36273   0.51439   0.00000  Uiso   1.00
C5     C     0.37849   0.46225   0.52441   0.00000  Uiso   1.00
C6     C     0.24002   0.17566   0.42461   0.00000  Uiso   1.00
C7     C     0.15440   0.16159   0.39539   0.00000  Uiso   1.00
C8     C     0.16532   0.14862   0.33979   0.00000  Uiso   1.00
C9     C     0.14318   0.12418   0.24877   0.00000  Uiso   1.00
C10    C     0.31746   0.14406   0.51079   0.00000  Uiso   1.00
C11    C     0.29695   0.10341   0.55401   0.00000  Uiso   1.00
C12    C     0.37308   0.06381   0.57095   0.00000  Uiso   1.00
C13    C     0.47118   0.99031   0.61373   0.00000  Uiso   1.00
C14    C     0.41680   0.19324   0.43895   0.00000  Uiso   1.00
C15    C     0.38882   0.25653   0.46430   0.00000  Uiso   1.00
C16    C     0.44660   0.31068   0.46345   0.00000  Uiso   1.00
C17    C     0.40778   0.36380   0.48894   0.00000  Uiso   1.00
C18    C     0.33325   0.17672   0.39921   0.00000  Uiso   1.00
C19    C     0.34431   0.16376   0.34364   0.00000  Uiso   1.00
C20    C     0.25873   0.14968   0.31434   0.00000  Uiso   1.00
C21    C     0.41070   0.14512   0.48538   0.00000  Uiso   1.00
C22    C     0.48687   0.10558   0.50226   0.00000  Uiso   1.00
C23    C     0.46648   0.06487   0.54550   0.00000  Uiso   1.00
H24    H     0.17256   0.19045   0.50550   0.00000  Uiso   1.00
H25    H     0.18452   0.30768   0.53485   0.00000  Uiso   1.00
H26    H     0.08226   0.16077   0.41506   0.00000  Uiso   1.00
H27    H     0.22479   0.10260   0.57365   0.00000  Uiso   1.00
H28    H     0.23888   0.43812   0.55617   0.00000  Uiso   1.00
H29    H     0.02326   0.12833   0.30360   0.00000  Uiso   1.00
H30    H     0.32382   0.00566   0.63802   0.00000  Uiso   1.00
H31    H     0.48939   0.19407   0.41917   0.00000  Uiso   1.00
H32    H     0.51874   0.31149   0.44379   0.00000  Uiso   1.00
H33    H     0.41647   0.16458   0.32400   0.00000  Uiso   1.00
H34    H     0.55901   0.10641   0.48259   0.00000  Uiso   1.00
H35    H     0.51015   0.44121   0.48226   0.00000  Uiso   1.00
H36    H     0.29452   0.13142   0.22968   0.00000  Uiso   1.00
H37    H     0.59509   0.00876   0.56411   0.00000  Uiso   1.00
O38    O     0.38809   0.51685   0.53695   0.00000  Uiso   1.00
O39    O     0.10520   0.11041   0.20559   0.00000  Uiso   1.00
O40    O     0.49954   0.94948   0.64434   0.00000  Uiso   1.00
N41    N     0.29871   0.42273   0.53541   0.00000  Uiso   1.00
N42    N     0.09711   0.13311   0.29926   0.00000  Uiso   1.00
N43    N     0.37810   0.01841   0.61191   0.00000  Uiso   1.00
N44    N     0.44467   0.42439   0.49564   0.00000  Uiso   1.00
N45    N     0.24307   0.13477   0.25949   0.00000  Uiso   1.00
N46    N     0.52407   0.02007   0.57214   0.00000  Uiso   1.00
C47    C     0.25485   0.80872   0.48572   0.00000  Uiso   1.00
C48    C     0.20441   0.74453   0.48970   0.00000  Uiso   1.00
C49    C     0.24332   0.69148   0.51520   0.00000  Uiso   1.00
C50    C     0.18562   0.63727   0.51439   0.00000  Uiso   1.00
C51    C     0.12151   0.53775   0.52441   0.00000  Uiso   1.00
C52    C     0.25998   0.82434   0.42461   0.00000  Uiso   1.00
C53    C     0.34560   0.83841   0.39539   0.00000  Uiso   1.00
C54    C     0.33468   0.85138   0.33979   0.00000  Uiso   1.00
C55    C     0.35682   0.87582   0.24877   0.00000  Uiso   1.00
C56    C     0.18254   0.85594   0.51079   0.00000  Uiso   1.00
C57    C     0.20305   0.89659   0.55401   0.00000  Uiso   1.00
C58    C     0.12692   0.93619   0.57095   0.00000  Uiso   1.00
C59    C     0.02882   0.00969   0.61373   0.00000  Uiso   1.00
C60    C     0.08320   0.80676   0.43895   0.00000  Uiso   1.00
C61    C     0.11118   0.74347   0.46430   0.00000  Uiso   1.00
C62    C     0.05340   0.68932   0.46345   0.00000  Uiso   1.00
C63    C     0.09222   0.63620   0.48894   0.00000  Uiso   1.00
C64    C     0.16675   0.82328   0.39921   0.00000  Uiso   1.00
C65    C     0.15569   0.83624   0.34364   0.00000  Uiso   1.00
C66    C     0.24127   0.85032   0.31434   0.00000  Uiso   1.00
C67    C     0.08930   0.85488   0.48538   0.00000  Uiso   1.00
C68    C     0.01313   0.89442   0.50226   0.00000  Uiso   1.00
C69    C     0.03352   0.93513   0.54550   0.00000  Uiso   1.00
H70    H     0.32744   0.80955   0.50550   0.00000  Uiso   1.00
H71    H     0.31548   0.69232   0.53485   0.00000  Uiso   1.00
H72    H     0.41774   0.83923   0.41506   0.00000  Uiso   1.00
H73    H     0.27521   0.89740   0.57365   0.00000  Uiso   1.00
H74    H     0.26112   0.56188   0.55617   0.00000  Uiso   1.00
H75    H     0.47674   0.87167   0.30360   0.00000  Uiso   1.00
H76    H     0.17618   0.99434   0.63802   0.00000  Uiso   1.00
H77    H     0.01061   0.80593   0.41917   0.00000  Uiso   1.00
H78    H     0.98126   0.68851   0.44379   0.00000  Uiso   1.00
H79    H     0.08353   0.83542   0.32400   0.00000  Uiso   1.00
H80    H     0.94099   0.89359   0.48259   0.00000  Uiso   1.00
H81    H     0.98985   0.55879   0.48226   0.00000  Uiso   1.00
H82    H     0.20548   0.86858   0.22968   0.00000  Uiso   1.00
H83    H     0.90491   0.99124   0.56411   0.00000  Uiso   1.00
O84    O     0.11191   0.48315   0.53695   0.00000  Uiso   1.00
O85    O     0.39480   0.88959   0.20559   0.00000  Uiso   1.00
O86    O     0.00046   0.05052   0.64434   0.00000  Uiso   1.00
N87    N     0.20129   0.57727   0.53541   0.00000  Uiso   1.00
N88    N     0.40289   0.86689   0.29926   0.00000  Uiso   1.00
N89    N     0.12190   0.98159   0.61191   0.00000  Uiso   1.00
N90    N     0.05533   0.57561   0.49564   0.00000  Uiso   1.00
N91    N     0.25693   0.86523   0.25949   0.00000  Uiso   1.00
N92    N     0.97593   0.97993   0.57214   0.00000  Uiso   1.00
C93    C     0.75485   0.19128   0.01428   0.00000  Uiso   1.00
C94    C     0.70441   0.25547   0.01030   0.00000  Uiso   1.00
C95    C     0.74332   0.30852   0.98480   0.00000  Uiso   1.00
C96    C     0.68562   0.36273   0.98561   0.00000  Uiso   1.00
C97    C     0.62151   0.46225   0.97559   0.00000  Uiso   1.00
C98    C     0.75998   0.17566   0.07539   0.00000  Uiso   1.00
C99    C     0.84560   0.16159   0.10461   0.00000  Uiso   1.00
C100   C     0.83468   0.14862   0.16021   0.00000  Uiso   1.00
C101   C     0.85682   0.12418   0.25123   0.00000  Uiso   1.00
C102   C     0.68254   0.14406   0.98921   0.00000  Uiso   1.00
C103   C     0.70305   0.10341   0.94599   0.00000  Uiso   1.00
C104   C     0.62692   0.06381   0.92905   0.00000  Uiso   1.00
C105   C     0.52882   0.99031   0.88627   0.00000  Uiso   1.00
C106   C     0.58320   0.19324   0.06105   0.00000  Uiso   1.00
C107   C     0.61118   0.25653   0.03570   0.00000  Uiso   1.00
C108   C     0.55340   0.31068   0.03655   0.00000  Uiso   1.00
C109   C     0.59222   0.36380   0.01106   0.00000  Uiso   1.00
C110   C     0.66675   0.17672   0.10079   0.00000  Uiso   1.00
C111   C     0.65569   0.16376   0.15636   0.00000  Uiso   1.00
C112   C     0.74127   0.14968   0.18566   0.00000  Uiso   1.00
C113   C     0.58930   0.14512   0.01462   0.00000  Uiso   1.00
C114   C     0.51313   0.10558   0.99774   0.00000  Uiso   1.00
C115   C     0.53352   0.06487   0.95450   0.00000  Uiso   1.00
H116   H     0.82744   0.19045   0.99450   0.00000  Uiso   1.00
H117   H     0.81548   0.30768   0.96515   0.00000  Uiso   1.00
H118   H     0.91774   0.16077   0.08494   0.00000  Uiso   1.00
H119   H     0.77521   0.10260   0.92635   0.00000  Uiso   1.00
H120   H     0.76112   0.43812   0.94383   0.00000  Uiso   1.00
H121   H     0.97674   0.12833   0.19640   0.00000  Uiso   1.00
H122   H     0.67618   0.00566   0.86198   0.00000  Uiso   1.00
H123   H     0.51061   0.19407   0.08083   0.00000  Uiso   1.00
H124   H     0.48126   0.31149   0.05621   0.00000  Uiso   1.00
H125   H     0.58353   0.16458   0.17600   0.00000  Uiso   1.00
H126   H     0.44099   0.10641   0.01741   0.00000  Uiso   1.00
H127   H     0.48985   0.44121   0.01774   0.00000  Uiso   1.00
H128   H     0.70548   0.13142   0.27032   0.00000  Uiso   1.00
H129   H     0.40491   0.00876   0.93589   0.00000  Uiso   1.00
O130   O     0.61191   0.51685   0.96305   0.00000  Uiso   1.00
O131   O     0.89480   0.11041   0.29441   0.00000  Uiso   1.00
O132   O     0.50046   0.94948   0.85566   0.00000  Uiso   1.00
N133   N     0.70129   0.42273   0.96459   0.00000  Uiso   1.00
N134   N     0.90289   0.13311   0.20074   0.00000  Uiso   1.00
N135   N     0.62190   0.01841   0.88809   0.00000  Uiso   1.00
N136   N     0.55533   0.42439   0.00436   0.00000  Uiso   1.00
N137   N     0.75693   0.13477   0.24051   0.00000  Uiso   1.00
N138   N     0.47593   0.02007   0.92786   0.00000  Uiso   1.00
C139   C     0.74515   0.80872   0.01428   0.00000  Uiso   1.00
C140   C     0.79559   0.74453   0.01030   0.00000  Uiso   1.00
C141   C     0.75668   0.69148   0.98480   0.00000  Uiso   1.00
C142   C     0.81438   0.63727   0.98561   0.00000  Uiso   1.00
C143   C     0.87849   0.53775   0.97559   0.00000  Uiso   1.00
C144   C     0.74002   0.82434   0.07539   0.00000  Uiso   1.00
C145   C     0.65440   0.83841   0.10461   0.00000  Uiso   1.00
C146   C     0.66532   0.85138   0.16021   0.00000  Uiso   1.00
C147   C     0.64318   0.87582   0.25123   0.00000  Uiso   1.00
C148   C     0.81746   0.85594   0.98921   0.00000  Uiso   1.00
C149   C     0.79695   0.89659   0.94599   0.00000  Uiso   1.00
C150   C     0.87308   0.93619   0.92905   0.00000  Uiso   1.00
C151   C     0.97118   0.00969   0.88627   0.00000  Uiso   1.00
C152   C     0.91680   0.80676   0.06105   0.00000  Uiso   1.00
C153   C     0.88882   0.74347   0.03570   0.00000  Uiso   1.00
C154   C     0.94660   0.68932   0.03655   0.00000  Uiso   1.00
C155   C     0.90778   0.63620   0.01106   0.00000  Uiso   1.00
C156   C     0.83325   0.82328   0.10079   0.00000  Uiso   1.00
C157   C     0.84431   0.83624   0.15636   0.00000  Uiso   1.00
C158   C     0.75873   0.85032   0.18566   0.00000  Uiso   1.00
C159   C     0.91070   0.85488   0.01462   0.00000  Uiso   1.00
C160   C     0.98687   0.89442   0.99774   0.00000  Uiso   1.00
C161   C     0.96648   0.93513   0.95450   0.00000  Uiso   1.00
H162   H     0.67256   0.80955   0.99450   0.00000  Uiso   1.00
H163   H     0.68452   0.69232   0.96515   0.00000  Uiso   1.00
H164   H     0.58226   0.83923   0.08494   0.00000  Uiso   1.00
H165   H     0.72479   0.89740   0.92635   0.00000  Uiso   1.00
H166   H     0.73888   0.56188   0.94383   0.00000  Uiso   1.00
H167   H     0.52326   0.87167   0.19640   0.00000  Uiso   1.00
H168   H     0.82382   0.99434   0.86198   0.00000  Uiso   1.00
H169   H     0.98939   0.80593   0.08083   0.00000  Uiso   1.00
H170   H     0.01874   0.68851   0.05621   0.00000  Uiso   1.00
H171   H     0.91647   0.83542   0.17600   0.00000  Uiso   1.00
H172   H     0.05901   0.89359   0.01741   0.00000  Uiso   1.00
H173   H     0.01015   0.55879   0.01774   0.00000  Uiso   1.00
H174   H     0.79452   0.86858   0.27032   0.00000  Uiso   1.00
H175   H     0.09509   0.99124   0.93589   0.00000  Uiso   1.00
O176   O     0.88809   0.48315   0.96305   0.00000  Uiso   1.00
O177   O     0.60520   0.88959   0.29441   0.00000  Uiso   1.00
O178   O     0.99954   0.05052   0.85566   0.00000  Uiso   1.00
N179   N     0.79871   0.57727   0.96459   0.00000  Uiso   1.00
N180   N     0.59711   0.86689   0.20074   0.00000  Uiso   1.00
N181   N     0.87810   0.98159   0.88809   0.00000  Uiso   1.00
N182   N     0.94467   0.57561   0.00436   0.00000  Uiso   1.00
N183   N     0.74307   0.86523   0.24051   0.00000  Uiso   1.00
N184   N     0.02407   0.97993   0.92786   0.00000  Uiso   1.00
C185   C     0.75485   0.80872   0.51428   0.00000  Uiso   1.00
C186   C     0.70441   0.74453   0.51030   0.00000  Uiso   1.00
C187   C     0.74332   0.69148   0.48480   0.00000  Uiso   1.00
C188   C     0.68562   0.63727   0.48561   0.00000  Uiso   1.00
C189   C     0.62151   0.53775   0.47559   0.00000  Uiso   1.00
C190   C     0.75998   0.82434   0.57539   0.00000  Uiso   1.00
C191   C     0.84560   0.83841   0.60461   0.00000  Uiso   1.00
C192   C     0.83468   0.85138   0.66021   0.00000  Uiso   1.00
C193   C     0.85682   0.87582   0.75123   0.00000  Uiso   1.00
C194   C     0.68254   0.85594   0.48921   0.00000  Uiso   1.00
C195   C     0.70305   0.89659   0.44599   0.00000  Uiso   1.00
C196   C     0.62692   0.93619   0.42905   0.00000  Uiso   1.00
C197   C     0.52882   0.00969   0.38627   0.00000  Uiso   1.00
C198   C     0.58320   0.80676   0.56105   0.00000  Uiso   1.00
C199   C     0.61118   0.74347   0.53570   0.00000  Uiso   1.00
C200   C     0.55340   0.68932   0.53655   0.00000  Uiso   1.00
C201   C     0.59222   0.63620   0.51106   0.00000  Uiso   1.00
C202   C     0.66675   0.82328   0.60079   0.00000  Uiso   1.00
C203   C     0.65569   0.83624   0.65636   0.00000  Uiso   1.00
C204   C     0.74127   0.85032   0.68566   0.00000  Uiso   1.00
C205   C     0.58930   0.85488   0.51462   0.00000  Uiso   1.00
C206   C     0.51313   0.89442   0.49774   0.00000  Uiso   1.00
C207   C     0.53352   0.93513   0.45450   0.00000  Uiso   1.00
H208   H     0.82744   0.80955   0.49450   0.00000  Uiso   1.00
H209   H     0.81548   0.69232   0.46515   0.00000  Uiso   1.00
H210   H     0.91774   0.83923   0.58494   0.00000  Uiso   1.00
H211   H     0.77521   0.89740   0.42635   0.00000  Uiso   1.00
H212   H     0.76112   0.56188   0.44383   0.00000  Uiso   1.00
H213   H     0.97674   0.87167   0.69640   0.00000  Uiso   1.00
H214   H     0.67618   0.99434   0.36198   0.00000  Uiso   1.00
H215   H     0.51061   0.80593   0.58083   0.00000  Uiso   1.00
H216   H     0.48126   0.68851   0.55621   0.00000  Uiso   1.00
H217   H     0.58353   0.83542   0.67600   0.00000  Uiso   1.00
H218   H     0.44099   0.89359   0.51741   0.00000  Uiso   1.00
H219   H     0.48985   0.55879   0.51774   0.00000  Uiso   1.00
H220   H     0.70548   0.86858   0.77032   0.00000  Uiso   1.00
H221   H     0.40491   0.99124   0.43589   0.00000  Uiso   1.00
O222   O     0.61191   0.48315   0.46305   0.00000  Uiso   1.00
O223   O     0.89480   0.88959   0.79441   0.00000  Uiso   1.00
O224   O     0.50046   0.05052   0.35566   0.00000  Uiso   1.00
N225   N     0.70129   0.57727   0.46459   0.00000  Uiso   1.00
N226   N     0.90289   0.86689   0.70074   0.00000  Uiso   1.00
N227   N     0.62190   0.98159   0.38809   0.00000  Uiso   1.00
N228   N     0.55533   0.57561   0.50436   0.00000  Uiso   1.00
N229   N     0.75693   0.86523   0.74051   0.00000  Uiso   1.00
N230   N     0.47593   0.97993   0.42786   0.00000  Uiso   1.00
C231   C     0.74515   0.19128   0.51428   0.00000  Uiso   1.00
C232   C     0.79559   0.25547   0.51030   0.00000  Uiso   1.00
C233   C     0.75668   0.30852   0.48480   0.00000  Uiso   1.00
C234   C     0.81438   0.36273   0.48561   0.00000  Uiso   1.00
C235   C     0.87849   0.46225   0.47559   0.00000  Uiso   1.00
C236   C     0.74002   0.17566   0.57539   0.00000  Uiso   1.00
C237   C     0.65440   0.16159   0.60461   0.00000  Uiso   1.00
C238   C     0.66532   0.14862   0.66021   0.00000  Uiso   1.00
C239   C     0.64318   0.12418   0.75123   0.00000  Uiso   1.00
C240   C     0.81746   0.14406   0.48921   0.00000  Uiso   1.00
C241   C     0.79695   0.10341   0.44599   0.00000  Uiso   1.00
C242   C     0.87308   0.06381   0.42905   0.00000  Uiso   1.00
C243   C     0.97118   0.99031   0.38627   0.00000  Uiso   1.00
C244   C     0.91680   0.19324   0.56105   0.00000  Uiso   1.00
C245   C     0.88882   0.25653   0.53570   0.00000  Uiso   1.00
C246   C     0.94660   0.31068   0.53655   0.00000  Uiso   1.00
C247   C     0.90778   0.36380   0.51106   0.00000  Uiso   1.00
C248   C     0.83325   0.17672   0.60079   0.00000  Uiso   1.00
C249   C     0.84431   0.16376   0.65636   0.00000  Uiso   1.00
C250   C     0.75873   0.14968   0.68566   0.00000  Uiso   1.00
C251   C     0.91070   0.14512   0.51462   0.00000  Uiso   1.00
C252   C     0.98687   0.10558   0.49774   0.00000  Uiso   1.00
C253   C     0.96648   0.06487   0.45450   0.00000  Uiso   1.00
H254   H     0.67256   0.19045   0.49450   0.00000  Uiso   1.00
H255   H     0.68452   0.30768   0.46515   0.00000  Uiso   1.00
H256   H     0.58226   0.16077   0.58494   0.00000  Uiso   1.00
H257   H     0.72479   0.10260   0.42635   0.00000  Uiso   1.00
H258   H     0.73888   0.43812   0.44383   0.00000  Uiso   1.00
H259   H     0.52326   0.12833   0.69640   0.00000  Uiso   1.00
H260   H     0.82382   0.00566   0.36198   0.00000  Uiso   1.00
H261   H     0.98939   0.19407   0.58083   0.00000  Uiso   1.00
H262   H     0.01874   0.31149   0.55621   0.00000  Uiso   1.00
H263   H     0.91647   0.16458   0.67600   0.00000  Uiso   1.00
H264   H     0.05901   0.10641   0.51741   0.00000  Uiso   1.00
H265   H     0.01015   0.44121   0.51774   0.00000  Uiso   1.00
H266   H     0.79452   0.13142   0.77032   0.00000  Uiso   1.00
H267   H     0.09509   0.00876   0.43589   0.00000  Uiso   1.00
O268   O     0.88809   0.51685   0.46305   0.00000  Uiso   1.00
O269   O     0.60520   0.11041   0.79441   0.00000  Uiso   1.00
O270   O     0.99954   0.94948   0.35566   0.00000  Uiso   1.00
N271   N     0.79871   0.42273   0.46459   0.00000  Uiso   1.00
N272   N     0.59711   0.13311   0.70074   0.00000  Uiso   1.00
N273   N     0.87810   0.01841   0.38809   0.00000  Uiso   1.00
N274   N     0.94467   0.42439   0.50436   0.00000  Uiso   1.00
N275   N     0.74307   0.13477   0.74051   0.00000  Uiso   1.00
N276   N     0.02407   0.02007   0.42786   0.00000  Uiso   1.00
C277   C     0.24515   0.80872   0.98572   0.00000  Uiso   1.00
C278   C     0.29559   0.74453   0.98970   0.00000  Uiso   1.00
C279   C     0.25668   0.69148   0.01520   0.00000  Uiso   1.00
C280   C     0.31438   0.63727   0.01439   0.00000  Uiso   1.00
C281   C     0.37849   0.53775   0.02441   0.00000  Uiso   1.00
C282   C     0.24002   0.82434   0.92461   0.00000  Uiso   1.00
C283   C     0.15440   0.83841   0.89539   0.00000  Uiso   1.00
C284   C     0.16532   0.85138   0.83979   0.00000  Uiso   1.00
C285   C     0.14318   0.87582   0.74877   0.00000  Uiso   1.00
C286   C     0.31746   0.85594   0.01079   0.00000  Uiso   1.00
C287   C     0.29695   0.89659   0.05401   0.00000  Uiso   1.00
C288   C     0.37308   0.93619   0.07095   0.00000  Uiso   1.00
C289   C     0.47118   0.00969   0.11373   0.00000  Uiso   1.00
C290   C     0.41680   0.80676   0.93895   0.00000  Uiso   1.00
C291   C     0.38882   0.74347   0.96430   0.00000  Uiso   1.00
C292   C     0.44660   0.68932   0.96345   0.00000  Uiso   1.00
C293   C     0.40778   0.63620   0.98894   0.00000  Uiso   1.00
C294   C     0.33325   0.82328   0.89921   0.00000  Uiso   1.00
C295   C     0.34431   0.83624   0.84364   0.00000  Uiso   1.00
C296   C     0.25873   0.85032   0.81434   0.00000  Uiso   1.00
C297   C     0.41070   0.85488   0.98538   0.00000  Uiso   1.00
C298   C     0.48687   0.89442   0.00226   0.00000  Uiso   1.00
C299   C     0.46648   0.93513   0.04550   0.00000  Uiso   1.00
H300   H     0.17256   0.80955   0.00550   0.00000  Uiso   1.00
H301   H     0.18452   0.69232   0.03485   0.00000  Uiso   1.00
H302   H     0.08226   0.83923   0.91506   0.00000  Uiso   1.00
H303   H     0.22479   0.89740   0.07365   0.00000  Uiso   1.00
H304   H     0.23888   0.56188   0.05617   0.00000  Uiso   1.00
H305   H     0.02326   0.87167   0.80360   0.00000  Uiso   1.00
H306   H     0.32382   0.99434   0.13802   0.00000  Uiso   1.00
H307   H     0.48939   0.80593   0.91917   0.00000  Uiso   1.00
H308   H     0.51874   0.68851   0.94379   0.00000  Uiso   1.00
H309   H     0.41647   0.83542   0.82400   0.00000  Uiso   1.00
H310   H     0.55901   0.89359   0.98259   0.00000  Uiso   1.00
H311   H     0.51015   0.55879   0.98226   0.00000  Uiso   1.00
H312   H     0.29452   0.86858   0.72968   0.00000  Uiso   1.00
H313   H     0.59509   0.99124   0.06411   0.00000  Uiso   1.00
O314   O     0.38809   0.48315   0.03695   0.00000  Uiso   1.00
O315   O     0.10520   0.88959   0.70559   0.00000  Uiso   1.00
O316   O     0.49954   0.05052   0.14434   0.00000  Uiso   1.00
N317   N     0.29871   0.57727   0.03541   0.00000  Uiso   1.00
N318   N     0.09711   0.86689   0.79926   0.00000  Uiso   1.00
N319   N     0.37810   0.98159   0.11191   0.00000  Uiso   1.00
N320   N     0.44467   0.57561   0.99564   0.00000  Uiso   1.00
N321   N     0.24307   0.86523   0.75949   0.00000  Uiso   1.00
N322   N     0.52407   0.97993   0.07214   0.00000  Uiso   1.00
C323   C     0.25485   0.19128   0.98572   0.00000  Uiso   1.00
C324   C     0.20441   0.25547   0.98970   0.00000  Uiso   1.00
C325   C     0.24332   0.30852   0.01520   0.00000  Uiso   1.00
C326   C     0.18562   0.36273   0.01439   0.00000  Uiso   1.00
C327   C     0.12151   0.46225   0.02441   0.00000  Uiso   1.00
C328   C     0.25998   0.17566   0.92461   0.00000  Uiso   1.00
C329   C     0.34560   0.16159   0.89539   0.00000  Uiso   1.00
C330   C     0.33468   0.14862   0.83979   0.00000  Uiso   1.00
C331   C     0.35682   0.12418   0.74877   0.00000  Uiso   1.00
C332   C     0.18254   0.14406   0.01079   0.00000  Uiso   1.00
C333   C     0.20305   0.10341   0.05401   0.00000  Uiso   1.00
C334   C     0.12692   0.06381   0.07095   0.00000  Uiso   1.00
C335   C     0.02882   0.99031   0.11373   0.00000  Uiso   1.00
C336   C     0.08320   0.19324   0.93895   0.00000  Uiso   1.00
C337   C     0.11118   0.25653   0.96430   0.00000  Uiso   1.00
C338   C     0.05340   0.31068   0.96345   0.00000  Uiso   1.00
C339   C     0.09222   0.36380   0.98894   0.00000  Uiso   1.00
C340   C     0.16675   0.17672   0.89921   0.00000  Uiso   1.00
C341   C     0.15569   0.16376   0.84364   0.00000  Uiso   1.00
C342   C     0.24127   0.14968   0.81434   0.00000  Uiso   1.00
C343   C     0.08930   0.14512   0.98538   0.00000  Uiso   1.00
C344   C     0.01313   0.10558   0.00226   0.00000  Uiso   1.00
C345   C     0.03352   0.06487   0.04550   0.00000  Uiso   1.00
H346   H     0.32744   0.19045   0.00550   0.00000  Uiso   1.00
H347   H     0.31548   0.30768   0.03485   0.00000  Uiso   1.00
H348   H     0.41774   0.16077   0.91506   0.00000  Uiso   1.00
H349   H     0.27521   0.10260   0.07365   0.00000  Uiso   1.00
H350   H     0.26112   0.43812   0.05617   0.00000  Uiso   1.00
H351   H     0.47674   0.12833   0.80360   0.00000  Uiso   1.00
H352   H     0.17618   0.00566   0.13802   0.00000  Uiso   1.00
H353   H     0.01061   0.19407   0.91917   0.00000  Uiso   1.00
H354   H     0.98126   0.31149   0.94379   0.00000  Uiso   1.00
H355   H     0.08353   0.16458   0.82400   0.00000  Uiso   1.00
H356   H     0.94099   0.10641   0.98259   0.00000  Uiso   1.00
H357   H     0.98985   0.44121   0.98226   0.00000  Uiso   1.00
H358   H     0.20548   0.13142   0.72968   0.00000  Uiso   1.00
H359   H     0.90491   0.00876   0.06411   0.00000  Uiso   1.00
O360   O     0.11191   0.51685   0.03695   0.00000  Uiso   1.00
O361   O     0.39480   0.11041   0.70559   0.00000  Uiso   1.00
O362   O     0.00046   0.94948   0.14434   0.00000  Uiso   1.00
N363   N     0.20129   0.42273   0.03541   0.00000  Uiso   1.00
N364   N     0.40289   0.13311   0.79926   0.00000  Uiso   1.00
N365   N     0.12190   0.01841   0.11191   0.00000  Uiso   1.00
N366   N     0.05533   0.42439   0.99564   0.00000  Uiso   1.00
N367   N     0.25693   0.13477   0.75949   0.00000  Uiso   1.00
N368   N     0.97593   0.02007   0.07214   0.00000  Uiso   1.00
