data_job_06343
_audit_creation_date              2018-12-19
_audit_creation_method            'Materials Studio'
_symmetry_space_group_name_H-M    'P1'
_symmetry_Int_Tables_number       1
_symmetry_cell_setting            triclinic
loop_
_symmetry_equiv_pos_as_xyz
  x,y,z
_cell_length_a                    16.3558
_cell_length_b                    16.2078
_cell_length_c                    15.9085
_cell_angle_alpha                 94.2794
_cell_angle_beta                  94.0129
_cell_angle_gamma                 93.2931
loop_
_atom_site_label
_atom_site_type_symbol
_atom_site_fract_x
_atom_site_fract_y
_atom_site_fract_z
_atom_site_U_iso_or_equiv
_atom_site_adp_type
_atom_site_occupancy
C1     C     0.79232   0.30459   0.34941   0.00000  Uiso   1.00
C2     C     0.78929   0.31001   0.25397   0.00000  Uiso   1.00
C3     C     0.72595   0.27749   0.19625   0.00000  Uiso   1.00
C4     C     0.73480   0.28899   0.11168   0.00000  Uiso   1.00
C5     C     0.71951   0.29091   0.96740   0.00000  Uiso   1.00
C6     C     0.87149   0.26372   0.37313   0.00000  Uiso   1.00
C7     C     0.87727   0.19230   0.41561   0.00000  Uiso   1.00
C8     C     0.95533   0.16485   0.43135   0.00000  Uiso   1.00
C9     C     0.06767   0.09494   0.47213   0.00000  Uiso   1.00
C10    C     0.80413   0.39364   0.38854   0.00000  Uiso   1.00
C11    C     0.75329   0.43145   0.44400   0.00000  Uiso   1.00
C12    C     0.77465   0.51338   0.47273   0.00000  Uiso   1.00
C13    C     0.78240   0.64519   0.53744   0.00000  Uiso   1.00
C14    C     0.92067   0.38284   0.30184   0.00000  Uiso   1.00
C15    C     0.85900   0.35251   0.22813   0.00000  Uiso   1.00
C16    C     0.86795   0.36407   0.14362   0.00000  Uiso   1.00
C17    C     0.80464   0.33157   0.08579   0.00000  Uiso   1.00
C18    C     0.94121   0.30622   0.34729   0.00000  Uiso   1.00
C19    C     0.01927   0.27887   0.36298   0.00000  Uiso   1.00
C20    C     0.02517   0.20742   0.40547   0.00000  Uiso   1.00
C21    C     0.87385   0.43615   0.36270   0.00000  Uiso   1.00
C22    C     0.89529   0.51803   0.39136   0.00000  Uiso   1.00
C23    C     0.84449   0.55595   0.44685   0.00000  Uiso   1.00
H24    H     0.73805   0.27150   0.36953   0.00000  Uiso   1.00
H25    H     0.67201   0.24460   0.21627   0.00000  Uiso   1.00
H26    H     0.82331   0.15943   0.43560   0.00000  Uiso   1.00
H27    H     0.69935   0.39855   0.46398   0.00000  Uiso   1.00
H28    H     0.62956   0.23350   0.03496   0.00000  Uiso   1.00
H29    H     0.94858   0.05392   0.49745   0.00000  Uiso   1.00
H30    H     0.68718   0.55815   0.55730   0.00000  Uiso   1.00
H31    H     0.97495   0.41592   0.28173   0.00000  Uiso   1.00
H32    H     0.92191   0.39696   0.12365   0.00000  Uiso   1.00
H33    H     0.07321   0.31178   0.34298   0.00000  Uiso   1.00
H34    H     0.94925   0.55090   0.37135   0.00000  Uiso   1.00
H35    H     0.83238   0.35715   0.95978   0.00000  Uiso   1.00
H36    H     0.15141   0.17758   0.42228   0.00000  Uiso   1.00
H37    H     0.89001   0.68180   0.48212   0.00000  Uiso   1.00
O38    O     0.69182   0.28022   0.89496   0.00000  Uiso   1.00
O39    O     0.11037   0.04463   0.50175   0.00000  Uiso   1.00
O40    O     0.76742   0.70616   0.58026   0.00000  Uiso   1.00
N41    N     0.68456   0.26522   0.03896   0.00000  Uiso   1.00
N42    N     0.98283   0.09732   0.47136   0.00000  Uiso   1.00
N43    N     0.73846   0.56872   0.52732   0.00000  Uiso   1.00
N44    N     0.79370   0.33176   0.99851   0.00000  Uiso   1.00
N45    N     0.09197   0.16385   0.43090   0.00000  Uiso   1.00
N46    N     0.84760   0.63526   0.48687   0.00000  Uiso   1.00
C47    C     0.34118   0.79143   0.30304   0.00000  Uiso   1.00
C48    C     0.24838   0.78886   0.30859   0.00000  Uiso   1.00
C49    C     0.19285   0.72494   0.27494   0.00000  Uiso   1.00
C50    C     0.11050   0.73435   0.28679   0.00000  Uiso   1.00
C51    C     0.97033   0.71960   0.28869   0.00000  Uiso   1.00
C52    C     0.36382   0.87091   0.26207   0.00000  Uiso   1.00
C53    C     0.40536   0.87598   0.18931   0.00000  Uiso   1.00
C54    C     0.42020   0.95447   0.16201   0.00000  Uiso   1.00
C55    C     0.45930   0.06712   0.09172   0.00000  Uiso   1.00
C56    C     0.37880   0.80389   0.39387   0.00000  Uiso   1.00
C57    C     0.43295   0.75261   0.43193   0.00000  Uiso   1.00
C58    C     0.46041   0.77469   0.51559   0.00000  Uiso   1.00
C59    C     0.52276   0.78326   0.64994   0.00000  Uiso   1.00
C60    C     0.29369   0.92181   0.38393   0.00000  Uiso   1.00
C61    C     0.22259   0.85968   0.35253   0.00000  Uiso   1.00
C62    C     0.14030   0.86919   0.36444   0.00000  Uiso   1.00
C63    C     0.08466   0.80529   0.33081   0.00000  Uiso   1.00
C64    C     0.33803   0.94173   0.30601   0.00000  Uiso   1.00
C65    C     0.35281   0.02023   0.27881   0.00000  Uiso   1.00
C66    C     0.39436   0.02542   0.20602   0.00000  Uiso   1.00
C67    C     0.35300   0.87470   0.43782   0.00000  Uiso   1.00
C68    C     0.38040   0.89686   0.52143   0.00000  Uiso   1.00
C69    C     0.43457   0.84563   0.55960   0.00000  Uiso   1.00
H70    H     0.36127   0.73630   0.26883   0.00000  Uiso   1.00
H71    H     0.21284   0.67015   0.24093   0.00000  Uiso   1.00
H72    H     0.42532   0.82117   0.15532   0.00000  Uiso   1.00
H73    H     0.45289   0.69782   0.39790   0.00000  Uiso   1.00
H74    H     0.03689   0.62804   0.22936   0.00000  Uiso   1.00
H75    H     0.48495   0.94649   0.04886   0.00000  Uiso   1.00
H76    H     0.54311   0.68638   0.56039   0.00000  Uiso   1.00
H77    H     0.27361   0.97695   0.41814   0.00000  Uiso   1.00
H78    H     0.12036   0.92400   0.39844   0.00000  Uiso   1.00
H79    H     0.33285   0.07502   0.31283   0.00000  Uiso   1.00
H80    H     0.36042   0.95167   0.55541   0.00000  Uiso   1.00
H81    H     0.96184   0.83408   0.35719   0.00000  Uiso   1.00
H82    H     0.40990   0.15252   0.17670   0.00000  Uiso   1.00
H83    H     0.46805   0.89241   0.68823   0.00000  Uiso   1.00
O84    O     0.90013   0.69190   0.27760   0.00000  Uiso   1.00
O85    O     0.48799   0.10968   0.04081   0.00000  Uiso   1.00
O86    O     0.56427   0.76842   0.71192   0.00000  Uiso   1.00
N87    N     0.04026   0.68379   0.26216   0.00000  Uiso   1.00
N88    N     0.45916   0.98152   0.09340   0.00000  Uiso   1.00
N89    N     0.51354   0.73835   0.57163   0.00000  Uiso   1.00
N90    N     0.99987   0.79466   0.33095   0.00000  Uiso   1.00
N91    N     0.41877   0.09238   0.16219   0.00000  Uiso   1.00
N92    N     0.47316   0.84921   0.64042   0.00000  Uiso   1.00
C93    C     0.30628   0.34412   0.78823   0.00000  Uiso   1.00
C94    C     0.31238   0.25042   0.78478   0.00000  Uiso   1.00
C95    C     0.28030   0.19402   0.71918   0.00000  Uiso   1.00
C96    C     0.29239   0.11093   0.72804   0.00000  Uiso   1.00
C97    C     0.29533   0.96932   0.71178   0.00000  Uiso   1.00
C98    C     0.26598   0.36779   0.86945   0.00000  Uiso   1.00
C99    C     0.19491   0.41009   0.87502   0.00000  Uiso   1.00
C100   C     0.16795   0.42582   0.95516   0.00000  Uiso   1.00
C101   C     0.09889   0.46650   0.07034   0.00000  Uiso   1.00
C102   C     0.39428   0.38177   0.80119   0.00000  Uiso   1.00
C103   C     0.43109   0.43584   0.74939   0.00000  Uiso   1.00
C104   C     0.51215   0.46335   0.77207   0.00000  Uiso   1.00
C105   C     0.64230   0.52573   0.78127   0.00000  Uiso   1.00
C106   C     0.38479   0.29685   0.92063   0.00000  Uiso   1.00
C107   C     0.35501   0.22474   0.85670   0.00000  Uiso   1.00
C108   C     0.36716   0.14172   0.86567   0.00000  Uiso   1.00
C109   C     0.33511   0.08520   0.80009   0.00000  Uiso   1.00
C110   C     0.30862   0.34212   0.94136   0.00000  Uiso   1.00
C111   C     0.28176   0.35779   0.02151   0.00000  Uiso   1.00
C112   C     0.21066   0.40009   0.02721   0.00000  Uiso   1.00
C113   C     0.43693   0.35609   0.87311   0.00000  Uiso   1.00
C114   C     0.51794   0.38353   0.89588   0.00000  Uiso   1.00
C115   C     0.55486   0.43763   0.84412   0.00000  Uiso   1.00
H116   H     0.27309   0.36412   0.73224   0.00000  Uiso   1.00
H117   H     0.24730   0.21391   0.66354   0.00000  Uiso   1.00
H118   H     0.16193   0.42996   0.81936   0.00000  Uiso   1.00
H119   H     0.39807   0.45570   0.69374   0.00000  Uiso   1.00
H120   H     0.23750   0.03606   0.61909   0.00000  Uiso   1.00
H121   H     0.05750   0.49163   0.94765   0.00000  Uiso   1.00
H122   H     0.55545   0.54591   0.68277   0.00000  Uiso   1.00
H123   H     0.41798   0.27686   0.97662   0.00000  Uiso   1.00
H124   H     0.40015   0.12186   0.92133   0.00000  Uiso   1.00
H125   H     0.31478   0.33791   0.07715   0.00000  Uiso   1.00
H126   H     0.55092   0.36365   0.95153   0.00000  Uiso   1.00
H127   H     0.36155   0.96135   0.82833   0.00000  Uiso   1.00
H128   H     0.18155   0.41692   0.15689   0.00000  Uiso   1.00
H129   H     0.67950   0.47120   0.89201   0.00000  Uiso   1.00
O130   O     0.28516   0.89831   0.68294   0.00000  Uiso   1.00
O131   O     0.04901   0.49602   0.11400   0.00000  Uiso   1.00
O132   O     0.70231   0.56723   0.76648   0.00000  Uiso   1.00
N133   N     0.26915   0.03974   0.67592   0.00000  Uiso   1.00
N134   N     0.10086   0.46567   0.98310   0.00000  Uiso   1.00
N135   N     0.56639   0.51643   0.73547   0.00000  Uiso   1.00
N136   N     0.33591   0.99954   0.78851   0.00000  Uiso   1.00
N137   N     0.16761   0.42547   0.09569   0.00000  Uiso   1.00
N138   N     0.63315   0.47623   0.84806   0.00000  Uiso   1.00
C139   C     0.20768   0.69541   0.65059   0.00000  Uiso   1.00
C140   C     0.21071   0.68999   0.74603   0.00000  Uiso   1.00
C141   C     0.27405   0.72251   0.80375   0.00000  Uiso   1.00
C142   C     0.26520   0.71101   0.88832   0.00000  Uiso   1.00
C143   C     0.28049   0.70909   0.03260   0.00000  Uiso   1.00
C144   C     0.12851   0.73628   0.62687   0.00000  Uiso   1.00
C145   C     0.12273   0.80770   0.58439   0.00000  Uiso   1.00
C146   C     0.04467   0.83515   0.56865   0.00000  Uiso   1.00
C147   C     0.93233   0.90506   0.52787   0.00000  Uiso   1.00
C148   C     0.19587   0.60636   0.61146   0.00000  Uiso   1.00
C149   C     0.24671   0.56855   0.55600   0.00000  Uiso   1.00
C150   C     0.22535   0.48662   0.52727   0.00000  Uiso   1.00
C151   C     0.21760   0.35481   0.46256   0.00000  Uiso   1.00
C152   C     0.07933   0.61716   0.69816   0.00000  Uiso   1.00
C153   C     0.14100   0.64749   0.77187   0.00000  Uiso   1.00
C154   C     0.13205   0.63593   0.85638   0.00000  Uiso   1.00
C155   C     0.19536   0.66843   0.91421   0.00000  Uiso   1.00
C156   C     0.05879   0.69378   0.65271   0.00000  Uiso   1.00
C157   C     0.98073   0.72113   0.63702   0.00000  Uiso   1.00
C158   C     0.97483   0.79258   0.59453   0.00000  Uiso   1.00
C159   C     0.12615   0.56385   0.63730   0.00000  Uiso   1.00
C160   C     0.10471   0.48197   0.60864   0.00000  Uiso   1.00
C161   C     0.15551   0.44405   0.55315   0.00000  Uiso   1.00
H162   H     0.26195   0.72851   0.63047   0.00000  Uiso   1.00
H163   H     0.32799   0.75540   0.78373   0.00000  Uiso   1.00
H164   H     0.17669   0.84057   0.56440   0.00000  Uiso   1.00
H165   H     0.30065   0.60146   0.53602   0.00000  Uiso   1.00
H166   H     0.37044   0.76650   0.96504   0.00000  Uiso   1.00
H167   H     0.05142   0.94608   0.50255   0.00000  Uiso   1.00
H168   H     0.31282   0.44185   0.44270   0.00000  Uiso   1.00
H169   H     0.02505   0.58408   0.71827   0.00000  Uiso   1.00
H170   H     0.07809   0.60304   0.87635   0.00000  Uiso   1.00
H171   H     0.92679   0.68822   0.65702   0.00000  Uiso   1.00
H172   H     0.05075   0.44910   0.62865   0.00000  Uiso   1.00
H173   H     0.16762   0.64285   0.04022   0.00000  Uiso   1.00
H174   H     0.84859   0.82243   0.57772   0.00000  Uiso   1.00
H175   H     0.10999   0.31820   0.51788   0.00000  Uiso   1.00
O176   O     0.30818   0.71978   0.10504   0.00000  Uiso   1.00
O177   O     0.88963   0.95537   0.49825   0.00000  Uiso   1.00
O178   O     0.23258   0.29384   0.41974   0.00000  Uiso   1.00
N179   N     0.31544   0.73478   0.96104   0.00000  Uiso   1.00
N180   N     0.01717   0.90268   0.52864   0.00000  Uiso   1.00
N181   N     0.26154   0.43128   0.47268   0.00000  Uiso   1.00
N182   N     0.20630   0.66824   0.00149   0.00000  Uiso   1.00
N183   N     0.90803   0.83615   0.56910   0.00000  Uiso   1.00
N184   N     0.15240   0.36474   0.51313   0.00000  Uiso   1.00
C185   C     0.65882   0.20857   0.69696   0.00000  Uiso   1.00
C186   C     0.75162   0.21114   0.69141   0.00000  Uiso   1.00
C187   C     0.80715   0.27506   0.72506   0.00000  Uiso   1.00
C188   C     0.88950   0.26565   0.71321   0.00000  Uiso   1.00
C189   C     0.02967   0.28040   0.71131   0.00000  Uiso   1.00
C190   C     0.63618   0.12909   0.73793   0.00000  Uiso   1.00
C191   C     0.59464   0.12402   0.81069   0.00000  Uiso   1.00
C192   C     0.57980   0.04553   0.83799   0.00000  Uiso   1.00
C193   C     0.54070   0.93288   0.90828   0.00000  Uiso   1.00
C194   C     0.62120   0.19611   0.60613   0.00000  Uiso   1.00
C195   C     0.56705   0.24739   0.56807   0.00000  Uiso   1.00
C196   C     0.53959   0.22531   0.48441   0.00000  Uiso   1.00
C197   C     0.47724   0.21674   0.35006   0.00000  Uiso   1.00
C198   C     0.70631   0.07819   0.61607   0.00000  Uiso   1.00
C199   C     0.77741   0.14032   0.64747   0.00000  Uiso   1.00
C200   C     0.85970   0.13081   0.63556   0.00000  Uiso   1.00
C201   C     0.91534   0.19471   0.66919   0.00000  Uiso   1.00
C202   C     0.66197   0.05827   0.69399   0.00000  Uiso   1.00
C203   C     0.64719   0.97977   0.72119   0.00000  Uiso   1.00
C204   C     0.60564   0.97458   0.79398   0.00000  Uiso   1.00
C205   C     0.64700   0.12530   0.56218   0.00000  Uiso   1.00
C206   C     0.61961   0.10314   0.47857   0.00000  Uiso   1.00
C207   C     0.56543   0.15437   0.44040   0.00000  Uiso   1.00
H208   H     0.63873   0.26370   0.73117   0.00000  Uiso   1.00
H209   H     0.78717   0.32985   0.75907   0.00000  Uiso   1.00
H210   H     0.57468   0.17883   0.84467   0.00000  Uiso   1.00
H211   H     0.54711   0.30218   0.60209   0.00000  Uiso   1.00
H212   H     0.96311   0.37196   0.77064   0.00000  Uiso   1.00
H213   H     0.51505   0.05351   0.95114   0.00000  Uiso   1.00
H214   H     0.45689   0.31362   0.43961   0.00000  Uiso   1.00
H215   H     0.72639   0.02305   0.58186   0.00000  Uiso   1.00
H216   H     0.87964   0.07600   0.60155   0.00000  Uiso   1.00
H217   H     0.66715   0.92498   0.68717   0.00000  Uiso   1.00
H218   H     0.63958   0.04833   0.44459   0.00000  Uiso   1.00
H219   H     0.03816   0.16592   0.64280   0.00000  Uiso   1.00
H220   H     0.59010   0.84748   0.82330   0.00000  Uiso   1.00
H221   H     0.53195   0.10759   0.31177   0.00000  Uiso   1.00
O222   O     0.09987   0.30810   0.72240   0.00000  Uiso   1.00
O223   O     0.51201   0.89032   0.95919   0.00000  Uiso   1.00
O224   O     0.43573   0.23158   0.28808   0.00000  Uiso   1.00
N225   N     0.95974   0.31621   0.73784   0.00000  Uiso   1.00
N226   N     0.54084   0.01848   0.90660   0.00000  Uiso   1.00
N227   N     0.48646   0.26165   0.42837   0.00000  Uiso   1.00
N228   N     0.00013   0.20534   0.66905   0.00000  Uiso   1.00
N229   N     0.58123   0.90762   0.83781   0.00000  Uiso   1.00
N230   N     0.52684   0.15079   0.35958   0.00000  Uiso   1.00
C231   C     0.69372   0.65588   0.21177   0.00000  Uiso   1.00
C232   C     0.68762   0.74959   0.21522   0.00000  Uiso   1.00
C233   C     0.71970   0.80598   0.28082   0.00000  Uiso   1.00
C234   C     0.70761   0.88907   0.27196   0.00000  Uiso   1.00
C235   C     0.70467   0.03068   0.28822   0.00000  Uiso   1.00
C236   C     0.73402   0.63221   0.13055   0.00000  Uiso   1.00
C237   C     0.80509   0.58991   0.12498   0.00000  Uiso   1.00
C238   C     0.83205   0.57418   0.04484   0.00000  Uiso   1.00
C239   C     0.90111   0.53350   0.92966   0.00000  Uiso   1.00
C240   C     0.60572   0.61823   0.19881   0.00000  Uiso   1.00
C241   C     0.56891   0.56416   0.25061   0.00000  Uiso   1.00
C242   C     0.48785   0.53665   0.22793   0.00000  Uiso   1.00
C243   C     0.35770   0.47427   0.21873   0.00000  Uiso   1.00
C244   C     0.61521   0.70315   0.07937   0.00000  Uiso   1.00
C245   C     0.64499   0.77526   0.14330   0.00000  Uiso   1.00
C246   C     0.63284   0.85829   0.13433   0.00000  Uiso   1.00
C247   C     0.66489   0.91480   0.19991   0.00000  Uiso   1.00
C248   C     0.69138   0.65788   0.05864   0.00000  Uiso   1.00
C249   C     0.71824   0.64221   0.97849   0.00000  Uiso   1.00
C250   C     0.78934   0.59991   0.97279   0.00000  Uiso   1.00
C251   C     0.56307   0.64391   0.12689   0.00000  Uiso   1.00
C252   C     0.48206   0.61647   0.10412   0.00000  Uiso   1.00
C253   C     0.44514   0.56237   0.15588   0.00000  Uiso   1.00
H254   H     0.72692   0.63588   0.26776   0.00000  Uiso   1.00
H255   H     0.75270   0.78609   0.33646   0.00000  Uiso   1.00
H256   H     0.83807   0.57004   0.18064   0.00000  Uiso   1.00
H257   H     0.60193   0.54430   0.30626   0.00000  Uiso   1.00
H258   H     0.76250   0.96394   0.38090   0.00000  Uiso   1.00
H259   H     0.94251   0.50837   0.05235   0.00000  Uiso   1.00
H260   H     0.44455   0.45409   0.31723   0.00000  Uiso   1.00
H261   H     0.58202   0.72314   0.02338   0.00000  Uiso   1.00
H262   H     0.59985   0.87814   0.07867   0.00000  Uiso   1.00
H263   H     0.68523   0.66209   0.92285   0.00000  Uiso   1.00
H264   H     0.44908   0.63635   0.04847   0.00000  Uiso   1.00
H265   H     0.63845   0.03866   0.17167   0.00000  Uiso   1.00
H266   H     0.81845   0.58308   0.84311   0.00000  Uiso   1.00
H267   H     0.32050   0.52880   0.10799   0.00000  Uiso   1.00
O268   O     0.71484   0.10169   0.31706   0.00000  Uiso   1.00
O269   O     0.95099   0.50398   0.88600   0.00000  Uiso   1.00
O270   O     0.29769   0.43277   0.23352   0.00000  Uiso   1.00
N271   N     0.73085   0.96026   0.32408   0.00000  Uiso   1.00
N272   N     0.89915   0.53433   0.01690   0.00000  Uiso   1.00
N273   N     0.43361   0.48357   0.26453   0.00000  Uiso   1.00
N274   N     0.66409   0.00046   0.21149   0.00000  Uiso   1.00
N275   N     0.83239   0.57453   0.90431   0.00000  Uiso   1.00
N276   N     0.36685   0.52377   0.15194   0.00000  Uiso   1.00
