data_job_05376
_audit_creation_date              2018-12-19
_audit_creation_method            'Materials Studio'
_symmetry_space_group_name_H-M    'P1'
_symmetry_Int_Tables_number       1
_symmetry_cell_setting            triclinic
loop_
_symmetry_equiv_pos_as_xyz
  x,y,z
_cell_length_a                    26.5703
_cell_length_b                    7.7744
_cell_length_c                    17.3440
_cell_angle_alpha                 90.0000
_cell_angle_beta                  134.0750
_cell_angle_gamma                 90.0000
loop_
_atom_site_label
_atom_site_type_symbol
_atom_site_fract_x
_atom_site_fract_y
_atom_site_fract_z
_atom_site_U_iso_or_equiv
_atom_site_adp_type
_atom_site_occupancy
C1     C     0.79362   0.14363   0.10094   0.00000  Uiso   1.00
C2     C     0.85577   0.02381   0.18007   0.00000  Uiso   1.00
C3     C     0.91351   0.05839   0.28768   0.00000  Uiso   1.00
C4     C     0.96481   0.93216   0.34660   0.00000  Uiso   1.00
C5     C     0.06228   0.76974   0.47662   0.00000  Uiso   1.00
C6     C     0.78849   0.16965   0.00851   0.00000  Uiso   1.00
C7     C     0.78965   0.32688   0.97186   0.00000  Uiso   1.00
C8     C     0.78430   0.32341   0.88634   0.00000  Uiso   1.00
C9     C     0.77726   0.38743   0.74996   0.00000  Uiso   1.00
C10    C     0.72868   0.04166   0.05480   0.00000  Uiso   1.00
C11    C     0.67954   0.09128   0.05705   0.00000  Uiso   1.00
C12    C     0.62383   0.98006   0.01048   0.00000  Uiso   1.00
C13    C     0.52394   0.84535   0.94598   0.00000  Uiso   1.00
C14    C     0.78205   0.85793   0.01421   0.00000  Uiso   1.00
C15    C     0.84948   0.86862   0.13296   0.00000  Uiso   1.00
C16    C     0.90071   0.74229   0.19173   0.00000  Uiso   1.00
C17    C     0.95851   0.77669   0.29941   0.00000  Uiso   1.00
C18    C     0.78220   0.01448   0.96140   0.00000  Uiso   1.00
C19    C     0.77685   0.01078   0.87591   0.00000  Uiso   1.00
C20    C     0.77800   0.16795   0.83915   0.00000  Uiso   1.00
C21    C     0.72240   0.88647   0.00769   0.00000  Uiso   1.00
C22    C     0.66675   0.77517   0.96110   0.00000  Uiso   1.00
C23    C     0.61753   0.82460   0.96329   0.00000  Uiso   1.00
H24    H     0.79851   0.26446   0.13761   0.00000  Uiso   1.00
H25    H     0.91835   0.17851   0.32410   0.00000  Uiso   1.00
H26    H     0.79450   0.44694   0.00832   0.00000  Uiso   1.00
H27    H     0.68442   0.21137   0.09351   0.00000  Uiso   1.00
H28    H     0.04846   0.01482   0.51009   0.00000  Uiso   1.00
H29    H     0.78729   0.58083   0.84423   0.00000  Uiso   1.00
H30    H     0.55516   0.08409   0.02385   0.00000  Uiso   1.00
H31    H     0.77716   0.73711   0.97753   0.00000  Uiso   1.00
H32    H     0.89583   0.62222   0.15525   0.00000  Uiso   1.00
H33    H     0.77198   0.89066   0.83947   0.00000  Uiso   1.00
H34    H     0.66190   0.65509   0.92466   0.00000  Uiso   1.00
H35    H     0.03019   0.56331   0.37304   0.00000  Uiso   1.00
H36    H     0.76901   0.12933   0.70717   0.00000  Uiso   1.00
H37    H     0.53688   0.63258   0.88680   0.00000  Uiso   1.00
O38    O     0.11779   0.72303   0.56135   0.00000  Uiso   1.00
O39    O     0.77513   0.46562   0.68775   0.00000  Uiso   1.00
O40    O     0.47058   0.81390   0.92343   0.00000  Uiso   1.00
N41    N     0.02787   0.92431   0.45345   0.00000  Uiso   1.00
N42    N     0.78370   0.45350   0.83092   0.00000  Uiso   1.00
N43    N     0.56666   0.98910   0.99883   0.00000  Uiso   1.00
N44    N     0.01803   0.68136   0.37970   0.00000  Uiso   1.00
N45    N     0.77387   0.21054   0.75717   0.00000  Uiso   1.00
N46    N     0.55683   0.74615   0.92508   0.00000  Uiso   1.00
C47    C     0.20638   0.14363   0.39906   0.00000  Uiso   1.00
C48    C     0.14423   0.02381   0.31993   0.00000  Uiso   1.00
C49    C     0.08649   0.05839   0.21232   0.00000  Uiso   1.00
C50    C     0.03519   0.93216   0.15340   0.00000  Uiso   1.00
C51    C     0.93772   0.76974   0.02338   0.00000  Uiso   1.00
C52    C     0.21151   0.16965   0.49149   0.00000  Uiso   1.00
C53    C     0.21035   0.32688   0.52814   0.00000  Uiso   1.00
C54    C     0.21570   0.32341   0.61366   0.00000  Uiso   1.00
C55    C     0.22274   0.38743   0.75004   0.00000  Uiso   1.00
C56    C     0.27132   0.04166   0.44520   0.00000  Uiso   1.00
C57    C     0.32046   0.09128   0.44295   0.00000  Uiso   1.00
C58    C     0.37617   0.98006   0.48952   0.00000  Uiso   1.00
C59    C     0.47606   0.84535   0.55402   0.00000  Uiso   1.00
C60    C     0.21795   0.85793   0.48579   0.00000  Uiso   1.00
C61    C     0.15052   0.86862   0.36704   0.00000  Uiso   1.00
C62    C     0.09929   0.74229   0.30827   0.00000  Uiso   1.00
C63    C     0.04149   0.77669   0.20059   0.00000  Uiso   1.00
C64    C     0.21780   0.01448   0.53860   0.00000  Uiso   1.00
C65    C     0.22315   0.01078   0.62409   0.00000  Uiso   1.00
C66    C     0.22200   0.16795   0.66085   0.00000  Uiso   1.00
C67    C     0.27760   0.88647   0.49231   0.00000  Uiso   1.00
C68    C     0.33325   0.77517   0.53890   0.00000  Uiso   1.00
C69    C     0.38247   0.82460   0.53671   0.00000  Uiso   1.00
H70    H     0.20149   0.26446   0.36239   0.00000  Uiso   1.00
H71    H     0.08165   0.17851   0.17590   0.00000  Uiso   1.00
H72    H     0.20550   0.44694   0.49168   0.00000  Uiso   1.00
H73    H     0.31558   0.21137   0.40649   0.00000  Uiso   1.00
H74    H     0.95154   0.01482   0.98991   0.00000  Uiso   1.00
H75    H     0.21271   0.58083   0.65577   0.00000  Uiso   1.00
H76    H     0.44484   0.08409   0.47615   0.00000  Uiso   1.00
H77    H     0.22284   0.73711   0.52247   0.00000  Uiso   1.00
H78    H     0.10417   0.62222   0.34475   0.00000  Uiso   1.00
H79    H     0.22802   0.89066   0.66053   0.00000  Uiso   1.00
H80    H     0.33810   0.65509   0.57534   0.00000  Uiso   1.00
H81    H     0.96981   0.56331   0.12696   0.00000  Uiso   1.00
H82    H     0.23099   0.12933   0.79283   0.00000  Uiso   1.00
H83    H     0.46312   0.63258   0.61320   0.00000  Uiso   1.00
O84    O     0.88221   0.72303   0.93865   0.00000  Uiso   1.00
O85    O     0.22487   0.46562   0.81225   0.00000  Uiso   1.00
O86    O     0.52942   0.81390   0.57657   0.00000  Uiso   1.00
N87    N     0.97213   0.92431   0.04655   0.00000  Uiso   1.00
N88    N     0.21630   0.45350   0.66908   0.00000  Uiso   1.00
N89    N     0.43334   0.98910   0.50117   0.00000  Uiso   1.00
N90    N     0.98197   0.68136   0.12030   0.00000  Uiso   1.00
N91    N     0.22613   0.21054   0.74283   0.00000  Uiso   1.00
N92    N     0.44317   0.74615   0.57492   0.00000  Uiso   1.00
C93    C     0.20638   0.85637   0.89906   0.00000  Uiso   1.00
C94    C     0.14423   0.97619   0.81993   0.00000  Uiso   1.00
C95    C     0.08649   0.94161   0.71232   0.00000  Uiso   1.00
C96    C     0.03519   0.06784   0.65340   0.00000  Uiso   1.00
C97    C     0.93772   0.23026   0.52338   0.00000  Uiso   1.00
C98    C     0.21151   0.83035   0.99149   0.00000  Uiso   1.00
C99    C     0.21035   0.67312   0.02814   0.00000  Uiso   1.00
C100   C     0.21570   0.67659   0.11366   0.00000  Uiso   1.00
C101   C     0.22274   0.61257   0.25004   0.00000  Uiso   1.00
C102   C     0.27132   0.95834   0.94520   0.00000  Uiso   1.00
C103   C     0.32046   0.90872   0.94295   0.00000  Uiso   1.00
C104   C     0.37617   0.01994   0.98952   0.00000  Uiso   1.00
C105   C     0.47606   0.15465   0.05402   0.00000  Uiso   1.00
C106   C     0.21795   0.14207   0.98579   0.00000  Uiso   1.00
C107   C     0.15052   0.13138   0.86704   0.00000  Uiso   1.00
C108   C     0.09929   0.25771   0.80827   0.00000  Uiso   1.00
C109   C     0.04149   0.22331   0.70059   0.00000  Uiso   1.00
C110   C     0.21780   0.98552   0.03860   0.00000  Uiso   1.00
C111   C     0.22315   0.98922   0.12409   0.00000  Uiso   1.00
C112   C     0.22200   0.83205   0.16085   0.00000  Uiso   1.00
C113   C     0.27760   0.11353   0.99231   0.00000  Uiso   1.00
C114   C     0.33325   0.22483   0.03890   0.00000  Uiso   1.00
C115   C     0.38247   0.17540   0.03671   0.00000  Uiso   1.00
H116   H     0.20149   0.73554   0.86239   0.00000  Uiso   1.00
H117   H     0.08165   0.82149   0.67590   0.00000  Uiso   1.00
H118   H     0.20550   0.55306   0.99168   0.00000  Uiso   1.00
H119   H     0.31558   0.78863   0.90649   0.00000  Uiso   1.00
H120   H     0.95154   0.98518   0.48991   0.00000  Uiso   1.00
H121   H     0.21271   0.41917   0.15577   0.00000  Uiso   1.00
H122   H     0.44484   0.91591   0.97615   0.00000  Uiso   1.00
H123   H     0.22284   0.26289   0.02247   0.00000  Uiso   1.00
H124   H     0.10417   0.37778   0.84475   0.00000  Uiso   1.00
H125   H     0.22802   0.10934   0.16053   0.00000  Uiso   1.00
H126   H     0.33810   0.34491   0.07534   0.00000  Uiso   1.00
H127   H     0.96981   0.43669   0.62696   0.00000  Uiso   1.00
H128   H     0.23099   0.87067   0.29283   0.00000  Uiso   1.00
H129   H     0.46312   0.36742   0.11320   0.00000  Uiso   1.00
O130   O     0.88221   0.27697   0.43865   0.00000  Uiso   1.00
O131   O     0.22487   0.53438   0.31225   0.00000  Uiso   1.00
O132   O     0.52942   0.18610   0.07657   0.00000  Uiso   1.00
N133   N     0.97213   0.07569   0.54655   0.00000  Uiso   1.00
N134   N     0.21630   0.54650   0.16908   0.00000  Uiso   1.00
N135   N     0.43334   0.01090   0.00117   0.00000  Uiso   1.00
N136   N     0.98197   0.31864   0.62030   0.00000  Uiso   1.00
N137   N     0.22613   0.78946   0.24283   0.00000  Uiso   1.00
N138   N     0.44317   0.25385   0.07492   0.00000  Uiso   1.00
C139   C     0.79362   0.85637   0.60094   0.00000  Uiso   1.00
C140   C     0.85577   0.97619   0.68007   0.00000  Uiso   1.00
C141   C     0.91351   0.94161   0.78768   0.00000  Uiso   1.00
C142   C     0.96481   0.06784   0.84660   0.00000  Uiso   1.00
C143   C     0.06228   0.23026   0.97662   0.00000  Uiso   1.00
C144   C     0.78849   0.83035   0.50851   0.00000  Uiso   1.00
C145   C     0.78965   0.67312   0.47186   0.00000  Uiso   1.00
C146   C     0.78430   0.67659   0.38634   0.00000  Uiso   1.00
C147   C     0.77726   0.61257   0.24996   0.00000  Uiso   1.00
C148   C     0.72868   0.95834   0.55480   0.00000  Uiso   1.00
C149   C     0.67954   0.90872   0.55705   0.00000  Uiso   1.00
C150   C     0.62383   0.01994   0.51048   0.00000  Uiso   1.00
C151   C     0.52394   0.15465   0.44598   0.00000  Uiso   1.00
C152   C     0.78205   0.14207   0.51421   0.00000  Uiso   1.00
C153   C     0.84948   0.13138   0.63296   0.00000  Uiso   1.00
C154   C     0.90071   0.25771   0.69173   0.00000  Uiso   1.00
C155   C     0.95851   0.22331   0.79941   0.00000  Uiso   1.00
C156   C     0.78220   0.98552   0.46140   0.00000  Uiso   1.00
C157   C     0.77685   0.98922   0.37591   0.00000  Uiso   1.00
C158   C     0.77800   0.83205   0.33915   0.00000  Uiso   1.00
C159   C     0.72240   0.11353   0.50769   0.00000  Uiso   1.00
C160   C     0.66675   0.22483   0.46110   0.00000  Uiso   1.00
C161   C     0.61753   0.17540   0.46329   0.00000  Uiso   1.00
H162   H     0.79851   0.73554   0.63761   0.00000  Uiso   1.00
H163   H     0.91835   0.82149   0.82410   0.00000  Uiso   1.00
H164   H     0.79450   0.55306   0.50832   0.00000  Uiso   1.00
H165   H     0.68442   0.78863   0.59351   0.00000  Uiso   1.00
H166   H     0.04846   0.98518   0.01009   0.00000  Uiso   1.00
H167   H     0.78729   0.41917   0.34423   0.00000  Uiso   1.00
H168   H     0.55516   0.91591   0.52385   0.00000  Uiso   1.00
H169   H     0.77716   0.26289   0.47753   0.00000  Uiso   1.00
H170   H     0.89583   0.37778   0.65525   0.00000  Uiso   1.00
H171   H     0.77198   0.10934   0.33947   0.00000  Uiso   1.00
H172   H     0.66190   0.34491   0.42466   0.00000  Uiso   1.00
H173   H     0.03019   0.43669   0.87304   0.00000  Uiso   1.00
H174   H     0.76901   0.87067   0.20717   0.00000  Uiso   1.00
H175   H     0.53688   0.36742   0.38680   0.00000  Uiso   1.00
O176   O     0.11779   0.27697   0.06135   0.00000  Uiso   1.00
O177   O     0.77513   0.53438   0.18775   0.00000  Uiso   1.00
O178   O     0.47058   0.18610   0.42343   0.00000  Uiso   1.00
N179   N     0.02787   0.07569   0.95345   0.00000  Uiso   1.00
N180   N     0.78370   0.54650   0.33092   0.00000  Uiso   1.00
N181   N     0.56666   0.01090   0.49883   0.00000  Uiso   1.00
N182   N     0.01803   0.31864   0.87970   0.00000  Uiso   1.00
N183   N     0.77387   0.78946   0.25717   0.00000  Uiso   1.00
N184   N     0.55683   0.25385   0.42508   0.00000  Uiso   1.00
