data_job_03121
_audit_creation_date              2018-12-19
_audit_creation_method            'Materials Studio'
_symmetry_space_group_name_H-M    'P1'
_symmetry_Int_Tables_number       1
_symmetry_cell_setting            triclinic
loop_
_symmetry_equiv_pos_as_xyz
  x,y,z
_cell_length_a                    26.7826
_cell_length_b                    21.9040
_cell_length_c                    12.5644
_cell_angle_alpha                 90.0000
_cell_angle_beta                  90.0000
_cell_angle_gamma                 90.0000
loop_
_atom_site_label
_atom_site_type_symbol
_atom_site_fract_x
_atom_site_fract_y
_atom_site_fract_z
_atom_site_U_iso_or_equiv
_atom_site_adp_type
_atom_site_occupancy
C1     C     0.08972   0.62250   0.61761   0.00000  Uiso   1.00
C2     C     0.10826   0.57583   0.69854   0.00000  Uiso   1.00
C3     C     0.08404   0.55958   0.79198   0.00000  Uiso   1.00
C4     C     0.10711   0.51598   0.85537   0.00000  Uiso   1.00
C5     C     0.12895   0.44755   0.98549   0.00000  Uiso   1.00
C6     C     0.13144   0.66943   0.60618   0.00000  Uiso   1.00
C7     C     0.12671   0.73187   0.62196   0.00000  Uiso   1.00
C8     C     0.16929   0.76707   0.60758   0.00000  Uiso   1.00
C9     C     0.22712   0.84395   0.59423   0.00000  Uiso   1.00
C10    C     0.08706   0.58900   0.51137   0.00000  Uiso   1.00
C11    C     0.04502   0.58384   0.44741   0.00000  Uiso   1.00
C12    C     0.05025   0.55133   0.35319   0.00000  Uiso   1.00
C13    C     0.03917   0.50334   0.19264   0.00000  Uiso   1.00
C14    C     0.17375   0.57398   0.56399   0.00000  Uiso   1.00
C15    C     0.15390   0.54948   0.66941   0.00000  Uiso   1.00
C16    C     0.17701   0.50590   0.73267   0.00000  Uiso   1.00
C17    C     0.15283   0.48958   0.82619   0.00000  Uiso   1.00
C18    C     0.17708   0.64308   0.57706   0.00000  Uiso   1.00
C19    C     0.21968   0.67819   0.56264   0.00000  Uiso   1.00
C20    C     0.21502   0.74067   0.57840   0.00000  Uiso   1.00
C21    C     0.13270   0.56265   0.48225   0.00000  Uiso   1.00
C22    C     0.13799   0.53015   0.38810   0.00000  Uiso   1.00
C23    C     0.09597   0.52493   0.32402   0.00000  Uiso   1.00
H24    H     0.05419   0.64302   0.64028   0.00000  Uiso   1.00
H25    H     0.04872   0.57999   0.81450   0.00000  Uiso   1.00
H26    H     0.09139   0.75225   0.64448   0.00000  Uiso   1.00
H27    H     0.00971   0.60424   0.46997   0.00000  Uiso   1.00
H28    H     0.06280   0.49849   0.99483   0.00000  Uiso   1.00
H29    H     0.15275   0.86173   0.63632   0.00000  Uiso   1.00
H30    H     0.98052   0.54961   0.26832   0.00000  Uiso   1.00
H31    H     0.20928   0.55347   0.54132   0.00000  Uiso   1.00
H32    H     0.21232   0.48551   0.71011   0.00000  Uiso   1.00
H33    H     0.25499   0.65778   0.54010   0.00000  Uiso   1.00
H34    H     0.17331   0.50977   0.36559   0.00000  Uiso   1.00
H35    H     0.19558   0.42182   0.91011   0.00000  Uiso   1.00
H36    H     0.28553   0.78506   0.55159   0.00000  Uiso   1.00
H37    H     0.11331   0.47293   0.18360   0.00000  Uiso   1.00
O38    O     0.12840   0.41708   0.06531   0.00000  Uiso   1.00
O39    O     0.24641   0.89364   0.59493   0.00000  Uiso   1.00
O40    O     0.02045   0.48414   0.11214   0.00000  Uiso   1.00
N41    N     0.09362   0.48976   0.95172   0.00000  Uiso   1.00
N42    N     0.17773   0.82937   0.61654   0.00000  Uiso   1.00
N43    N     0.01671   0.53758   0.27249   0.00000  Uiso   1.00
N44    N     0.16508   0.44850   0.90613   0.00000  Uiso   1.00
N45    N     0.24918   0.78811   0.57095   0.00000  Uiso   1.00
N46    N     0.08816   0.49632   0.22690   0.00000  Uiso   1.00
C47    C     0.41028   0.37750   0.61761   0.00000  Uiso   1.00
C48    C     0.39174   0.42417   0.69854   0.00000  Uiso   1.00
C49    C     0.41596   0.44042   0.79198   0.00000  Uiso   1.00
C50    C     0.39289   0.48402   0.85537   0.00000  Uiso   1.00
C51    C     0.37105   0.55245   0.98549   0.00000  Uiso   1.00
C52    C     0.36856   0.33057   0.60618   0.00000  Uiso   1.00
C53    C     0.37329   0.26813   0.62196   0.00000  Uiso   1.00
C54    C     0.33071   0.23293   0.60758   0.00000  Uiso   1.00
C55    C     0.27288   0.15605   0.59423   0.00000  Uiso   1.00
C56    C     0.41294   0.41100   0.51137   0.00000  Uiso   1.00
C57    C     0.45498   0.41616   0.44741   0.00000  Uiso   1.00
C58    C     0.44975   0.44867   0.35319   0.00000  Uiso   1.00
C59    C     0.46083   0.49666   0.19264   0.00000  Uiso   1.00
C60    C     0.32625   0.42602   0.56399   0.00000  Uiso   1.00
C61    C     0.34610   0.45052   0.66941   0.00000  Uiso   1.00
C62    C     0.32299   0.49410   0.73267   0.00000  Uiso   1.00
C63    C     0.34717   0.51042   0.82619   0.00000  Uiso   1.00
C64    C     0.32292   0.35692   0.57706   0.00000  Uiso   1.00
C65    C     0.28032   0.32181   0.56264   0.00000  Uiso   1.00
C66    C     0.28498   0.25933   0.57840   0.00000  Uiso   1.00
C67    C     0.36730   0.43735   0.48225   0.00000  Uiso   1.00
C68    C     0.36201   0.46985   0.38810   0.00000  Uiso   1.00
C69    C     0.40403   0.47507   0.32402   0.00000  Uiso   1.00
H70    H     0.44581   0.35698   0.64028   0.00000  Uiso   1.00
H71    H     0.45128   0.42001   0.81450   0.00000  Uiso   1.00
H72    H     0.40861   0.24775   0.64448   0.00000  Uiso   1.00
H73    H     0.49029   0.39576   0.46997   0.00000  Uiso   1.00
H74    H     0.43720   0.50151   0.99483   0.00000  Uiso   1.00
H75    H     0.34725   0.13827   0.63632   0.00000  Uiso   1.00
H76    H     0.51948   0.45039   0.26832   0.00000  Uiso   1.00
H77    H     0.29072   0.44653   0.54132   0.00000  Uiso   1.00
H78    H     0.28768   0.51449   0.71011   0.00000  Uiso   1.00
H79    H     0.24501   0.34222   0.54010   0.00000  Uiso   1.00
H80    H     0.32669   0.49023   0.36559   0.00000  Uiso   1.00
H81    H     0.30442   0.57818   0.91011   0.00000  Uiso   1.00
H82    H     0.21447   0.21494   0.55159   0.00000  Uiso   1.00
H83    H     0.38669   0.52707   0.18360   0.00000  Uiso   1.00
O84    O     0.37160   0.58292   0.06531   0.00000  Uiso   1.00
O85    O     0.25359   0.10636   0.59493   0.00000  Uiso   1.00
O86    O     0.47955   0.51586   0.11214   0.00000  Uiso   1.00
N87    N     0.40638   0.51024   0.95172   0.00000  Uiso   1.00
N88    N     0.32227   0.17063   0.61654   0.00000  Uiso   1.00
N89    N     0.48329   0.46242   0.27249   0.00000  Uiso   1.00
N90    N     0.33492   0.55150   0.90613   0.00000  Uiso   1.00
N91    N     0.25082   0.21189   0.57095   0.00000  Uiso   1.00
N92    N     0.41184   0.50368   0.22690   0.00000  Uiso   1.00
C93    C     0.41028   0.12250   0.88239   0.00000  Uiso   1.00
C94    C     0.39174   0.07583   0.80146   0.00000  Uiso   1.00
C95    C     0.41596   0.05958   0.70802   0.00000  Uiso   1.00
C96    C     0.39289   0.01598   0.64463   0.00000  Uiso   1.00
C97    C     0.37105   0.94755   0.51451   0.00000  Uiso   1.00
C98    C     0.36856   0.16943   0.89382   0.00000  Uiso   1.00
C99    C     0.37329   0.23187   0.87804   0.00000  Uiso   1.00
C100   C     0.33071   0.26707   0.89242   0.00000  Uiso   1.00
C101   C     0.27288   0.34395   0.90577   0.00000  Uiso   1.00
C102   C     0.41294   0.08900   0.98863   0.00000  Uiso   1.00
C103   C     0.45498   0.08384   0.05259   0.00000  Uiso   1.00
C104   C     0.44975   0.05133   0.14681   0.00000  Uiso   1.00
C105   C     0.46083   0.00334   0.30736   0.00000  Uiso   1.00
C106   C     0.32625   0.07398   0.93601   0.00000  Uiso   1.00
C107   C     0.34610   0.04948   0.83059   0.00000  Uiso   1.00
C108   C     0.32299   0.00590   0.76733   0.00000  Uiso   1.00
C109   C     0.34717   0.98958   0.67381   0.00000  Uiso   1.00
C110   C     0.32292   0.14308   0.92294   0.00000  Uiso   1.00
C111   C     0.28032   0.17819   0.93736   0.00000  Uiso   1.00
C112   C     0.28498   0.24067   0.92160   0.00000  Uiso   1.00
C113   C     0.36730   0.06265   0.01775   0.00000  Uiso   1.00
C114   C     0.36201   0.03015   0.11190   0.00000  Uiso   1.00
C115   C     0.40403   0.02493   0.17598   0.00000  Uiso   1.00
H116   H     0.44581   0.14302   0.85972   0.00000  Uiso   1.00
H117   H     0.45128   0.07999   0.68550   0.00000  Uiso   1.00
H118   H     0.40861   0.25225   0.85552   0.00000  Uiso   1.00
H119   H     0.49029   0.10424   0.03003   0.00000  Uiso   1.00
H120   H     0.43720   0.99849   0.50517   0.00000  Uiso   1.00
H121   H     0.34725   0.36173   0.86368   0.00000  Uiso   1.00
H122   H     0.51948   0.04961   0.23168   0.00000  Uiso   1.00
H123   H     0.29072   0.05347   0.95868   0.00000  Uiso   1.00
H124   H     0.28768   0.98551   0.78989   0.00000  Uiso   1.00
H125   H     0.24501   0.15778   0.95990   0.00000  Uiso   1.00
H126   H     0.32669   0.00977   0.13441   0.00000  Uiso   1.00
H127   H     0.30442   0.92182   0.58989   0.00000  Uiso   1.00
H128   H     0.21447   0.28506   0.94841   0.00000  Uiso   1.00
H129   H     0.38669   0.97293   0.31640   0.00000  Uiso   1.00
O130   O     0.37160   0.91708   0.43469   0.00000  Uiso   1.00
O131   O     0.25359   0.39364   0.90507   0.00000  Uiso   1.00
O132   O     0.47955   0.98414   0.38786   0.00000  Uiso   1.00
N133   N     0.40638   0.98976   0.54828   0.00000  Uiso   1.00
N134   N     0.32227   0.32937   0.88346   0.00000  Uiso   1.00
N135   N     0.48329   0.03758   0.22751   0.00000  Uiso   1.00
N136   N     0.33492   0.94850   0.59387   0.00000  Uiso   1.00
N137   N     0.25082   0.28811   0.92905   0.00000  Uiso   1.00
N138   N     0.41184   0.99632   0.27310   0.00000  Uiso   1.00
C139   C     0.08972   0.87750   0.88239   0.00000  Uiso   1.00
C140   C     0.10826   0.92417   0.80146   0.00000  Uiso   1.00
C141   C     0.08404   0.94042   0.70802   0.00000  Uiso   1.00
C142   C     0.10711   0.98402   0.64463   0.00000  Uiso   1.00
C143   C     0.12895   0.05245   0.51451   0.00000  Uiso   1.00
C144   C     0.13144   0.83057   0.89382   0.00000  Uiso   1.00
C145   C     0.12671   0.76813   0.87804   0.00000  Uiso   1.00
C146   C     0.16929   0.73293   0.89242   0.00000  Uiso   1.00
C147   C     0.22712   0.65605   0.90577   0.00000  Uiso   1.00
C148   C     0.08706   0.91100   0.98863   0.00000  Uiso   1.00
C149   C     0.04502   0.91616   0.05259   0.00000  Uiso   1.00
C150   C     0.05025   0.94867   0.14681   0.00000  Uiso   1.00
C151   C     0.03917   0.99666   0.30736   0.00000  Uiso   1.00
C152   C     0.17375   0.92602   0.93601   0.00000  Uiso   1.00
C153   C     0.15390   0.95052   0.83059   0.00000  Uiso   1.00
C154   C     0.17701   0.99410   0.76733   0.00000  Uiso   1.00
C155   C     0.15283   0.01042   0.67381   0.00000  Uiso   1.00
C156   C     0.17708   0.85692   0.92294   0.00000  Uiso   1.00
C157   C     0.21968   0.82181   0.93736   0.00000  Uiso   1.00
C158   C     0.21502   0.75933   0.92160   0.00000  Uiso   1.00
C159   C     0.13270   0.93735   0.01775   0.00000  Uiso   1.00
C160   C     0.13799   0.96985   0.11190   0.00000  Uiso   1.00
C161   C     0.09597   0.97507   0.17598   0.00000  Uiso   1.00
H162   H     0.05419   0.85698   0.85972   0.00000  Uiso   1.00
H163   H     0.04872   0.92001   0.68550   0.00000  Uiso   1.00
H164   H     0.09139   0.74775   0.85552   0.00000  Uiso   1.00
H165   H     0.00971   0.89576   0.03003   0.00000  Uiso   1.00
H166   H     0.06280   0.00151   0.50517   0.00000  Uiso   1.00
H167   H     0.15275   0.63827   0.86368   0.00000  Uiso   1.00
H168   H     0.98052   0.95039   0.23168   0.00000  Uiso   1.00
H169   H     0.20928   0.94653   0.95868   0.00000  Uiso   1.00
H170   H     0.21232   0.01449   0.78989   0.00000  Uiso   1.00
H171   H     0.25499   0.84222   0.95990   0.00000  Uiso   1.00
H172   H     0.17331   0.99023   0.13441   0.00000  Uiso   1.00
H173   H     0.19558   0.07818   0.58989   0.00000  Uiso   1.00
H174   H     0.28553   0.71494   0.94841   0.00000  Uiso   1.00
H175   H     0.11331   0.02707   0.31640   0.00000  Uiso   1.00
O176   O     0.12840   0.08292   0.43469   0.00000  Uiso   1.00
O177   O     0.24641   0.60636   0.90507   0.00000  Uiso   1.00
O178   O     0.02045   0.01586   0.38786   0.00000  Uiso   1.00
N179   N     0.09362   0.01024   0.54828   0.00000  Uiso   1.00
N180   N     0.17773   0.67063   0.88346   0.00000  Uiso   1.00
N181   N     0.01671   0.96242   0.22751   0.00000  Uiso   1.00
N182   N     0.16508   0.05150   0.59387   0.00000  Uiso   1.00
N183   N     0.24918   0.71189   0.92905   0.00000  Uiso   1.00
N184   N     0.08816   0.00368   0.27310   0.00000  Uiso   1.00
C185   C     0.91028   0.37750   0.38239   0.00000  Uiso   1.00
C186   C     0.89174   0.42417   0.30146   0.00000  Uiso   1.00
C187   C     0.91596   0.44042   0.20802   0.00000  Uiso   1.00
C188   C     0.89289   0.48402   0.14463   0.00000  Uiso   1.00
C189   C     0.87105   0.55245   0.01451   0.00000  Uiso   1.00
C190   C     0.86856   0.33057   0.39382   0.00000  Uiso   1.00
C191   C     0.87329   0.26813   0.37804   0.00000  Uiso   1.00
C192   C     0.83071   0.23293   0.39242   0.00000  Uiso   1.00
C193   C     0.77288   0.15605   0.40577   0.00000  Uiso   1.00
C194   C     0.91294   0.41100   0.48863   0.00000  Uiso   1.00
C195   C     0.95498   0.41616   0.55259   0.00000  Uiso   1.00
C196   C     0.94975   0.44867   0.64681   0.00000  Uiso   1.00
C197   C     0.96083   0.49666   0.80736   0.00000  Uiso   1.00
C198   C     0.82625   0.42602   0.43601   0.00000  Uiso   1.00
C199   C     0.84610   0.45052   0.33059   0.00000  Uiso   1.00
C200   C     0.82299   0.49410   0.26733   0.00000  Uiso   1.00
C201   C     0.84717   0.51042   0.17381   0.00000  Uiso   1.00
C202   C     0.82292   0.35692   0.42294   0.00000  Uiso   1.00
C203   C     0.78032   0.32181   0.43736   0.00000  Uiso   1.00
C204   C     0.78498   0.25933   0.42160   0.00000  Uiso   1.00
C205   C     0.86730   0.43735   0.51775   0.00000  Uiso   1.00
C206   C     0.86201   0.46985   0.61190   0.00000  Uiso   1.00
C207   C     0.90403   0.47507   0.67598   0.00000  Uiso   1.00
H208   H     0.94581   0.35698   0.35972   0.00000  Uiso   1.00
H209   H     0.95128   0.42001   0.18550   0.00000  Uiso   1.00
H210   H     0.90861   0.24775   0.35552   0.00000  Uiso   1.00
H211   H     0.99029   0.39576   0.53003   0.00000  Uiso   1.00
H212   H     0.93720   0.50151   0.00517   0.00000  Uiso   1.00
H213   H     0.84725   0.13827   0.36368   0.00000  Uiso   1.00
H214   H     0.01948   0.45039   0.73168   0.00000  Uiso   1.00
H215   H     0.79072   0.44653   0.45868   0.00000  Uiso   1.00
H216   H     0.78768   0.51449   0.28989   0.00000  Uiso   1.00
H217   H     0.74501   0.34222   0.45990   0.00000  Uiso   1.00
H218   H     0.82669   0.49023   0.63441   0.00000  Uiso   1.00
H219   H     0.80442   0.57818   0.08989   0.00000  Uiso   1.00
H220   H     0.71447   0.21494   0.44841   0.00000  Uiso   1.00
H221   H     0.88669   0.52707   0.81640   0.00000  Uiso   1.00
O222   O     0.87160   0.58292   0.93469   0.00000  Uiso   1.00
O223   O     0.75359   0.10636   0.40507   0.00000  Uiso   1.00
O224   O     0.97955   0.51586   0.88786   0.00000  Uiso   1.00
N225   N     0.90638   0.51024   0.04828   0.00000  Uiso   1.00
N226   N     0.82227   0.17063   0.38346   0.00000  Uiso   1.00
N227   N     0.98329   0.46242   0.72751   0.00000  Uiso   1.00
N228   N     0.83492   0.55150   0.09387   0.00000  Uiso   1.00
N229   N     0.75082   0.21189   0.42905   0.00000  Uiso   1.00
N230   N     0.91184   0.50368   0.77310   0.00000  Uiso   1.00
C231   C     0.58972   0.62250   0.38239   0.00000  Uiso   1.00
C232   C     0.60826   0.57583   0.30146   0.00000  Uiso   1.00
C233   C     0.58404   0.55958   0.20802   0.00000  Uiso   1.00
C234   C     0.60711   0.51598   0.14463   0.00000  Uiso   1.00
C235   C     0.62895   0.44755   0.01451   0.00000  Uiso   1.00
C236   C     0.63144   0.66943   0.39382   0.00000  Uiso   1.00
C237   C     0.62671   0.73187   0.37804   0.00000  Uiso   1.00
C238   C     0.66929   0.76707   0.39242   0.00000  Uiso   1.00
C239   C     0.72712   0.84395   0.40577   0.00000  Uiso   1.00
C240   C     0.58706   0.58900   0.48863   0.00000  Uiso   1.00
C241   C     0.54502   0.58384   0.55259   0.00000  Uiso   1.00
C242   C     0.55025   0.55133   0.64681   0.00000  Uiso   1.00
C243   C     0.53917   0.50334   0.80736   0.00000  Uiso   1.00
C244   C     0.67375   0.57398   0.43601   0.00000  Uiso   1.00
C245   C     0.65390   0.54948   0.33059   0.00000  Uiso   1.00
C246   C     0.67701   0.50590   0.26733   0.00000  Uiso   1.00
C247   C     0.65283   0.48958   0.17381   0.00000  Uiso   1.00
C248   C     0.67708   0.64308   0.42294   0.00000  Uiso   1.00
C249   C     0.71968   0.67819   0.43736   0.00000  Uiso   1.00
C250   C     0.71502   0.74067   0.42160   0.00000  Uiso   1.00
C251   C     0.63270   0.56265   0.51775   0.00000  Uiso   1.00
C252   C     0.63799   0.53015   0.61190   0.00000  Uiso   1.00
C253   C     0.59597   0.52493   0.67598   0.00000  Uiso   1.00
H254   H     0.55419   0.64302   0.35972   0.00000  Uiso   1.00
H255   H     0.54872   0.57999   0.18550   0.00000  Uiso   1.00
H256   H     0.59139   0.75225   0.35552   0.00000  Uiso   1.00
H257   H     0.50971   0.60424   0.53003   0.00000  Uiso   1.00
H258   H     0.56280   0.49849   0.00517   0.00000  Uiso   1.00
H259   H     0.65275   0.86173   0.36368   0.00000  Uiso   1.00
H260   H     0.48052   0.54961   0.73168   0.00000  Uiso   1.00
H261   H     0.70928   0.55347   0.45868   0.00000  Uiso   1.00
H262   H     0.71232   0.48551   0.28989   0.00000  Uiso   1.00
H263   H     0.75499   0.65778   0.45990   0.00000  Uiso   1.00
H264   H     0.67331   0.50977   0.63441   0.00000  Uiso   1.00
H265   H     0.69558   0.42182   0.08989   0.00000  Uiso   1.00
H266   H     0.78553   0.78506   0.44841   0.00000  Uiso   1.00
H267   H     0.61331   0.47293   0.81640   0.00000  Uiso   1.00
O268   O     0.62840   0.41708   0.93469   0.00000  Uiso   1.00
O269   O     0.74641   0.89364   0.40507   0.00000  Uiso   1.00
O270   O     0.52045   0.48414   0.88786   0.00000  Uiso   1.00
N271   N     0.59362   0.48976   0.04828   0.00000  Uiso   1.00
N272   N     0.67773   0.82937   0.38346   0.00000  Uiso   1.00
N273   N     0.51671   0.53758   0.72751   0.00000  Uiso   1.00
N274   N     0.66508   0.44850   0.09387   0.00000  Uiso   1.00
N275   N     0.74918   0.78811   0.42905   0.00000  Uiso   1.00
N276   N     0.58816   0.49632   0.77310   0.00000  Uiso   1.00
C277   C     0.58972   0.87750   0.11761   0.00000  Uiso   1.00
C278   C     0.60826   0.92417   0.19854   0.00000  Uiso   1.00
C279   C     0.58404   0.94042   0.29198   0.00000  Uiso   1.00
C280   C     0.60711   0.98402   0.35537   0.00000  Uiso   1.00
C281   C     0.62895   0.05245   0.48549   0.00000  Uiso   1.00
C282   C     0.63144   0.83057   0.10618   0.00000  Uiso   1.00
C283   C     0.62671   0.76813   0.12196   0.00000  Uiso   1.00
C284   C     0.66929   0.73293   0.10758   0.00000  Uiso   1.00
C285   C     0.72712   0.65605   0.09423   0.00000  Uiso   1.00
C286   C     0.58706   0.91100   0.01137   0.00000  Uiso   1.00
C287   C     0.54502   0.91616   0.94741   0.00000  Uiso   1.00
C288   C     0.55025   0.94867   0.85319   0.00000  Uiso   1.00
C289   C     0.53917   0.99666   0.69264   0.00000  Uiso   1.00
C290   C     0.67375   0.92602   0.06399   0.00000  Uiso   1.00
C291   C     0.65390   0.95052   0.16941   0.00000  Uiso   1.00
C292   C     0.67701   0.99410   0.23267   0.00000  Uiso   1.00
C293   C     0.65283   0.01042   0.32619   0.00000  Uiso   1.00
C294   C     0.67708   0.85692   0.07706   0.00000  Uiso   1.00
C295   C     0.71968   0.82181   0.06264   0.00000  Uiso   1.00
C296   C     0.71502   0.75933   0.07840   0.00000  Uiso   1.00
C297   C     0.63270   0.93735   0.98225   0.00000  Uiso   1.00
C298   C     0.63799   0.96985   0.88810   0.00000  Uiso   1.00
C299   C     0.59597   0.97507   0.82402   0.00000  Uiso   1.00
H300   H     0.55419   0.85698   0.14028   0.00000  Uiso   1.00
H301   H     0.54872   0.92001   0.31450   0.00000  Uiso   1.00
H302   H     0.59139   0.74775   0.14448   0.00000  Uiso   1.00
H303   H     0.50971   0.89576   0.96997   0.00000  Uiso   1.00
H304   H     0.56280   0.00151   0.49483   0.00000  Uiso   1.00
H305   H     0.65275   0.63827   0.13632   0.00000  Uiso   1.00
H306   H     0.48052   0.95039   0.76832   0.00000  Uiso   1.00
H307   H     0.70928   0.94653   0.04132   0.00000  Uiso   1.00
H308   H     0.71232   0.01449   0.21011   0.00000  Uiso   1.00
H309   H     0.75499   0.84222   0.04010   0.00000  Uiso   1.00
H310   H     0.67331   0.99023   0.86559   0.00000  Uiso   1.00
H311   H     0.69558   0.07818   0.41011   0.00000  Uiso   1.00
H312   H     0.78553   0.71494   0.05159   0.00000  Uiso   1.00
H313   H     0.61331   0.02707   0.68360   0.00000  Uiso   1.00
O314   O     0.62840   0.08292   0.56531   0.00000  Uiso   1.00
O315   O     0.74641   0.60636   0.09493   0.00000  Uiso   1.00
O316   O     0.52045   0.01586   0.61214   0.00000  Uiso   1.00
N317   N     0.59362   0.01024   0.45172   0.00000  Uiso   1.00
N318   N     0.67773   0.67063   0.11654   0.00000  Uiso   1.00
N319   N     0.51671   0.96242   0.77249   0.00000  Uiso   1.00
N320   N     0.66508   0.05150   0.40613   0.00000  Uiso   1.00
N321   N     0.74918   0.71189   0.07095   0.00000  Uiso   1.00
N322   N     0.58816   0.00368   0.72690   0.00000  Uiso   1.00
C323   C     0.91028   0.12250   0.11761   0.00000  Uiso   1.00
C324   C     0.89174   0.07583   0.19854   0.00000  Uiso   1.00
C325   C     0.91596   0.05958   0.29198   0.00000  Uiso   1.00
C326   C     0.89289   0.01598   0.35537   0.00000  Uiso   1.00
C327   C     0.87105   0.94755   0.48549   0.00000  Uiso   1.00
C328   C     0.86856   0.16943   0.10618   0.00000  Uiso   1.00
C329   C     0.87329   0.23187   0.12196   0.00000  Uiso   1.00
C330   C     0.83071   0.26707   0.10758   0.00000  Uiso   1.00
C331   C     0.77288   0.34395   0.09423   0.00000  Uiso   1.00
C332   C     0.91294   0.08900   0.01137   0.00000  Uiso   1.00
C333   C     0.95498   0.08384   0.94741   0.00000  Uiso   1.00
C334   C     0.94975   0.05133   0.85319   0.00000  Uiso   1.00
C335   C     0.96083   0.00334   0.69264   0.00000  Uiso   1.00
C336   C     0.82625   0.07398   0.06399   0.00000  Uiso   1.00
C337   C     0.84610   0.04948   0.16941   0.00000  Uiso   1.00
C338   C     0.82299   0.00590   0.23267   0.00000  Uiso   1.00
C339   C     0.84717   0.98958   0.32619   0.00000  Uiso   1.00
C340   C     0.82292   0.14308   0.07706   0.00000  Uiso   1.00
C341   C     0.78032   0.17819   0.06264   0.00000  Uiso   1.00
C342   C     0.78498   0.24067   0.07840   0.00000  Uiso   1.00
C343   C     0.86730   0.06265   0.98225   0.00000  Uiso   1.00
C344   C     0.86201   0.03015   0.88810   0.00000  Uiso   1.00
C345   C     0.90403   0.02493   0.82402   0.00000  Uiso   1.00
H346   H     0.94581   0.14302   0.14028   0.00000  Uiso   1.00
H347   H     0.95128   0.07999   0.31450   0.00000  Uiso   1.00
H348   H     0.90861   0.25225   0.14448   0.00000  Uiso   1.00
H349   H     0.99029   0.10424   0.96997   0.00000  Uiso   1.00
H350   H     0.93720   0.99849   0.49483   0.00000  Uiso   1.00
H351   H     0.84725   0.36173   0.13632   0.00000  Uiso   1.00
H352   H     0.01948   0.04961   0.76832   0.00000  Uiso   1.00
H353   H     0.79072   0.05347   0.04132   0.00000  Uiso   1.00
H354   H     0.78768   0.98551   0.21011   0.00000  Uiso   1.00
H355   H     0.74501   0.15778   0.04010   0.00000  Uiso   1.00
H356   H     0.82669   0.00977   0.86559   0.00000  Uiso   1.00
H357   H     0.80442   0.92182   0.41011   0.00000  Uiso   1.00
H358   H     0.71447   0.28506   0.05159   0.00000  Uiso   1.00
H359   H     0.88669   0.97293   0.68360   0.00000  Uiso   1.00
O360   O     0.87160   0.91708   0.56531   0.00000  Uiso   1.00
O361   O     0.75359   0.39364   0.09493   0.00000  Uiso   1.00
O362   O     0.97955   0.98414   0.61214   0.00000  Uiso   1.00
N363   N     0.90638   0.98976   0.45172   0.00000  Uiso   1.00
N364   N     0.82227   0.32937   0.11654   0.00000  Uiso   1.00
N365   N     0.98329   0.03758   0.77249   0.00000  Uiso   1.00
N366   N     0.83492   0.94850   0.40613   0.00000  Uiso   1.00
N367   N     0.75082   0.28811   0.07095   0.00000  Uiso   1.00
N368   N     0.91184   0.99632   0.72690   0.00000  Uiso   1.00
