data_job_03567
_audit_creation_date              2018-12-19
_audit_creation_method            'Materials Studio'
_symmetry_space_group_name_H-M    'P1'
_symmetry_Int_Tables_number       1
_symmetry_cell_setting            triclinic
loop_
_symmetry_equiv_pos_as_xyz
  x,y,z
_cell_length_a                    19.9047
_cell_length_b                    12.9214
_cell_length_c                    28.1122
_cell_angle_alpha                 90.0000
_cell_angle_beta                  102.3720
_cell_angle_gamma                 90.0000
loop_
_atom_site_label
_atom_site_type_symbol
_atom_site_fract_x
_atom_site_fract_y
_atom_site_fract_z
_atom_site_U_iso_or_equiv
_atom_site_adp_type
_atom_site_occupancy
C1     C     0.34335   0.14420   0.66778   0.00000  Uiso   1.00
C2     C     0.27573   0.18082   0.63580   0.00000  Uiso   1.00
C3     C     0.21324   0.12924   0.62899   0.00000  Uiso   1.00
C4     C     0.15737   0.17550   0.59829   0.00000  Uiso   1.00
C5     C     0.05140   0.21796   0.55212   0.00000  Uiso   1.00
C6     C     0.39478   0.13931   0.63469   0.00000  Uiso   1.00
C7     C     0.43239   0.05283   0.62696   0.00000  Uiso   1.00
C8     C     0.47674   0.06416   0.59533   0.00000  Uiso   1.00
C9     C     0.55563   0.04221   0.54745   0.00000  Uiso   1.00
C10    C     0.36770   0.23163   0.70378   0.00000  Uiso   1.00
C11    C     0.38257   0.22277   0.75415   0.00000  Uiso   1.00
C12    C     0.40413   0.31182   0.78069   0.00000  Uiso   1.00
C13    C     0.44098   0.43320   0.84010   0.00000  Uiso   1.00
C14    C     0.35524   0.31809   0.62536   0.00000  Uiso   1.00
C15    C     0.28219   0.27527   0.61275   0.00000  Uiso   1.00
C16    C     0.22640   0.32162   0.58206   0.00000  Uiso   1.00
C17    C     0.16384   0.27012   0.57521   0.00000  Uiso   1.00
C18    C     0.40124   0.23376   0.61164   0.00000  Uiso   1.00
C19    C     0.44555   0.24522   0.58002   0.00000  Uiso   1.00
C20    C     0.48321   0.15878   0.57224   0.00000  Uiso   1.00
C21    C     0.37416   0.32608   0.68074   0.00000  Uiso   1.00
C22    C     0.39572   0.41516   0.70721   0.00000  Uiso   1.00
C23    C     0.41061   0.40644   0.75761   0.00000  Uiso   1.00
H24    H     0.33833   0.07067   0.68572   0.00000  Uiso   1.00
H25    H     0.20827   0.05614   0.64683   0.00000  Uiso   1.00
H26    H     0.42739   0.97976   0.64480   0.00000  Uiso   1.00
H27    H     0.37756   0.14967   0.77197   0.00000  Uiso   1.00
H28    H     0.06692   0.08167   0.59354   0.00000  Uiso   1.00
H29    H     0.52897   0.92062   0.58926   0.00000  Uiso   1.00
H30    H     0.42391   0.27890   0.85743   0.00000  Uiso   1.00
H31    H     0.36027   0.39162   0.60742   0.00000  Uiso   1.00
H32    H     0.23141   0.39471   0.56423   0.00000  Uiso   1.00
H33    H     0.45054   0.31832   0.56220   0.00000  Uiso   1.00
H34    H     0.40071   0.48823   0.68937   0.00000  Uiso   1.00
H35    H     0.08571   0.35646   0.52650   0.00000  Uiso   1.00
H36    H     0.54776   0.19541   0.52223   0.00000  Uiso   1.00
H37    H     0.44269   0.55370   0.79039   0.00000  Uiso   1.00
O38    O     0.99116   0.21529   0.53301   0.00000  Uiso   1.00
O39    O     0.59735   0.00400   0.52741   0.00000  Uiso   1.00
O40    O     0.45951   0.47406   0.87924   0.00000  Uiso   1.00
N41    N     0.08903   0.14593   0.58369   0.00000  Uiso   1.00
N42    N     0.52100   0.99535   0.57969   0.00000  Uiso   1.00
N43    N     0.42280   0.33031   0.83041   0.00000  Uiso   1.00
N44    N     0.09914   0.29379   0.54762   0.00000  Uiso   1.00
N45    N     0.53111   0.14321   0.54362   0.00000  Uiso   1.00
N46    N     0.43290   0.47818   0.79433   0.00000  Uiso   1.00
C47    C     0.84335   0.64420   0.66778   0.00000  Uiso   1.00
C48    C     0.77573   0.68082   0.63580   0.00000  Uiso   1.00
C49    C     0.71324   0.62924   0.62899   0.00000  Uiso   1.00
C50    C     0.65737   0.67550   0.59829   0.00000  Uiso   1.00
C51    C     0.55140   0.71796   0.55212   0.00000  Uiso   1.00
C52    C     0.89478   0.63931   0.63469   0.00000  Uiso   1.00
C53    C     0.93239   0.55283   0.62696   0.00000  Uiso   1.00
C54    C     0.97674   0.56416   0.59533   0.00000  Uiso   1.00
C55    C     0.05563   0.54221   0.54745   0.00000  Uiso   1.00
C56    C     0.86770   0.73163   0.70378   0.00000  Uiso   1.00
C57    C     0.88257   0.72277   0.75415   0.00000  Uiso   1.00
C58    C     0.90413   0.81182   0.78069   0.00000  Uiso   1.00
C59    C     0.94098   0.93320   0.84010   0.00000  Uiso   1.00
C60    C     0.85524   0.81809   0.62536   0.00000  Uiso   1.00
C61    C     0.78219   0.77527   0.61275   0.00000  Uiso   1.00
C62    C     0.72640   0.82162   0.58206   0.00000  Uiso   1.00
C63    C     0.66384   0.77012   0.57521   0.00000  Uiso   1.00
C64    C     0.90124   0.73376   0.61164   0.00000  Uiso   1.00
C65    C     0.94555   0.74522   0.58002   0.00000  Uiso   1.00
C66    C     0.98321   0.65878   0.57224   0.00000  Uiso   1.00
C67    C     0.87416   0.82608   0.68074   0.00000  Uiso   1.00
C68    C     0.89572   0.91516   0.70721   0.00000  Uiso   1.00
C69    C     0.91061   0.90644   0.75761   0.00000  Uiso   1.00
H70    H     0.83833   0.57067   0.68572   0.00000  Uiso   1.00
H71    H     0.70827   0.55614   0.64683   0.00000  Uiso   1.00
H72    H     0.92739   0.47976   0.64480   0.00000  Uiso   1.00
H73    H     0.87756   0.64967   0.77197   0.00000  Uiso   1.00
H74    H     0.56692   0.58167   0.59354   0.00000  Uiso   1.00
H75    H     0.02897   0.42062   0.58926   0.00000  Uiso   1.00
H76    H     0.92391   0.77890   0.85743   0.00000  Uiso   1.00
H77    H     0.86027   0.89162   0.60742   0.00000  Uiso   1.00
H78    H     0.73141   0.89471   0.56423   0.00000  Uiso   1.00
H79    H     0.95054   0.81832   0.56220   0.00000  Uiso   1.00
H80    H     0.90071   0.98823   0.68937   0.00000  Uiso   1.00
H81    H     0.58571   0.85646   0.52650   0.00000  Uiso   1.00
H82    H     0.04776   0.69541   0.52223   0.00000  Uiso   1.00
H83    H     0.94269   0.05370   0.79039   0.00000  Uiso   1.00
O84    O     0.49116   0.71529   0.53301   0.00000  Uiso   1.00
O85    O     0.09735   0.50400   0.52741   0.00000  Uiso   1.00
O86    O     0.95951   0.97406   0.87924   0.00000  Uiso   1.00
N87    N     0.58903   0.64593   0.58369   0.00000  Uiso   1.00
N88    N     0.02100   0.49535   0.57969   0.00000  Uiso   1.00
N89    N     0.92280   0.83031   0.83041   0.00000  Uiso   1.00
N90    N     0.59914   0.79379   0.54762   0.00000  Uiso   1.00
N91    N     0.03111   0.64321   0.54362   0.00000  Uiso   1.00
N92    N     0.93290   0.97818   0.79433   0.00000  Uiso   1.00
C93    C     0.65665   0.14420   0.83222   0.00000  Uiso   1.00
C94    C     0.72427   0.18082   0.86420   0.00000  Uiso   1.00
C95    C     0.78676   0.12924   0.87101   0.00000  Uiso   1.00
C96    C     0.84263   0.17550   0.90171   0.00000  Uiso   1.00
C97    C     0.94860   0.21796   0.94788   0.00000  Uiso   1.00
C98    C     0.60522   0.13931   0.86531   0.00000  Uiso   1.00
C99    C     0.56761   0.05283   0.87304   0.00000  Uiso   1.00
C100   C     0.52326   0.06416   0.90467   0.00000  Uiso   1.00
C101   C     0.44437   0.04221   0.95255   0.00000  Uiso   1.00
C102   C     0.63230   0.23163   0.79622   0.00000  Uiso   1.00
C103   C     0.61743   0.22277   0.74585   0.00000  Uiso   1.00
C104   C     0.59587   0.31182   0.71931   0.00000  Uiso   1.00
C105   C     0.55902   0.43320   0.65990   0.00000  Uiso   1.00
C106   C     0.64476   0.31809   0.87464   0.00000  Uiso   1.00
C107   C     0.71781   0.27527   0.88725   0.00000  Uiso   1.00
C108   C     0.77360   0.32162   0.91794   0.00000  Uiso   1.00
C109   C     0.83616   0.27012   0.92479   0.00000  Uiso   1.00
C110   C     0.59876   0.23376   0.88836   0.00000  Uiso   1.00
C111   C     0.55445   0.24522   0.91998   0.00000  Uiso   1.00
C112   C     0.51679   0.15878   0.92776   0.00000  Uiso   1.00
C113   C     0.62584   0.32608   0.81926   0.00000  Uiso   1.00
C114   C     0.60428   0.41516   0.79279   0.00000  Uiso   1.00
C115   C     0.58939   0.40644   0.74239   0.00000  Uiso   1.00
H116   H     0.66167   0.07067   0.81428   0.00000  Uiso   1.00
H117   H     0.79173   0.05614   0.85317   0.00000  Uiso   1.00
H118   H     0.57261   0.97976   0.85520   0.00000  Uiso   1.00
H119   H     0.62244   0.14967   0.72803   0.00000  Uiso   1.00
H120   H     0.93308   0.08167   0.90646   0.00000  Uiso   1.00
H121   H     0.47103   0.92062   0.91074   0.00000  Uiso   1.00
H122   H     0.57609   0.27890   0.64257   0.00000  Uiso   1.00
H123   H     0.63973   0.39162   0.89258   0.00000  Uiso   1.00
H124   H     0.76859   0.39471   0.93577   0.00000  Uiso   1.00
H125   H     0.54946   0.31832   0.93780   0.00000  Uiso   1.00
H126   H     0.59929   0.48823   0.81063   0.00000  Uiso   1.00
H127   H     0.91429   0.35646   0.97350   0.00000  Uiso   1.00
H128   H     0.45224   0.19541   0.97777   0.00000  Uiso   1.00
H129   H     0.55731   0.55370   0.70961   0.00000  Uiso   1.00
O130   O     0.00884   0.21529   0.96699   0.00000  Uiso   1.00
O131   O     0.40265   0.00400   0.97259   0.00000  Uiso   1.00
O132   O     0.54049   0.47406   0.62076   0.00000  Uiso   1.00
N133   N     0.91097   0.14593   0.91631   0.00000  Uiso   1.00
N134   N     0.47900   0.99535   0.92031   0.00000  Uiso   1.00
N135   N     0.57720   0.33031   0.66959   0.00000  Uiso   1.00
N136   N     0.90086   0.29379   0.95238   0.00000  Uiso   1.00
N137   N     0.46889   0.14321   0.95638   0.00000  Uiso   1.00
N138   N     0.56710   0.47818   0.70567   0.00000  Uiso   1.00
C139   C     0.15665   0.64420   0.83222   0.00000  Uiso   1.00
C140   C     0.22427   0.68082   0.86420   0.00000  Uiso   1.00
C141   C     0.28676   0.62924   0.87101   0.00000  Uiso   1.00
C142   C     0.34263   0.67550   0.90171   0.00000  Uiso   1.00
C143   C     0.44860   0.71796   0.94788   0.00000  Uiso   1.00
C144   C     0.10522   0.63931   0.86531   0.00000  Uiso   1.00
C145   C     0.06761   0.55283   0.87304   0.00000  Uiso   1.00
C146   C     0.02326   0.56416   0.90467   0.00000  Uiso   1.00
C147   C     0.94437   0.54221   0.95255   0.00000  Uiso   1.00
C148   C     0.13230   0.73163   0.79622   0.00000  Uiso   1.00
C149   C     0.11743   0.72277   0.74585   0.00000  Uiso   1.00
C150   C     0.09587   0.81182   0.71931   0.00000  Uiso   1.00
C151   C     0.05902   0.93320   0.65990   0.00000  Uiso   1.00
C152   C     0.14476   0.81809   0.87464   0.00000  Uiso   1.00
C153   C     0.21781   0.77527   0.88725   0.00000  Uiso   1.00
C154   C     0.27360   0.82162   0.91794   0.00000  Uiso   1.00
C155   C     0.33616   0.77012   0.92479   0.00000  Uiso   1.00
C156   C     0.09876   0.73376   0.88836   0.00000  Uiso   1.00
C157   C     0.05445   0.74522   0.91998   0.00000  Uiso   1.00
C158   C     0.01679   0.65878   0.92776   0.00000  Uiso   1.00
C159   C     0.12584   0.82608   0.81926   0.00000  Uiso   1.00
C160   C     0.10428   0.91516   0.79279   0.00000  Uiso   1.00
C161   C     0.08939   0.90644   0.74239   0.00000  Uiso   1.00
H162   H     0.16167   0.57067   0.81428   0.00000  Uiso   1.00
H163   H     0.29173   0.55614   0.85317   0.00000  Uiso   1.00
H164   H     0.07261   0.47976   0.85520   0.00000  Uiso   1.00
H165   H     0.12244   0.64967   0.72803   0.00000  Uiso   1.00
H166   H     0.43308   0.58167   0.90646   0.00000  Uiso   1.00
H167   H     0.97103   0.42062   0.91074   0.00000  Uiso   1.00
H168   H     0.07609   0.77890   0.64257   0.00000  Uiso   1.00
H169   H     0.13973   0.89162   0.89258   0.00000  Uiso   1.00
H170   H     0.26859   0.89471   0.93577   0.00000  Uiso   1.00
H171   H     0.04946   0.81832   0.93780   0.00000  Uiso   1.00
H172   H     0.09929   0.98823   0.81063   0.00000  Uiso   1.00
H173   H     0.41429   0.85646   0.97350   0.00000  Uiso   1.00
H174   H     0.95224   0.69541   0.97777   0.00000  Uiso   1.00
H175   H     0.05731   0.05370   0.70961   0.00000  Uiso   1.00
O176   O     0.50884   0.71529   0.96699   0.00000  Uiso   1.00
O177   O     0.90265   0.50400   0.97259   0.00000  Uiso   1.00
O178   O     0.04049   0.97406   0.62076   0.00000  Uiso   1.00
N179   N     0.41097   0.64593   0.91631   0.00000  Uiso   1.00
N180   N     0.97900   0.49535   0.92031   0.00000  Uiso   1.00
N181   N     0.07720   0.83031   0.66959   0.00000  Uiso   1.00
N182   N     0.40086   0.79379   0.95238   0.00000  Uiso   1.00
N183   N     0.96889   0.64321   0.95638   0.00000  Uiso   1.00
N184   N     0.06710   0.97818   0.70567   0.00000  Uiso   1.00
C185   C     0.65665   0.85580   0.33222   0.00000  Uiso   1.00
C186   C     0.72427   0.81918   0.36420   0.00000  Uiso   1.00
C187   C     0.78676   0.87076   0.37101   0.00000  Uiso   1.00
C188   C     0.84263   0.82450   0.40171   0.00000  Uiso   1.00
C189   C     0.94860   0.78204   0.44788   0.00000  Uiso   1.00
C190   C     0.60522   0.86069   0.36531   0.00000  Uiso   1.00
C191   C     0.56761   0.94717   0.37304   0.00000  Uiso   1.00
C192   C     0.52326   0.93584   0.40467   0.00000  Uiso   1.00
C193   C     0.44437   0.95779   0.45255   0.00000  Uiso   1.00
C194   C     0.63230   0.76837   0.29622   0.00000  Uiso   1.00
C195   C     0.61743   0.77723   0.24585   0.00000  Uiso   1.00
C196   C     0.59587   0.68818   0.21931   0.00000  Uiso   1.00
C197   C     0.55902   0.56680   0.15990   0.00000  Uiso   1.00
C198   C     0.64476   0.68191   0.37464   0.00000  Uiso   1.00
C199   C     0.71781   0.72473   0.38725   0.00000  Uiso   1.00
C200   C     0.77360   0.67838   0.41794   0.00000  Uiso   1.00
C201   C     0.83616   0.72988   0.42479   0.00000  Uiso   1.00
C202   C     0.59876   0.76624   0.38836   0.00000  Uiso   1.00
C203   C     0.55445   0.75478   0.41998   0.00000  Uiso   1.00
C204   C     0.51679   0.84122   0.42776   0.00000  Uiso   1.00
C205   C     0.62584   0.67392   0.31926   0.00000  Uiso   1.00
C206   C     0.60428   0.58484   0.29279   0.00000  Uiso   1.00
C207   C     0.58939   0.59356   0.24239   0.00000  Uiso   1.00
H208   H     0.66167   0.92933   0.31428   0.00000  Uiso   1.00
H209   H     0.79173   0.94386   0.35317   0.00000  Uiso   1.00
H210   H     0.57261   0.02024   0.35520   0.00000  Uiso   1.00
H211   H     0.62244   0.85033   0.22803   0.00000  Uiso   1.00
H212   H     0.93308   0.91833   0.40646   0.00000  Uiso   1.00
H213   H     0.47103   0.07938   0.41074   0.00000  Uiso   1.00
H214   H     0.57609   0.72110   0.14257   0.00000  Uiso   1.00
H215   H     0.63973   0.60838   0.39258   0.00000  Uiso   1.00
H216   H     0.76859   0.60529   0.43577   0.00000  Uiso   1.00
H217   H     0.54946   0.68168   0.43780   0.00000  Uiso   1.00
H218   H     0.59929   0.51177   0.31063   0.00000  Uiso   1.00
H219   H     0.91429   0.64354   0.47350   0.00000  Uiso   1.00
H220   H     0.45224   0.80459   0.47777   0.00000  Uiso   1.00
H221   H     0.55731   0.44630   0.20961   0.00000  Uiso   1.00
O222   O     0.00884   0.78471   0.46699   0.00000  Uiso   1.00
O223   O     0.40265   0.99600   0.47259   0.00000  Uiso   1.00
O224   O     0.54049   0.52594   0.12076   0.00000  Uiso   1.00
N225   N     0.91097   0.85407   0.41631   0.00000  Uiso   1.00
N226   N     0.47900   0.00465   0.42031   0.00000  Uiso   1.00
N227   N     0.57720   0.66969   0.16959   0.00000  Uiso   1.00
N228   N     0.90086   0.70621   0.45238   0.00000  Uiso   1.00
N229   N     0.46889   0.85679   0.45638   0.00000  Uiso   1.00
N230   N     0.56710   0.52182   0.20567   0.00000  Uiso   1.00
C231   C     0.15665   0.35580   0.33222   0.00000  Uiso   1.00
C232   C     0.22427   0.31918   0.36420   0.00000  Uiso   1.00
C233   C     0.28676   0.37076   0.37101   0.00000  Uiso   1.00
C234   C     0.34263   0.32450   0.40171   0.00000  Uiso   1.00
C235   C     0.44860   0.28204   0.44788   0.00000  Uiso   1.00
C236   C     0.10522   0.36069   0.36531   0.00000  Uiso   1.00
C237   C     0.06761   0.44717   0.37304   0.00000  Uiso   1.00
C238   C     0.02326   0.43584   0.40467   0.00000  Uiso   1.00
C239   C     0.94437   0.45779   0.45255   0.00000  Uiso   1.00
C240   C     0.13230   0.26837   0.29622   0.00000  Uiso   1.00
C241   C     0.11743   0.27723   0.24585   0.00000  Uiso   1.00
C242   C     0.09587   0.18818   0.21931   0.00000  Uiso   1.00
C243   C     0.05902   0.06680   0.15990   0.00000  Uiso   1.00
C244   C     0.14476   0.18191   0.37464   0.00000  Uiso   1.00
C245   C     0.21781   0.22473   0.38725   0.00000  Uiso   1.00
C246   C     0.27360   0.17838   0.41794   0.00000  Uiso   1.00
C247   C     0.33616   0.22988   0.42479   0.00000  Uiso   1.00
C248   C     0.09876   0.26624   0.38836   0.00000  Uiso   1.00
C249   C     0.05445   0.25478   0.41998   0.00000  Uiso   1.00
C250   C     0.01679   0.34122   0.42776   0.00000  Uiso   1.00
C251   C     0.12584   0.17392   0.31926   0.00000  Uiso   1.00
C252   C     0.10428   0.08484   0.29279   0.00000  Uiso   1.00
C253   C     0.08939   0.09356   0.24239   0.00000  Uiso   1.00
H254   H     0.16167   0.42933   0.31428   0.00000  Uiso   1.00
H255   H     0.29173   0.44386   0.35317   0.00000  Uiso   1.00
H256   H     0.07261   0.52024   0.35520   0.00000  Uiso   1.00
H257   H     0.12244   0.35033   0.22803   0.00000  Uiso   1.00
H258   H     0.43308   0.41833   0.40646   0.00000  Uiso   1.00
H259   H     0.97103   0.57938   0.41074   0.00000  Uiso   1.00
H260   H     0.07609   0.22110   0.14257   0.00000  Uiso   1.00
H261   H     0.13973   0.10838   0.39258   0.00000  Uiso   1.00
H262   H     0.26859   0.10529   0.43577   0.00000  Uiso   1.00
H263   H     0.04946   0.18168   0.43780   0.00000  Uiso   1.00
H264   H     0.09929   0.01177   0.31063   0.00000  Uiso   1.00
H265   H     0.41429   0.14354   0.47350   0.00000  Uiso   1.00
H266   H     0.95224   0.30459   0.47777   0.00000  Uiso   1.00
H267   H     0.05731   0.94630   0.20961   0.00000  Uiso   1.00
O268   O     0.50884   0.28471   0.46699   0.00000  Uiso   1.00
O269   O     0.90265   0.49600   0.47259   0.00000  Uiso   1.00
O270   O     0.04049   0.02594   0.12076   0.00000  Uiso   1.00
N271   N     0.41097   0.35407   0.41631   0.00000  Uiso   1.00
N272   N     0.97900   0.50465   0.42031   0.00000  Uiso   1.00
N273   N     0.07720   0.16969   0.16959   0.00000  Uiso   1.00
N274   N     0.40086   0.20621   0.45238   0.00000  Uiso   1.00
N275   N     0.96889   0.35679   0.45638   0.00000  Uiso   1.00
N276   N     0.06710   0.02182   0.20567   0.00000  Uiso   1.00
C277   C     0.34335   0.85580   0.16778   0.00000  Uiso   1.00
C278   C     0.27573   0.81918   0.13580   0.00000  Uiso   1.00
C279   C     0.21324   0.87076   0.12899   0.00000  Uiso   1.00
C280   C     0.15737   0.82450   0.09829   0.00000  Uiso   1.00
C281   C     0.05140   0.78204   0.05212   0.00000  Uiso   1.00
C282   C     0.39478   0.86069   0.13469   0.00000  Uiso   1.00
C283   C     0.43239   0.94717   0.12696   0.00000  Uiso   1.00
C284   C     0.47674   0.93584   0.09533   0.00000  Uiso   1.00
C285   C     0.55563   0.95779   0.04745   0.00000  Uiso   1.00
C286   C     0.36770   0.76837   0.20378   0.00000  Uiso   1.00
C287   C     0.38257   0.77723   0.25415   0.00000  Uiso   1.00
C288   C     0.40413   0.68818   0.28069   0.00000  Uiso   1.00
C289   C     0.44098   0.56680   0.34010   0.00000  Uiso   1.00
C290   C     0.35524   0.68191   0.12536   0.00000  Uiso   1.00
C291   C     0.28219   0.72473   0.11275   0.00000  Uiso   1.00
C292   C     0.22640   0.67838   0.08206   0.00000  Uiso   1.00
C293   C     0.16384   0.72988   0.07521   0.00000  Uiso   1.00
C294   C     0.40124   0.76624   0.11164   0.00000  Uiso   1.00
C295   C     0.44555   0.75478   0.08002   0.00000  Uiso   1.00
C296   C     0.48321   0.84122   0.07224   0.00000  Uiso   1.00
C297   C     0.37416   0.67392   0.18074   0.00000  Uiso   1.00
C298   C     0.39572   0.58484   0.20721   0.00000  Uiso   1.00
C299   C     0.41061   0.59356   0.25761   0.00000  Uiso   1.00
H300   H     0.33833   0.92933   0.18572   0.00000  Uiso   1.00
H301   H     0.20827   0.94386   0.14683   0.00000  Uiso   1.00
H302   H     0.42739   0.02024   0.14480   0.00000  Uiso   1.00
H303   H     0.37756   0.85033   0.27197   0.00000  Uiso   1.00
H304   H     0.06692   0.91833   0.09354   0.00000  Uiso   1.00
H305   H     0.52897   0.07938   0.08926   0.00000  Uiso   1.00
H306   H     0.42391   0.72110   0.35743   0.00000  Uiso   1.00
H307   H     0.36027   0.60838   0.10742   0.00000  Uiso   1.00
H308   H     0.23141   0.60529   0.06423   0.00000  Uiso   1.00
H309   H     0.45054   0.68168   0.06220   0.00000  Uiso   1.00
H310   H     0.40071   0.51177   0.18937   0.00000  Uiso   1.00
H311   H     0.08571   0.64354   0.02650   0.00000  Uiso   1.00
H312   H     0.54776   0.80459   0.02223   0.00000  Uiso   1.00
H313   H     0.44269   0.44630   0.29039   0.00000  Uiso   1.00
O314   O     0.99116   0.78471   0.03301   0.00000  Uiso   1.00
O315   O     0.59735   0.99600   0.02741   0.00000  Uiso   1.00
O316   O     0.45951   0.52594   0.37924   0.00000  Uiso   1.00
N317   N     0.08903   0.85407   0.08369   0.00000  Uiso   1.00
N318   N     0.52100   0.00465   0.07969   0.00000  Uiso   1.00
N319   N     0.42280   0.66969   0.33041   0.00000  Uiso   1.00
N320   N     0.09914   0.70621   0.04762   0.00000  Uiso   1.00
N321   N     0.53111   0.85679   0.04362   0.00000  Uiso   1.00
N322   N     0.43290   0.52182   0.29433   0.00000  Uiso   1.00
C323   C     0.84335   0.35580   0.16778   0.00000  Uiso   1.00
C324   C     0.77573   0.31918   0.13580   0.00000  Uiso   1.00
C325   C     0.71324   0.37076   0.12899   0.00000  Uiso   1.00
C326   C     0.65737   0.32450   0.09829   0.00000  Uiso   1.00
C327   C     0.55140   0.28204   0.05212   0.00000  Uiso   1.00
C328   C     0.89478   0.36069   0.13469   0.00000  Uiso   1.00
C329   C     0.93239   0.44717   0.12696   0.00000  Uiso   1.00
C330   C     0.97674   0.43584   0.09533   0.00000  Uiso   1.00
C331   C     0.05563   0.45779   0.04745   0.00000  Uiso   1.00
C332   C     0.86770   0.26837   0.20378   0.00000  Uiso   1.00
C333   C     0.88257   0.27723   0.25415   0.00000  Uiso   1.00
C334   C     0.90413   0.18818   0.28069   0.00000  Uiso   1.00
C335   C     0.94098   0.06680   0.34010   0.00000  Uiso   1.00
C336   C     0.85524   0.18191   0.12536   0.00000  Uiso   1.00
C337   C     0.78219   0.22473   0.11275   0.00000  Uiso   1.00
C338   C     0.72640   0.17838   0.08206   0.00000  Uiso   1.00
C339   C     0.66384   0.22988   0.07521   0.00000  Uiso   1.00
C340   C     0.90124   0.26624   0.11164   0.00000  Uiso   1.00
C341   C     0.94555   0.25478   0.08002   0.00000  Uiso   1.00
C342   C     0.98321   0.34122   0.07224   0.00000  Uiso   1.00
C343   C     0.87416   0.17392   0.18074   0.00000  Uiso   1.00
C344   C     0.89572   0.08484   0.20721   0.00000  Uiso   1.00
C345   C     0.91061   0.09356   0.25761   0.00000  Uiso   1.00
H346   H     0.83833   0.42933   0.18572   0.00000  Uiso   1.00
H347   H     0.70827   0.44386   0.14683   0.00000  Uiso   1.00
H348   H     0.92739   0.52024   0.14480   0.00000  Uiso   1.00
H349   H     0.87756   0.35033   0.27197   0.00000  Uiso   1.00
H350   H     0.56692   0.41833   0.09354   0.00000  Uiso   1.00
H351   H     0.02897   0.57938   0.08926   0.00000  Uiso   1.00
H352   H     0.92391   0.22110   0.35743   0.00000  Uiso   1.00
H353   H     0.86027   0.10838   0.10742   0.00000  Uiso   1.00
H354   H     0.73141   0.10529   0.06423   0.00000  Uiso   1.00
H355   H     0.95054   0.18168   0.06220   0.00000  Uiso   1.00
H356   H     0.90071   0.01177   0.18937   0.00000  Uiso   1.00
H357   H     0.58571   0.14354   0.02650   0.00000  Uiso   1.00
H358   H     0.04776   0.30459   0.02223   0.00000  Uiso   1.00
H359   H     0.94269   0.94630   0.29039   0.00000  Uiso   1.00
O360   O     0.49116   0.28471   0.03301   0.00000  Uiso   1.00
O361   O     0.09735   0.49600   0.02741   0.00000  Uiso   1.00
O362   O     0.95951   0.02594   0.37924   0.00000  Uiso   1.00
N363   N     0.58903   0.35407   0.08369   0.00000  Uiso   1.00
N364   N     0.02100   0.50465   0.07969   0.00000  Uiso   1.00
N365   N     0.92280   0.16969   0.33041   0.00000  Uiso   1.00
N366   N     0.59914   0.20621   0.04762   0.00000  Uiso   1.00
N367   N     0.03111   0.35679   0.04362   0.00000  Uiso   1.00
N368   N     0.93290   0.02182   0.29433   0.00000  Uiso   1.00
