data_job_04170
_audit_creation_date              2018-12-19
_audit_creation_method            'Materials Studio'
_symmetry_space_group_name_H-M    'P1'
_symmetry_Int_Tables_number       1
_symmetry_cell_setting            triclinic
loop_
_symmetry_equiv_pos_as_xyz
  x,y,z
_cell_length_a                    10.9927
_cell_length_b                    12.5438
_cell_length_c                    13.1805
_cell_angle_alpha                 95.2674
_cell_angle_beta                  85.8394
_cell_angle_gamma                 68.1593
loop_
_atom_site_label
_atom_site_type_symbol
_atom_site_fract_x
_atom_site_fract_y
_atom_site_fract_z
_atom_site_U_iso_or_equiv
_atom_site_adp_type
_atom_site_occupancy
C1     C     0.28575   0.72738   0.21117   0.00000  Uiso   1.00
C2     C     0.28096   0.65975   0.30077   0.00000  Uiso   1.00
C3     C     0.20510   0.59363   0.31228   0.00000  Uiso   1.00
C4     C     0.21451   0.53844   0.39969   0.00000  Uiso   1.00
C5     C     0.19450   0.43185   0.52771   0.00000  Uiso   1.00
C6     C     0.24985   0.85243   0.25818   0.00000  Uiso   1.00
C7     C     0.14783   0.94830   0.23387   0.00000  Uiso   1.00
C8     C     0.13106   0.05532   0.28541   0.00000  Uiso   1.00
C9     C     0.06280   0.24787   0.34725   0.00000  Uiso   1.00
C10    C     0.43035   0.68340   0.16691   0.00000  Uiso   1.00
C11    C     0.48011   0.63718   0.06585   0.00000  Uiso   1.00
C12    C     0.61532   0.60190   0.04055   0.00000  Uiso   1.00
C13    C     0.82732   0.53201   0.96068   0.00000  Uiso   1.00
C14    C     0.43739   0.74696   0.34592   0.00000  Uiso   1.00
C15    C     0.36333   0.67038   0.37396   0.00000  Uiso   1.00
C16    C     0.37287   0.61528   0.46137   0.00000  Uiso   1.00
C17    C     0.29703   0.54908   0.47301   0.00000  Uiso   1.00
C18    C     0.33220   0.86306   0.33137   0.00000  Uiso   1.00
C19    C     0.31560   0.96996   0.38296   0.00000  Uiso   1.00
C20    C     0.21357   0.06597   0.35874   0.00000  Uiso   1.00
C21    C     0.51272   0.69402   0.24010   0.00000  Uiso   1.00
C22    C     0.64788   0.65883   0.21495   0.00000  Uiso   1.00
C23    C     0.69783   0.61256   0.11387   0.00000  Uiso   1.00
H24    H     0.22163   0.71911   0.15418   0.00000  Uiso   1.00
H25    H     0.14136   0.58543   0.25562   0.00000  Uiso   1.00
H26    H     0.08411   0.94005   0.17722   0.00000  Uiso   1.00
H27    H     0.41634   0.62897   0.00923   0.00000  Uiso   1.00
H28    H     0.08866   0.44194   0.40039   0.00000  Uiso   1.00
H29    H     0.96797   0.18968   0.23503   0.00000  Uiso   1.00
H30    H     0.66854   0.53370   0.88080   0.00000  Uiso   1.00
H31    H     0.50152   0.75524   0.40291   0.00000  Uiso   1.00
H32    H     0.43661   0.62352   0.51800   0.00000  Uiso   1.00
H33    H     0.37936   0.97815   0.43959   0.00000  Uiso   1.00
H34    H     0.71159   0.66706   0.27161   0.00000  Uiso   1.00
H35    H     0.32829   0.47286   0.61335   0.00000  Uiso   1.00
H36    H     0.20760   0.22061   0.44799   0.00000  Uiso   1.00
H37    H     0.90818   0.56462   0.09376   0.00000  Uiso   1.00
O38    O     0.16069   0.37013   0.57811   0.00000  Uiso   1.00
O39    O     0.00237   0.35115   0.36115   0.00000  Uiso   1.00
O40    O     0.92150   0.49051   0.89641   0.00000  Uiso   1.00
N41    N     0.15398   0.46727   0.43470   0.00000  Uiso   1.00
N42    N     0.04113   0.16637   0.28012   0.00000  Uiso   1.00
N43    N     0.69611   0.55311   0.94893   0.00000  Uiso   1.00
N44    N     0.28293   0.48391   0.54929   0.00000  Uiso   1.00
N45    N     0.17008   0.18301   0.39471   0.00000  Uiso   1.00
N46    N     0.82505   0.56975   0.06352   0.00000  Uiso   1.00
C47    C     0.71425   0.27262   0.78883   0.00000  Uiso   1.00
C48    C     0.71904   0.34025   0.69923   0.00000  Uiso   1.00
C49    C     0.79490   0.40637   0.68772   0.00000  Uiso   1.00
C50    C     0.78549   0.46156   0.60031   0.00000  Uiso   1.00
C51    C     0.80550   0.56815   0.47229   0.00000  Uiso   1.00
C52    C     0.75015   0.14757   0.74182   0.00000  Uiso   1.00
C53    C     0.85217   0.05170   0.76613   0.00000  Uiso   1.00
C54    C     0.86894   0.94468   0.71459   0.00000  Uiso   1.00
C55    C     0.93720   0.75213   0.65275   0.00000  Uiso   1.00
C56    C     0.56965   0.31660   0.83309   0.00000  Uiso   1.00
C57    C     0.51989   0.36282   0.93415   0.00000  Uiso   1.00
C58    C     0.38468   0.39810   0.95945   0.00000  Uiso   1.00
C59    C     0.17268   0.46799   0.03932   0.00000  Uiso   1.00
C60    C     0.56261   0.25304   0.65408   0.00000  Uiso   1.00
C61    C     0.63667   0.32962   0.62604   0.00000  Uiso   1.00
C62    C     0.62713   0.38472   0.53863   0.00000  Uiso   1.00
C63    C     0.70297   0.45092   0.52699   0.00000  Uiso   1.00
C64    C     0.66780   0.13694   0.66863   0.00000  Uiso   1.00
C65    C     0.68440   0.03004   0.61704   0.00000  Uiso   1.00
C66    C     0.78643   0.93403   0.64126   0.00000  Uiso   1.00
C67    C     0.48728   0.30598   0.75990   0.00000  Uiso   1.00
C68    C     0.35212   0.34117   0.78505   0.00000  Uiso   1.00
C69    C     0.30217   0.38744   0.88613   0.00000  Uiso   1.00
H70    H     0.77837   0.28089   0.84582   0.00000  Uiso   1.00
H71    H     0.85864   0.41457   0.74438   0.00000  Uiso   1.00
H72    H     0.91589   0.05995   0.82278   0.00000  Uiso   1.00
H73    H     0.58366   0.37103   0.99077   0.00000  Uiso   1.00
H74    H     0.91134   0.55806   0.59961   0.00000  Uiso   1.00
H75    H     0.03203   0.81032   0.76497   0.00000  Uiso   1.00
H76    H     0.33146   0.46630   0.11920   0.00000  Uiso   1.00
H77    H     0.49848   0.24476   0.59709   0.00000  Uiso   1.00
H78    H     0.56339   0.37648   0.48200   0.00000  Uiso   1.00
H79    H     0.62064   0.02185   0.56041   0.00000  Uiso   1.00
H80    H     0.28841   0.33294   0.72839   0.00000  Uiso   1.00
H81    H     0.67171   0.52714   0.38665   0.00000  Uiso   1.00
H82    H     0.79240   0.77939   0.55201   0.00000  Uiso   1.00
H83    H     0.09182   0.43538   0.90624   0.00000  Uiso   1.00
O84    O     0.83931   0.62987   0.42189   0.00000  Uiso   1.00
O85    O     0.99763   0.64885   0.63885   0.00000  Uiso   1.00
O86    O     0.07850   0.50949   0.10359   0.00000  Uiso   1.00
N87    N     0.84602   0.53273   0.56530   0.00000  Uiso   1.00
N88    N     0.95887   0.83363   0.71988   0.00000  Uiso   1.00
N89    N     0.30389   0.44689   0.05107   0.00000  Uiso   1.00
N90    N     0.71707   0.51609   0.45071   0.00000  Uiso   1.00
N91    N     0.82992   0.81699   0.60529   0.00000  Uiso   1.00
N92    N     0.17495   0.43025   0.93648   0.00000  Uiso   1.00
