data_job_05906
_audit_creation_date              2018-12-19
_audit_creation_method            'Materials Studio'
_symmetry_space_group_name_H-M    'P1'
_symmetry_Int_Tables_number       1
_symmetry_cell_setting            triclinic
loop_
_symmetry_equiv_pos_as_xyz
  x,y,z
_cell_length_a                    41.7576
_cell_length_b                    12.6375
_cell_length_c                    12.3497
_cell_angle_alpha                 90.0000
_cell_angle_beta                  90.0000
_cell_angle_gamma                 90.0000
loop_
_atom_site_label
_atom_site_type_symbol
_atom_site_fract_x
_atom_site_fract_y
_atom_site_fract_z
_atom_site_U_iso_or_equiv
_atom_site_adp_type
_atom_site_occupancy
C1     C     0.14464   0.24704   0.52454   0.00000  Uiso   1.00
C2     C     0.16980   0.21445   0.44146   0.00000  Uiso   1.00
C3     C     0.17612   0.26608   0.34462   0.00000  Uiso   1.00
C4     C     0.20007   0.22382   0.27973   0.00000  Uiso   1.00
C5     C     0.23653   0.18698   0.14599   0.00000  Uiso   1.00
C6     C     0.12305   0.15089   0.53999   0.00000  Uiso   1.00
C7     C     0.09008   0.14909   0.52601   0.00000  Uiso   1.00
C8     C     0.07468   0.05333   0.54407   0.00000  Uiso   1.00
C9     C     0.03857   0.91783   0.56339   0.00000  Uiso   1.00
C10    C     0.16252   0.26142   0.63121   0.00000  Uiso   1.00
C11    C     0.16272   0.35253   0.69394   0.00000  Uiso   1.00
C12    C     0.18054   0.34981   0.78882   0.00000  Uiso   1.00
C13    C     0.20569   0.38592   0.94976   0.00000  Uiso   1.00
C14    C     0.17593   0.08018   0.58152   0.00000  Uiso   1.00
C15    C     0.18679   0.12382   0.47241   0.00000  Uiso   1.00
C16    C     0.21073   0.08147   0.40765   0.00000  Uiso   1.00
C17    C     0.21710   0.13303   0.31073   0.00000  Uiso   1.00
C18    C     0.14004   0.06027   0.57094   0.00000  Uiso   1.00
C19    C     0.12469   0.96449   0.58904   0.00000  Uiso   1.00
C20    C     0.09171   0.96253   0.57507   0.00000  Uiso   1.00
C21    C     0.17951   0.17079   0.66216   0.00000  Uiso   1.00
C22    C     0.19733   0.16793   0.75696   0.00000  Uiso   1.00
C23    C     0.19756   0.25902   0.81982   0.00000  Uiso   1.00
H24    H     0.13141   0.31759   0.50045   0.00000  Uiso   1.00
H25    H     0.16297   0.33621   0.32070   0.00000  Uiso   1.00
H26    H     0.07694   0.21924   0.50207   0.00000  Uiso   1.00
H27    H     0.14956   0.42265   0.66997   0.00000  Uiso   1.00
H28    H     0.20543   0.31686   0.13503   0.00000  Uiso   1.00
H29    H     0.02404   0.07023   0.51750   0.00000  Uiso   1.00
H30    H     0.17718   0.49916   0.87155   0.00000  Uiso   1.00
H31    H     0.18915   0.00962   0.60561   0.00000  Uiso   1.00
H32    H     0.22388   0.01134   0.43162   0.00000  Uiso   1.00
H33    H     0.13785   0.89437   0.61299   0.00000  Uiso   1.00
H34    H     0.21047   0.09778   0.78089   0.00000  Uiso   1.00
H35    H     0.25487   0.05318   0.22505   0.00000  Uiso   1.00
H36    H     0.07347   0.80655   0.60753   0.00000  Uiso   1.00
H37    H     0.22662   0.23549   0.96157   0.00000  Uiso   1.00
O38    O     0.25195   0.19168   0.06367   0.00000  Uiso   1.00
O39    O     0.01396   0.86813   0.56548   0.00000  Uiso   1.00
O40    O     0.21488   0.43088   0.02997   0.00000  Uiso   1.00
N41    N     0.21231   0.25458   0.18010   0.00000  Uiso   1.00
N42    N     0.04271   0.02399   0.53767   0.00000  Uiso   1.00
N43    N     0.18588   0.42500   0.86869   0.00000  Uiso   1.00
N44    N     0.23891   0.11269   0.22855   0.00000  Uiso   1.00
N45    N     0.06932   0.88211   0.58612   0.00000  Uiso   1.00
N46    N     0.21249   0.28312   0.91714   0.00000  Uiso   1.00
C47    C     0.64464   0.74704   0.02454   0.00000  Uiso   1.00
C48    C     0.66980   0.71445   0.94146   0.00000  Uiso   1.00
C49    C     0.67612   0.76608   0.84462   0.00000  Uiso   1.00
C50    C     0.70007   0.72382   0.77973   0.00000  Uiso   1.00
C51    C     0.73653   0.68698   0.64599   0.00000  Uiso   1.00
C52    C     0.62305   0.65089   0.03999   0.00000  Uiso   1.00
C53    C     0.59008   0.64909   0.02601   0.00000  Uiso   1.00
C54    C     0.57468   0.55333   0.04407   0.00000  Uiso   1.00
C55    C     0.53857   0.41783   0.06339   0.00000  Uiso   1.00
C56    C     0.66252   0.76142   0.13121   0.00000  Uiso   1.00
C57    C     0.66272   0.85253   0.19394   0.00000  Uiso   1.00
C58    C     0.68054   0.84981   0.28882   0.00000  Uiso   1.00
C59    C     0.70569   0.88592   0.44976   0.00000  Uiso   1.00
C60    C     0.67593   0.58018   0.08152   0.00000  Uiso   1.00
C61    C     0.68679   0.62382   0.97241   0.00000  Uiso   1.00
C62    C     0.71073   0.58147   0.90765   0.00000  Uiso   1.00
C63    C     0.71710   0.63303   0.81073   0.00000  Uiso   1.00
C64    C     0.64004   0.56027   0.07094   0.00000  Uiso   1.00
C65    C     0.62469   0.46449   0.08904   0.00000  Uiso   1.00
C66    C     0.59171   0.46253   0.07507   0.00000  Uiso   1.00
C67    C     0.67951   0.67079   0.16216   0.00000  Uiso   1.00
C68    C     0.69733   0.66793   0.25696   0.00000  Uiso   1.00
C69    C     0.69756   0.75902   0.31982   0.00000  Uiso   1.00
H70    H     0.63141   0.81759   0.00045   0.00000  Uiso   1.00
H71    H     0.66297   0.83621   0.82070   0.00000  Uiso   1.00
H72    H     0.57694   0.71924   0.00207   0.00000  Uiso   1.00
H73    H     0.64956   0.92265   0.16997   0.00000  Uiso   1.00
H74    H     0.70543   0.81686   0.63503   0.00000  Uiso   1.00
H75    H     0.52404   0.57023   0.01750   0.00000  Uiso   1.00
H76    H     0.67718   0.99916   0.37155   0.00000  Uiso   1.00
H77    H     0.68915   0.50962   0.10561   0.00000  Uiso   1.00
H78    H     0.72388   0.51134   0.93162   0.00000  Uiso   1.00
H79    H     0.63785   0.39437   0.11299   0.00000  Uiso   1.00
H80    H     0.71047   0.59778   0.28089   0.00000  Uiso   1.00
H81    H     0.75487   0.55318   0.72505   0.00000  Uiso   1.00
H82    H     0.57347   0.30655   0.10753   0.00000  Uiso   1.00
H83    H     0.72662   0.73549   0.46157   0.00000  Uiso   1.00
O84    O     0.75195   0.69168   0.56367   0.00000  Uiso   1.00
O85    O     0.51396   0.36813   0.06548   0.00000  Uiso   1.00
O86    O     0.71488   0.93088   0.52997   0.00000  Uiso   1.00
N87    N     0.71231   0.75458   0.68010   0.00000  Uiso   1.00
N88    N     0.54271   0.52399   0.03767   0.00000  Uiso   1.00
N89    N     0.68588   0.92500   0.36869   0.00000  Uiso   1.00
N90    N     0.73891   0.61269   0.72855   0.00000  Uiso   1.00
N91    N     0.56932   0.38211   0.08612   0.00000  Uiso   1.00
N92    N     0.71249   0.78312   0.41714   0.00000  Uiso   1.00
C93    C     0.85536   0.75296   0.52454   0.00000  Uiso   1.00
C94    C     0.83020   0.78555   0.44146   0.00000  Uiso   1.00
C95    C     0.82388   0.73392   0.34462   0.00000  Uiso   1.00
C96    C     0.79993   0.77618   0.27973   0.00000  Uiso   1.00
C97    C     0.76347   0.81302   0.14599   0.00000  Uiso   1.00
C98    C     0.87695   0.84911   0.53999   0.00000  Uiso   1.00
C99    C     0.90992   0.85091   0.52601   0.00000  Uiso   1.00
C100   C     0.92532   0.94667   0.54407   0.00000  Uiso   1.00
C101   C     0.96143   0.08217   0.56339   0.00000  Uiso   1.00
C102   C     0.83748   0.73858   0.63121   0.00000  Uiso   1.00
C103   C     0.83728   0.64747   0.69394   0.00000  Uiso   1.00
C104   C     0.81946   0.65019   0.78882   0.00000  Uiso   1.00
C105   C     0.79431   0.61408   0.94976   0.00000  Uiso   1.00
C106   C     0.82407   0.91982   0.58152   0.00000  Uiso   1.00
C107   C     0.81321   0.87618   0.47241   0.00000  Uiso   1.00
C108   C     0.78927   0.91853   0.40765   0.00000  Uiso   1.00
C109   C     0.78290   0.86697   0.31073   0.00000  Uiso   1.00
C110   C     0.85996   0.93973   0.57094   0.00000  Uiso   1.00
C111   C     0.87531   0.03551   0.58904   0.00000  Uiso   1.00
C112   C     0.90829   0.03747   0.57507   0.00000  Uiso   1.00
C113   C     0.82049   0.82921   0.66216   0.00000  Uiso   1.00
C114   C     0.80267   0.83207   0.75696   0.00000  Uiso   1.00
C115   C     0.80244   0.74098   0.81982   0.00000  Uiso   1.00
H116   H     0.86859   0.68241   0.50045   0.00000  Uiso   1.00
H117   H     0.83703   0.66379   0.32070   0.00000  Uiso   1.00
H118   H     0.92306   0.78076   0.50207   0.00000  Uiso   1.00
H119   H     0.85044   0.57735   0.66997   0.00000  Uiso   1.00
H120   H     0.79457   0.68314   0.13503   0.00000  Uiso   1.00
H121   H     0.97596   0.92977   0.51750   0.00000  Uiso   1.00
H122   H     0.82282   0.50084   0.87155   0.00000  Uiso   1.00
H123   H     0.81085   0.99038   0.60561   0.00000  Uiso   1.00
H124   H     0.77612   0.98866   0.43162   0.00000  Uiso   1.00
H125   H     0.86215   0.10563   0.61299   0.00000  Uiso   1.00
H126   H     0.78953   0.90222   0.78089   0.00000  Uiso   1.00
H127   H     0.74513   0.94682   0.22505   0.00000  Uiso   1.00
H128   H     0.92653   0.19345   0.60753   0.00000  Uiso   1.00
H129   H     0.77338   0.76451   0.96157   0.00000  Uiso   1.00
O130   O     0.74805   0.80832   0.06367   0.00000  Uiso   1.00
O131   O     0.98604   0.13187   0.56548   0.00000  Uiso   1.00
O132   O     0.78512   0.56912   0.02997   0.00000  Uiso   1.00
N133   N     0.78769   0.74542   0.18010   0.00000  Uiso   1.00
N134   N     0.95729   0.97601   0.53767   0.00000  Uiso   1.00
N135   N     0.81412   0.57500   0.86869   0.00000  Uiso   1.00
N136   N     0.76109   0.88731   0.22855   0.00000  Uiso   1.00
N137   N     0.93068   0.11789   0.58612   0.00000  Uiso   1.00
N138   N     0.78751   0.71688   0.91714   0.00000  Uiso   1.00
C139   C     0.35536   0.25296   0.02454   0.00000  Uiso   1.00
C140   C     0.33020   0.28555   0.94146   0.00000  Uiso   1.00
C141   C     0.32388   0.23392   0.84462   0.00000  Uiso   1.00
C142   C     0.29993   0.27618   0.77973   0.00000  Uiso   1.00
C143   C     0.26347   0.31302   0.64599   0.00000  Uiso   1.00
C144   C     0.37695   0.34911   0.03999   0.00000  Uiso   1.00
C145   C     0.40992   0.35091   0.02601   0.00000  Uiso   1.00
C146   C     0.42532   0.44667   0.04407   0.00000  Uiso   1.00
C147   C     0.46143   0.58217   0.06339   0.00000  Uiso   1.00
C148   C     0.33748   0.23858   0.13121   0.00000  Uiso   1.00
C149   C     0.33728   0.14747   0.19394   0.00000  Uiso   1.00
C150   C     0.31946   0.15019   0.28882   0.00000  Uiso   1.00
C151   C     0.29431   0.11408   0.44976   0.00000  Uiso   1.00
C152   C     0.32407   0.41982   0.08152   0.00000  Uiso   1.00
C153   C     0.31321   0.37618   0.97241   0.00000  Uiso   1.00
C154   C     0.28927   0.41853   0.90765   0.00000  Uiso   1.00
C155   C     0.28290   0.36697   0.81073   0.00000  Uiso   1.00
C156   C     0.35996   0.43973   0.07094   0.00000  Uiso   1.00
C157   C     0.37531   0.53551   0.08904   0.00000  Uiso   1.00
C158   C     0.40829   0.53747   0.07507   0.00000  Uiso   1.00
C159   C     0.32049   0.32921   0.16216   0.00000  Uiso   1.00
C160   C     0.30267   0.33207   0.25696   0.00000  Uiso   1.00
C161   C     0.30244   0.24098   0.31982   0.00000  Uiso   1.00
H162   H     0.36859   0.18241   0.00045   0.00000  Uiso   1.00
H163   H     0.33703   0.16379   0.82070   0.00000  Uiso   1.00
H164   H     0.42306   0.28076   0.00207   0.00000  Uiso   1.00
H165   H     0.35044   0.07735   0.16997   0.00000  Uiso   1.00
H166   H     0.29457   0.18314   0.63503   0.00000  Uiso   1.00
H167   H     0.47596   0.42977   0.01750   0.00000  Uiso   1.00
H168   H     0.32282   0.00084   0.37155   0.00000  Uiso   1.00
H169   H     0.31085   0.49038   0.10561   0.00000  Uiso   1.00
H170   H     0.27612   0.48866   0.93162   0.00000  Uiso   1.00
H171   H     0.36215   0.60563   0.11299   0.00000  Uiso   1.00
H172   H     0.28953   0.40222   0.28089   0.00000  Uiso   1.00
H173   H     0.24513   0.44682   0.72505   0.00000  Uiso   1.00
H174   H     0.42653   0.69345   0.10753   0.00000  Uiso   1.00
H175   H     0.27338   0.26451   0.46157   0.00000  Uiso   1.00
O176   O     0.24805   0.30832   0.56367   0.00000  Uiso   1.00
O177   O     0.48604   0.63187   0.06548   0.00000  Uiso   1.00
O178   O     0.28512   0.06912   0.52997   0.00000  Uiso   1.00
N179   N     0.28769   0.24542   0.68010   0.00000  Uiso   1.00
N180   N     0.45729   0.47601   0.03767   0.00000  Uiso   1.00
N181   N     0.31412   0.07500   0.36869   0.00000  Uiso   1.00
N182   N     0.26109   0.38731   0.72855   0.00000  Uiso   1.00
N183   N     0.43068   0.61789   0.08612   0.00000  Uiso   1.00
N184   N     0.28751   0.21688   0.41714   0.00000  Uiso   1.00
C185   C     0.64464   0.25296   0.52454   0.00000  Uiso   1.00
C186   C     0.66980   0.28555   0.44146   0.00000  Uiso   1.00
C187   C     0.67612   0.23392   0.34462   0.00000  Uiso   1.00
C188   C     0.70007   0.27618   0.27973   0.00000  Uiso   1.00
C189   C     0.73653   0.31302   0.14599   0.00000  Uiso   1.00
C190   C     0.62305   0.34911   0.53999   0.00000  Uiso   1.00
C191   C     0.59008   0.35091   0.52601   0.00000  Uiso   1.00
C192   C     0.57468   0.44667   0.54407   0.00000  Uiso   1.00
C193   C     0.53857   0.58217   0.56339   0.00000  Uiso   1.00
C194   C     0.66252   0.23858   0.63121   0.00000  Uiso   1.00
C195   C     0.66272   0.14747   0.69394   0.00000  Uiso   1.00
C196   C     0.68054   0.15019   0.78882   0.00000  Uiso   1.00
C197   C     0.70569   0.11408   0.94976   0.00000  Uiso   1.00
C198   C     0.67593   0.41982   0.58152   0.00000  Uiso   1.00
C199   C     0.68679   0.37618   0.47241   0.00000  Uiso   1.00
C200   C     0.71073   0.41853   0.40765   0.00000  Uiso   1.00
C201   C     0.71710   0.36697   0.31073   0.00000  Uiso   1.00
C202   C     0.64004   0.43973   0.57094   0.00000  Uiso   1.00
C203   C     0.62469   0.53551   0.58904   0.00000  Uiso   1.00
C204   C     0.59171   0.53747   0.57507   0.00000  Uiso   1.00
C205   C     0.67951   0.32921   0.66216   0.00000  Uiso   1.00
C206   C     0.69733   0.33207   0.75696   0.00000  Uiso   1.00
C207   C     0.69756   0.24098   0.81982   0.00000  Uiso   1.00
H208   H     0.63141   0.18241   0.50045   0.00000  Uiso   1.00
H209   H     0.66297   0.16379   0.32070   0.00000  Uiso   1.00
H210   H     0.57694   0.28076   0.50207   0.00000  Uiso   1.00
H211   H     0.64956   0.07735   0.66997   0.00000  Uiso   1.00
H212   H     0.70543   0.18314   0.13503   0.00000  Uiso   1.00
H213   H     0.52404   0.42977   0.51750   0.00000  Uiso   1.00
H214   H     0.67718   0.00084   0.87155   0.00000  Uiso   1.00
H215   H     0.68915   0.49038   0.60561   0.00000  Uiso   1.00
H216   H     0.72388   0.48866   0.43162   0.00000  Uiso   1.00
H217   H     0.63785   0.60563   0.61299   0.00000  Uiso   1.00
H218   H     0.71047   0.40222   0.78089   0.00000  Uiso   1.00
H219   H     0.75487   0.44682   0.22505   0.00000  Uiso   1.00
H220   H     0.57347   0.69345   0.60753   0.00000  Uiso   1.00
H221   H     0.72662   0.26451   0.96157   0.00000  Uiso   1.00
O222   O     0.75195   0.30832   0.06367   0.00000  Uiso   1.00
O223   O     0.51396   0.63187   0.56548   0.00000  Uiso   1.00
O224   O     0.71488   0.06912   0.02997   0.00000  Uiso   1.00
N225   N     0.71231   0.24542   0.18010   0.00000  Uiso   1.00
N226   N     0.54271   0.47601   0.53767   0.00000  Uiso   1.00
N227   N     0.68588   0.07500   0.86869   0.00000  Uiso   1.00
N228   N     0.73891   0.38731   0.22855   0.00000  Uiso   1.00
N229   N     0.56932   0.61789   0.58612   0.00000  Uiso   1.00
N230   N     0.71249   0.21688   0.91714   0.00000  Uiso   1.00
C231   C     0.14464   0.75296   0.02454   0.00000  Uiso   1.00
C232   C     0.16980   0.78555   0.94146   0.00000  Uiso   1.00
C233   C     0.17612   0.73392   0.84462   0.00000  Uiso   1.00
C234   C     0.20007   0.77618   0.77973   0.00000  Uiso   1.00
C235   C     0.23653   0.81302   0.64599   0.00000  Uiso   1.00
C236   C     0.12305   0.84911   0.03999   0.00000  Uiso   1.00
C237   C     0.09008   0.85091   0.02601   0.00000  Uiso   1.00
C238   C     0.07468   0.94667   0.04407   0.00000  Uiso   1.00
C239   C     0.03857   0.08217   0.06339   0.00000  Uiso   1.00
C240   C     0.16252   0.73858   0.13121   0.00000  Uiso   1.00
C241   C     0.16272   0.64747   0.19394   0.00000  Uiso   1.00
C242   C     0.18054   0.65019   0.28882   0.00000  Uiso   1.00
C243   C     0.20569   0.61408   0.44976   0.00000  Uiso   1.00
C244   C     0.17593   0.91982   0.08152   0.00000  Uiso   1.00
C245   C     0.18679   0.87618   0.97241   0.00000  Uiso   1.00
C246   C     0.21073   0.91853   0.90765   0.00000  Uiso   1.00
C247   C     0.21710   0.86697   0.81073   0.00000  Uiso   1.00
C248   C     0.14004   0.93973   0.07094   0.00000  Uiso   1.00
C249   C     0.12469   0.03551   0.08904   0.00000  Uiso   1.00
C250   C     0.09171   0.03747   0.07507   0.00000  Uiso   1.00
C251   C     0.17951   0.82921   0.16216   0.00000  Uiso   1.00
C252   C     0.19733   0.83207   0.25696   0.00000  Uiso   1.00
C253   C     0.19756   0.74098   0.31982   0.00000  Uiso   1.00
H254   H     0.13141   0.68241   0.00045   0.00000  Uiso   1.00
H255   H     0.16297   0.66379   0.82070   0.00000  Uiso   1.00
H256   H     0.07694   0.78076   0.00207   0.00000  Uiso   1.00
H257   H     0.14956   0.57735   0.16997   0.00000  Uiso   1.00
H258   H     0.20543   0.68314   0.63503   0.00000  Uiso   1.00
H259   H     0.02404   0.92977   0.01750   0.00000  Uiso   1.00
H260   H     0.17718   0.50084   0.37155   0.00000  Uiso   1.00
H261   H     0.18915   0.99038   0.10561   0.00000  Uiso   1.00
H262   H     0.22388   0.98866   0.93162   0.00000  Uiso   1.00
H263   H     0.13785   0.10563   0.11299   0.00000  Uiso   1.00
H264   H     0.21047   0.90222   0.28089   0.00000  Uiso   1.00
H265   H     0.25487   0.94682   0.72505   0.00000  Uiso   1.00
H266   H     0.07347   0.19345   0.10753   0.00000  Uiso   1.00
H267   H     0.22662   0.76451   0.46157   0.00000  Uiso   1.00
O268   O     0.25195   0.80832   0.56367   0.00000  Uiso   1.00
O269   O     0.01396   0.13187   0.06548   0.00000  Uiso   1.00
O270   O     0.21488   0.56912   0.52997   0.00000  Uiso   1.00
N271   N     0.21231   0.74542   0.68010   0.00000  Uiso   1.00
N272   N     0.04271   0.97601   0.03767   0.00000  Uiso   1.00
N273   N     0.18588   0.57500   0.36869   0.00000  Uiso   1.00
N274   N     0.23891   0.88731   0.72855   0.00000  Uiso   1.00
N275   N     0.06932   0.11789   0.08612   0.00000  Uiso   1.00
N276   N     0.21249   0.71688   0.41714   0.00000  Uiso   1.00
C277   C     0.35536   0.74704   0.52454   0.00000  Uiso   1.00
C278   C     0.33020   0.71445   0.44146   0.00000  Uiso   1.00
C279   C     0.32388   0.76608   0.34462   0.00000  Uiso   1.00
C280   C     0.29993   0.72382   0.27973   0.00000  Uiso   1.00
C281   C     0.26347   0.68698   0.14599   0.00000  Uiso   1.00
C282   C     0.37695   0.65089   0.53999   0.00000  Uiso   1.00
C283   C     0.40992   0.64909   0.52601   0.00000  Uiso   1.00
C284   C     0.42532   0.55333   0.54407   0.00000  Uiso   1.00
C285   C     0.46143   0.41783   0.56339   0.00000  Uiso   1.00
C286   C     0.33748   0.76142   0.63121   0.00000  Uiso   1.00
C287   C     0.33728   0.85253   0.69394   0.00000  Uiso   1.00
C288   C     0.31946   0.84981   0.78882   0.00000  Uiso   1.00
C289   C     0.29431   0.88592   0.94976   0.00000  Uiso   1.00
C290   C     0.32407   0.58018   0.58152   0.00000  Uiso   1.00
C291   C     0.31321   0.62382   0.47241   0.00000  Uiso   1.00
C292   C     0.28927   0.58147   0.40765   0.00000  Uiso   1.00
C293   C     0.28290   0.63303   0.31073   0.00000  Uiso   1.00
C294   C     0.35996   0.56027   0.57094   0.00000  Uiso   1.00
C295   C     0.37531   0.46449   0.58904   0.00000  Uiso   1.00
C296   C     0.40829   0.46253   0.57507   0.00000  Uiso   1.00
C297   C     0.32049   0.67079   0.66216   0.00000  Uiso   1.00
C298   C     0.30267   0.66793   0.75696   0.00000  Uiso   1.00
C299   C     0.30244   0.75902   0.81982   0.00000  Uiso   1.00
H300   H     0.36859   0.81759   0.50045   0.00000  Uiso   1.00
H301   H     0.33703   0.83621   0.32070   0.00000  Uiso   1.00
H302   H     0.42306   0.71924   0.50207   0.00000  Uiso   1.00
H303   H     0.35044   0.92265   0.66997   0.00000  Uiso   1.00
H304   H     0.29457   0.81686   0.13503   0.00000  Uiso   1.00
H305   H     0.47596   0.57023   0.51750   0.00000  Uiso   1.00
H306   H     0.32282   0.99916   0.87155   0.00000  Uiso   1.00
H307   H     0.31085   0.50962   0.60561   0.00000  Uiso   1.00
H308   H     0.27612   0.51134   0.43162   0.00000  Uiso   1.00
H309   H     0.36215   0.39437   0.61299   0.00000  Uiso   1.00
H310   H     0.28953   0.59778   0.78089   0.00000  Uiso   1.00
H311   H     0.24513   0.55318   0.22505   0.00000  Uiso   1.00
H312   H     0.42653   0.30655   0.60753   0.00000  Uiso   1.00
H313   H     0.27338   0.73549   0.96157   0.00000  Uiso   1.00
O314   O     0.24805   0.69168   0.06367   0.00000  Uiso   1.00
O315   O     0.48604   0.36813   0.56548   0.00000  Uiso   1.00
O316   O     0.28512   0.93088   0.02997   0.00000  Uiso   1.00
N317   N     0.28769   0.75458   0.18010   0.00000  Uiso   1.00
N318   N     0.45729   0.52399   0.53767   0.00000  Uiso   1.00
N319   N     0.31412   0.92500   0.86869   0.00000  Uiso   1.00
N320   N     0.26109   0.61269   0.22855   0.00000  Uiso   1.00
N321   N     0.43068   0.38211   0.58612   0.00000  Uiso   1.00
N322   N     0.28751   0.78312   0.91714   0.00000  Uiso   1.00
C323   C     0.85536   0.24704   0.02454   0.00000  Uiso   1.00
C324   C     0.83020   0.21445   0.94146   0.00000  Uiso   1.00
C325   C     0.82388   0.26608   0.84462   0.00000  Uiso   1.00
C326   C     0.79993   0.22382   0.77973   0.00000  Uiso   1.00
C327   C     0.76347   0.18698   0.64599   0.00000  Uiso   1.00
C328   C     0.87695   0.15089   0.03999   0.00000  Uiso   1.00
C329   C     0.90992   0.14909   0.02601   0.00000  Uiso   1.00
C330   C     0.92532   0.05333   0.04407   0.00000  Uiso   1.00
C331   C     0.96143   0.91783   0.06339   0.00000  Uiso   1.00
C332   C     0.83748   0.26142   0.13121   0.00000  Uiso   1.00
C333   C     0.83728   0.35253   0.19394   0.00000  Uiso   1.00
C334   C     0.81946   0.34981   0.28882   0.00000  Uiso   1.00
C335   C     0.79431   0.38592   0.44976   0.00000  Uiso   1.00
C336   C     0.82407   0.08018   0.08152   0.00000  Uiso   1.00
C337   C     0.81321   0.12382   0.97241   0.00000  Uiso   1.00
C338   C     0.78927   0.08147   0.90765   0.00000  Uiso   1.00
C339   C     0.78290   0.13303   0.81073   0.00000  Uiso   1.00
C340   C     0.85996   0.06027   0.07094   0.00000  Uiso   1.00
C341   C     0.87531   0.96449   0.08904   0.00000  Uiso   1.00
C342   C     0.90829   0.96253   0.07507   0.00000  Uiso   1.00
C343   C     0.82049   0.17079   0.16216   0.00000  Uiso   1.00
C344   C     0.80267   0.16793   0.25696   0.00000  Uiso   1.00
C345   C     0.80244   0.25902   0.31982   0.00000  Uiso   1.00
H346   H     0.86859   0.31759   0.00045   0.00000  Uiso   1.00
H347   H     0.83703   0.33621   0.82070   0.00000  Uiso   1.00
H348   H     0.92306   0.21924   0.00207   0.00000  Uiso   1.00
H349   H     0.85044   0.42265   0.16997   0.00000  Uiso   1.00
H350   H     0.79457   0.31686   0.63503   0.00000  Uiso   1.00
H351   H     0.97596   0.07023   0.01750   0.00000  Uiso   1.00
H352   H     0.82282   0.49916   0.37155   0.00000  Uiso   1.00
H353   H     0.81085   0.00962   0.10561   0.00000  Uiso   1.00
H354   H     0.77612   0.01134   0.93162   0.00000  Uiso   1.00
H355   H     0.86215   0.89437   0.11299   0.00000  Uiso   1.00
H356   H     0.78953   0.09778   0.28089   0.00000  Uiso   1.00
H357   H     0.74513   0.05318   0.72505   0.00000  Uiso   1.00
H358   H     0.92653   0.80655   0.10753   0.00000  Uiso   1.00
H359   H     0.77338   0.23549   0.46157   0.00000  Uiso   1.00
O360   O     0.74805   0.19168   0.56367   0.00000  Uiso   1.00
O361   O     0.98604   0.86813   0.06548   0.00000  Uiso   1.00
O362   O     0.78512   0.43088   0.52997   0.00000  Uiso   1.00
N363   N     0.78769   0.25458   0.68010   0.00000  Uiso   1.00
N364   N     0.95729   0.02399   0.03767   0.00000  Uiso   1.00
N365   N     0.81412   0.42500   0.36869   0.00000  Uiso   1.00
N366   N     0.76109   0.11269   0.72855   0.00000  Uiso   1.00
N367   N     0.93068   0.88211   0.08612   0.00000  Uiso   1.00
N368   N     0.78751   0.28312   0.41714   0.00000  Uiso   1.00
