data_job_02554
_audit_creation_date              2018-12-19
_audit_creation_method            'Materials Studio'
_symmetry_space_group_name_H-M    'P1'
_symmetry_Int_Tables_number       1
_symmetry_cell_setting            triclinic
loop_
_symmetry_equiv_pos_as_xyz
  x,y,z
_cell_length_a                    22.7962
_cell_length_b                    11.6196
_cell_length_c                    23.0235
_cell_angle_alpha                 90.0000
_cell_angle_beta                  90.0000
_cell_angle_gamma                 90.0000
loop_
_atom_site_label
_atom_site_type_symbol
_atom_site_fract_x
_atom_site_fract_y
_atom_site_fract_z
_atom_site_U_iso_or_equiv
_atom_site_adp_type
_atom_site_occupancy
C1     C     0.16453   0.95467   0.97707   0.00000  Uiso   1.00
C2     C     0.12935   0.06560   0.98334   0.00000  Uiso   1.00
C3     C     0.07400   0.07510   0.00797   0.00000  Uiso   1.00
C4     C     0.04921   0.18419   0.00961   0.00000  Uiso   1.00
C5     C     0.99008   0.34183   0.02270   0.00000  Uiso   1.00
C6     C     0.17851   0.94317   0.91256   0.00000  Uiso   1.00
C7     C     0.16449   0.84971   0.87768   0.00000  Uiso   1.00
C8     C     0.18109   0.85574   0.81974   0.00000  Uiso   1.00
C9     C     0.19832   0.82325   0.72295   0.00000  Uiso   1.00
C10    C     0.22301   0.97644   0.00729   0.00000  Uiso   1.00
C11    C     0.24642   0.91093   0.05205   0.00000  Uiso   1.00
C12    C     0.30050   0.94495   0.07385   0.00000  Uiso   1.00
C13    C     0.38682   0.96412   0.12414   0.00000  Uiso   1.00
C14    C     0.21894   0.13153   0.93619   0.00000  Uiso   1.00
C15    C     0.15890   0.16167   0.96114   0.00000  Uiso   1.00
C16    C     0.13420   0.27078   0.96274   0.00000  Uiso   1.00
C17    C     0.07882   0.28043   0.98737   0.00000  Uiso   1.00
C18    C     0.20806   0.03923   0.89035   0.00000  Uiso   1.00
C19    C     0.22469   0.04539   0.83245   0.00000  Uiso   1.00
C20    C     0.21070   0.95198   0.79749   0.00000  Uiso   1.00
C21    C     0.25256   0.07250   0.98509   0.00000  Uiso   1.00
C22    C     0.30661   0.10662   0.00682   0.00000  Uiso   1.00
C23    C     0.33010   0.04119   0.05161   0.00000  Uiso   1.00
H24    H     0.14152   0.87988   0.99435   0.00000  Uiso   1.00
H25    H     0.05114   0.00073   0.02515   0.00000  Uiso   1.00
H26    H     0.14163   0.77538   0.89488   0.00000  Uiso   1.00
H27    H     0.22354   0.83660   0.06922   0.00000  Uiso   1.00
H28    H     0.96396   0.17708   0.04947   0.00000  Uiso   1.00
H29    H     0.15477   0.70190   0.77480   0.00000  Uiso   1.00
H30    H     0.32750   0.83099   0.14243   0.00000  Uiso   1.00
H31    H     0.24195   0.20632   0.91890   0.00000  Uiso   1.00
H32    H     0.15708   0.34510   0.94556   0.00000  Uiso   1.00
H33    H     0.24756   0.11974   0.81528   0.00000  Uiso   1.00
H34    H     0.32947   0.18096   0.98963   0.00000  Uiso   1.00
H35    H     0.04994   0.45659   0.98487   0.00000  Uiso   1.00
H36    H     0.24076   0.98139   0.71020   0.00000  Uiso   1.00
H37    H     0.41348   0.11049   0.07783   0.00000  Uiso   1.00
O38    O     0.94930   0.40223   0.03605   0.00000  Uiso   1.00
O39    O     0.19965   0.77879   0.67569   0.00000  Uiso   1.00
O40    O     0.42626   0.94816   0.15802   0.00000  Uiso   1.00
N41    N     0.99585   0.22382   0.03062   0.00000  Uiso   1.00
N42    N     0.17424   0.77956   0.77382   0.00000  Uiso   1.00
N43    N     0.33573   0.90023   0.11751   0.00000  Uiso   1.00
N44    N     0.04211   0.37422   0.99586   0.00000  Uiso   1.00
N45    N     0.22050   0.92996   0.73906   0.00000  Uiso   1.00
N46    N     0.38200   0.05063   0.08275   0.00000  Uiso   1.00
C47    C     0.33547   0.54533   0.47707   0.00000  Uiso   1.00
C48    C     0.37065   0.43440   0.48334   0.00000  Uiso   1.00
C49    C     0.42600   0.42490   0.50797   0.00000  Uiso   1.00
C50    C     0.45079   0.31581   0.50961   0.00000  Uiso   1.00
C51    C     0.50992   0.15817   0.52270   0.00000  Uiso   1.00
C52    C     0.32149   0.55683   0.41256   0.00000  Uiso   1.00
C53    C     0.33551   0.65029   0.37768   0.00000  Uiso   1.00
C54    C     0.31891   0.64426   0.31974   0.00000  Uiso   1.00
C55    C     0.30168   0.67675   0.22295   0.00000  Uiso   1.00
C56    C     0.27699   0.52356   0.50729   0.00000  Uiso   1.00
C57    C     0.25358   0.58907   0.55205   0.00000  Uiso   1.00
C58    C     0.19950   0.55505   0.57385   0.00000  Uiso   1.00
C59    C     0.11318   0.53588   0.62414   0.00000  Uiso   1.00
C60    C     0.28106   0.36847   0.43619   0.00000  Uiso   1.00
C61    C     0.34110   0.33833   0.46114   0.00000  Uiso   1.00
C62    C     0.36580   0.22922   0.46274   0.00000  Uiso   1.00
C63    C     0.42118   0.21957   0.48737   0.00000  Uiso   1.00
C64    C     0.29194   0.46077   0.39035   0.00000  Uiso   1.00
C65    C     0.27531   0.45461   0.33245   0.00000  Uiso   1.00
C66    C     0.28930   0.54802   0.29749   0.00000  Uiso   1.00
C67    C     0.24744   0.42750   0.48509   0.00000  Uiso   1.00
C68    C     0.19339   0.39338   0.50682   0.00000  Uiso   1.00
C69    C     0.16990   0.45881   0.55161   0.00000  Uiso   1.00
H70    H     0.35848   0.62012   0.49435   0.00000  Uiso   1.00
H71    H     0.44886   0.49927   0.52515   0.00000  Uiso   1.00
H72    H     0.35837   0.72462   0.39488   0.00000  Uiso   1.00
H73    H     0.27646   0.66340   0.56922   0.00000  Uiso   1.00
H74    H     0.53604   0.32292   0.54947   0.00000  Uiso   1.00
H75    H     0.34523   0.79810   0.27480   0.00000  Uiso   1.00
H76    H     0.17250   0.66901   0.64243   0.00000  Uiso   1.00
H77    H     0.25805   0.29368   0.41890   0.00000  Uiso   1.00
H78    H     0.34292   0.15490   0.44556   0.00000  Uiso   1.00
H79    H     0.25244   0.38026   0.31528   0.00000  Uiso   1.00
H80    H     0.17053   0.31904   0.48963   0.00000  Uiso   1.00
H81    H     0.45006   0.04341   0.48487   0.00000  Uiso   1.00
H82    H     0.25924   0.51861   0.21020   0.00000  Uiso   1.00
H83    H     0.08652   0.38951   0.57783   0.00000  Uiso   1.00
O84    O     0.55070   0.09777   0.53605   0.00000  Uiso   1.00
O85    O     0.30035   0.72121   0.17569   0.00000  Uiso   1.00
O86    O     0.07374   0.55184   0.65802   0.00000  Uiso   1.00
N87    N     0.50415   0.27618   0.53062   0.00000  Uiso   1.00
N88    N     0.32576   0.72044   0.27382   0.00000  Uiso   1.00
N89    N     0.16427   0.59977   0.61751   0.00000  Uiso   1.00
N90    N     0.45789   0.12578   0.49586   0.00000  Uiso   1.00
N91    N     0.27950   0.57004   0.23906   0.00000  Uiso   1.00
N92    N     0.11800   0.44937   0.58275   0.00000  Uiso   1.00
C93    C     0.83547   0.95467   0.52293   0.00000  Uiso   1.00
C94    C     0.87065   0.06560   0.51666   0.00000  Uiso   1.00
C95    C     0.92600   0.07510   0.49203   0.00000  Uiso   1.00
C96    C     0.95079   0.18419   0.49039   0.00000  Uiso   1.00
C97    C     0.00992   0.34183   0.47730   0.00000  Uiso   1.00
C98    C     0.82149   0.94317   0.58744   0.00000  Uiso   1.00
C99    C     0.83551   0.84971   0.62232   0.00000  Uiso   1.00
C100   C     0.81891   0.85574   0.68026   0.00000  Uiso   1.00
C101   C     0.80168   0.82325   0.77705   0.00000  Uiso   1.00
C102   C     0.77699   0.97644   0.49271   0.00000  Uiso   1.00
C103   C     0.75358   0.91093   0.44795   0.00000  Uiso   1.00
C104   C     0.69950   0.94495   0.42615   0.00000  Uiso   1.00
C105   C     0.61318   0.96412   0.37586   0.00000  Uiso   1.00
C106   C     0.78106   0.13153   0.56381   0.00000  Uiso   1.00
C107   C     0.84110   0.16167   0.53886   0.00000  Uiso   1.00
C108   C     0.86580   0.27078   0.53726   0.00000  Uiso   1.00
C109   C     0.92118   0.28043   0.51263   0.00000  Uiso   1.00
C110   C     0.79194   0.03923   0.60965   0.00000  Uiso   1.00
C111   C     0.77531   0.04539   0.66755   0.00000  Uiso   1.00
C112   C     0.78930   0.95198   0.70251   0.00000  Uiso   1.00
C113   C     0.74744   0.07250   0.51491   0.00000  Uiso   1.00
C114   C     0.69339   0.10662   0.49318   0.00000  Uiso   1.00
C115   C     0.66990   0.04119   0.44839   0.00000  Uiso   1.00
H116   H     0.85848   0.87988   0.50565   0.00000  Uiso   1.00
H117   H     0.94886   0.00073   0.47485   0.00000  Uiso   1.00
H118   H     0.85837   0.77538   0.60512   0.00000  Uiso   1.00
H119   H     0.77646   0.83660   0.43078   0.00000  Uiso   1.00
H120   H     0.03604   0.17708   0.45053   0.00000  Uiso   1.00
H121   H     0.84523   0.70190   0.72520   0.00000  Uiso   1.00
H122   H     0.67250   0.83099   0.35757   0.00000  Uiso   1.00
H123   H     0.75805   0.20632   0.58110   0.00000  Uiso   1.00
H124   H     0.84292   0.34510   0.55444   0.00000  Uiso   1.00
H125   H     0.75244   0.11974   0.68472   0.00000  Uiso   1.00
H126   H     0.67053   0.18096   0.51037   0.00000  Uiso   1.00
H127   H     0.95006   0.45659   0.51513   0.00000  Uiso   1.00
H128   H     0.75924   0.98139   0.78980   0.00000  Uiso   1.00
H129   H     0.58652   0.11049   0.42217   0.00000  Uiso   1.00
O130   O     0.05070   0.40223   0.46395   0.00000  Uiso   1.00
O131   O     0.80035   0.77879   0.82431   0.00000  Uiso   1.00
O132   O     0.57374   0.94816   0.34198   0.00000  Uiso   1.00
N133   N     0.00415   0.22382   0.46938   0.00000  Uiso   1.00
N134   N     0.82576   0.77956   0.72618   0.00000  Uiso   1.00
N135   N     0.66427   0.90023   0.38249   0.00000  Uiso   1.00
N136   N     0.95789   0.37422   0.50414   0.00000  Uiso   1.00
N137   N     0.77950   0.92996   0.76094   0.00000  Uiso   1.00
N138   N     0.61800   0.05063   0.41725   0.00000  Uiso   1.00
C139   C     0.66453   0.54533   0.02293   0.00000  Uiso   1.00
C140   C     0.62935   0.43440   0.01666   0.00000  Uiso   1.00
C141   C     0.57400   0.42490   0.99203   0.00000  Uiso   1.00
C142   C     0.54921   0.31581   0.99039   0.00000  Uiso   1.00
C143   C     0.49008   0.15817   0.97730   0.00000  Uiso   1.00
C144   C     0.67851   0.55683   0.08744   0.00000  Uiso   1.00
C145   C     0.66449   0.65029   0.12232   0.00000  Uiso   1.00
C146   C     0.68109   0.64426   0.18026   0.00000  Uiso   1.00
C147   C     0.69832   0.67675   0.27705   0.00000  Uiso   1.00
C148   C     0.72301   0.52356   0.99271   0.00000  Uiso   1.00
C149   C     0.74642   0.58907   0.94795   0.00000  Uiso   1.00
C150   C     0.80050   0.55505   0.92615   0.00000  Uiso   1.00
C151   C     0.88682   0.53588   0.87586   0.00000  Uiso   1.00
C152   C     0.71894   0.36847   0.06381   0.00000  Uiso   1.00
C153   C     0.65890   0.33833   0.03886   0.00000  Uiso   1.00
C154   C     0.63420   0.22922   0.03726   0.00000  Uiso   1.00
C155   C     0.57882   0.21957   0.01263   0.00000  Uiso   1.00
C156   C     0.70806   0.46077   0.10965   0.00000  Uiso   1.00
C157   C     0.72469   0.45461   0.16755   0.00000  Uiso   1.00
C158   C     0.71070   0.54802   0.20251   0.00000  Uiso   1.00
C159   C     0.75256   0.42750   0.01491   0.00000  Uiso   1.00
C160   C     0.80661   0.39338   0.99318   0.00000  Uiso   1.00
C161   C     0.83010   0.45881   0.94839   0.00000  Uiso   1.00
H162   H     0.64152   0.62012   0.00565   0.00000  Uiso   1.00
H163   H     0.55114   0.49927   0.97485   0.00000  Uiso   1.00
H164   H     0.64163   0.72462   0.10512   0.00000  Uiso   1.00
H165   H     0.72354   0.66340   0.93078   0.00000  Uiso   1.00
H166   H     0.46396   0.32292   0.95053   0.00000  Uiso   1.00
H167   H     0.65477   0.79810   0.22520   0.00000  Uiso   1.00
H168   H     0.82750   0.66901   0.85757   0.00000  Uiso   1.00
H169   H     0.74195   0.29368   0.08110   0.00000  Uiso   1.00
H170   H     0.65708   0.15490   0.05444   0.00000  Uiso   1.00
H171   H     0.74756   0.38026   0.18472   0.00000  Uiso   1.00
H172   H     0.82947   0.31904   0.01037   0.00000  Uiso   1.00
H173   H     0.54994   0.04341   0.01513   0.00000  Uiso   1.00
H174   H     0.74076   0.51861   0.28980   0.00000  Uiso   1.00
H175   H     0.91348   0.38951   0.92217   0.00000  Uiso   1.00
O176   O     0.44930   0.09777   0.96395   0.00000  Uiso   1.00
O177   O     0.69965   0.72121   0.32431   0.00000  Uiso   1.00
O178   O     0.92626   0.55184   0.84198   0.00000  Uiso   1.00
N179   N     0.49585   0.27618   0.96938   0.00000  Uiso   1.00
N180   N     0.67424   0.72044   0.22618   0.00000  Uiso   1.00
N181   N     0.83573   0.59977   0.88249   0.00000  Uiso   1.00
N182   N     0.54211   0.12578   0.00414   0.00000  Uiso   1.00
N183   N     0.72050   0.57004   0.26094   0.00000  Uiso   1.00
N184   N     0.88200   0.44937   0.91725   0.00000  Uiso   1.00
C185   C     0.83547   0.04533   0.02293   0.00000  Uiso   1.00
C186   C     0.87065   0.93440   0.01666   0.00000  Uiso   1.00
C187   C     0.92600   0.92490   0.99203   0.00000  Uiso   1.00
C188   C     0.95079   0.81581   0.99039   0.00000  Uiso   1.00
C189   C     0.00992   0.65817   0.97730   0.00000  Uiso   1.00
C190   C     0.82149   0.05683   0.08744   0.00000  Uiso   1.00
C191   C     0.83551   0.15029   0.12232   0.00000  Uiso   1.00
C192   C     0.81891   0.14426   0.18026   0.00000  Uiso   1.00
C193   C     0.80168   0.17675   0.27705   0.00000  Uiso   1.00
C194   C     0.77699   0.02356   0.99271   0.00000  Uiso   1.00
C195   C     0.75358   0.08907   0.94795   0.00000  Uiso   1.00
C196   C     0.69950   0.05505   0.92615   0.00000  Uiso   1.00
C197   C     0.61318   0.03588   0.87586   0.00000  Uiso   1.00
C198   C     0.78106   0.86847   0.06381   0.00000  Uiso   1.00
C199   C     0.84110   0.83833   0.03886   0.00000  Uiso   1.00
C200   C     0.86580   0.72922   0.03726   0.00000  Uiso   1.00
C201   C     0.92118   0.71957   0.01263   0.00000  Uiso   1.00
C202   C     0.79194   0.96077   0.10965   0.00000  Uiso   1.00
C203   C     0.77531   0.95461   0.16755   0.00000  Uiso   1.00
C204   C     0.78930   0.04802   0.20251   0.00000  Uiso   1.00
C205   C     0.74744   0.92750   0.01491   0.00000  Uiso   1.00
C206   C     0.69339   0.89338   0.99318   0.00000  Uiso   1.00
C207   C     0.66990   0.95881   0.94839   0.00000  Uiso   1.00
H208   H     0.85848   0.12012   0.00565   0.00000  Uiso   1.00
H209   H     0.94886   0.99927   0.97485   0.00000  Uiso   1.00
H210   H     0.85837   0.22462   0.10512   0.00000  Uiso   1.00
H211   H     0.77646   0.16340   0.93078   0.00000  Uiso   1.00
H212   H     0.03604   0.82292   0.95053   0.00000  Uiso   1.00
H213   H     0.84523   0.29810   0.22520   0.00000  Uiso   1.00
H214   H     0.67250   0.16901   0.85757   0.00000  Uiso   1.00
H215   H     0.75805   0.79368   0.08110   0.00000  Uiso   1.00
H216   H     0.84292   0.65490   0.05444   0.00000  Uiso   1.00
H217   H     0.75244   0.88026   0.18472   0.00000  Uiso   1.00
H218   H     0.67053   0.81904   0.01037   0.00000  Uiso   1.00
H219   H     0.95006   0.54341   0.01513   0.00000  Uiso   1.00
H220   H     0.75924   0.01861   0.28980   0.00000  Uiso   1.00
H221   H     0.58652   0.88951   0.92217   0.00000  Uiso   1.00
O222   O     0.05070   0.59777   0.96395   0.00000  Uiso   1.00
O223   O     0.80035   0.22121   0.32431   0.00000  Uiso   1.00
O224   O     0.57374   0.05184   0.84198   0.00000  Uiso   1.00
N225   N     0.00415   0.77618   0.96938   0.00000  Uiso   1.00
N226   N     0.82576   0.22044   0.22618   0.00000  Uiso   1.00
N227   N     0.66427   0.09977   0.88249   0.00000  Uiso   1.00
N228   N     0.95789   0.62578   0.00414   0.00000  Uiso   1.00
N229   N     0.77950   0.07004   0.26094   0.00000  Uiso   1.00
N230   N     0.61800   0.94937   0.91725   0.00000  Uiso   1.00
C231   C     0.66453   0.45467   0.52293   0.00000  Uiso   1.00
C232   C     0.62935   0.56560   0.51666   0.00000  Uiso   1.00
C233   C     0.57400   0.57510   0.49203   0.00000  Uiso   1.00
C234   C     0.54921   0.68419   0.49039   0.00000  Uiso   1.00
C235   C     0.49008   0.84183   0.47730   0.00000  Uiso   1.00
C236   C     0.67851   0.44317   0.58744   0.00000  Uiso   1.00
C237   C     0.66449   0.34971   0.62232   0.00000  Uiso   1.00
C238   C     0.68109   0.35574   0.68026   0.00000  Uiso   1.00
C239   C     0.69832   0.32325   0.77705   0.00000  Uiso   1.00
C240   C     0.72301   0.47644   0.49271   0.00000  Uiso   1.00
C241   C     0.74642   0.41093   0.44795   0.00000  Uiso   1.00
C242   C     0.80050   0.44495   0.42615   0.00000  Uiso   1.00
C243   C     0.88682   0.46412   0.37586   0.00000  Uiso   1.00
C244   C     0.71894   0.63153   0.56381   0.00000  Uiso   1.00
C245   C     0.65890   0.66167   0.53886   0.00000  Uiso   1.00
C246   C     0.63420   0.77078   0.53726   0.00000  Uiso   1.00
C247   C     0.57882   0.78043   0.51263   0.00000  Uiso   1.00
C248   C     0.70806   0.53923   0.60965   0.00000  Uiso   1.00
C249   C     0.72469   0.54539   0.66755   0.00000  Uiso   1.00
C250   C     0.71070   0.45198   0.70251   0.00000  Uiso   1.00
C251   C     0.75256   0.57250   0.51491   0.00000  Uiso   1.00
C252   C     0.80661   0.60662   0.49318   0.00000  Uiso   1.00
C253   C     0.83010   0.54119   0.44839   0.00000  Uiso   1.00
H254   H     0.64152   0.37988   0.50565   0.00000  Uiso   1.00
H255   H     0.55114   0.50073   0.47485   0.00000  Uiso   1.00
H256   H     0.64163   0.27538   0.60512   0.00000  Uiso   1.00
H257   H     0.72354   0.33660   0.43078   0.00000  Uiso   1.00
H258   H     0.46396   0.67708   0.45053   0.00000  Uiso   1.00
H259   H     0.65477   0.20190   0.72520   0.00000  Uiso   1.00
H260   H     0.82750   0.33099   0.35757   0.00000  Uiso   1.00
H261   H     0.74195   0.70632   0.58110   0.00000  Uiso   1.00
H262   H     0.65708   0.84510   0.55444   0.00000  Uiso   1.00
H263   H     0.74756   0.61974   0.68472   0.00000  Uiso   1.00
H264   H     0.82947   0.68096   0.51037   0.00000  Uiso   1.00
H265   H     0.54994   0.95659   0.51513   0.00000  Uiso   1.00
H266   H     0.74076   0.48139   0.78980   0.00000  Uiso   1.00
H267   H     0.91348   0.61049   0.42217   0.00000  Uiso   1.00
O268   O     0.44930   0.90223   0.46395   0.00000  Uiso   1.00
O269   O     0.69965   0.27879   0.82431   0.00000  Uiso   1.00
O270   O     0.92626   0.44816   0.34198   0.00000  Uiso   1.00
N271   N     0.49585   0.72382   0.46938   0.00000  Uiso   1.00
N272   N     0.67424   0.27956   0.72618   0.00000  Uiso   1.00
N273   N     0.83573   0.40023   0.38249   0.00000  Uiso   1.00
N274   N     0.54211   0.87422   0.50414   0.00000  Uiso   1.00
N275   N     0.72050   0.42996   0.76094   0.00000  Uiso   1.00
N276   N     0.88200   0.55063   0.41725   0.00000  Uiso   1.00
C277   C     0.16453   0.04533   0.47707   0.00000  Uiso   1.00
C278   C     0.12935   0.93440   0.48334   0.00000  Uiso   1.00
C279   C     0.07400   0.92490   0.50797   0.00000  Uiso   1.00
C280   C     0.04921   0.81581   0.50961   0.00000  Uiso   1.00
C281   C     0.99008   0.65817   0.52270   0.00000  Uiso   1.00
C282   C     0.17851   0.05683   0.41256   0.00000  Uiso   1.00
C283   C     0.16449   0.15029   0.37768   0.00000  Uiso   1.00
C284   C     0.18109   0.14426   0.31974   0.00000  Uiso   1.00
C285   C     0.19832   0.17675   0.22295   0.00000  Uiso   1.00
C286   C     0.22301   0.02356   0.50729   0.00000  Uiso   1.00
C287   C     0.24642   0.08907   0.55205   0.00000  Uiso   1.00
C288   C     0.30050   0.05505   0.57385   0.00000  Uiso   1.00
C289   C     0.38682   0.03588   0.62414   0.00000  Uiso   1.00
C290   C     0.21894   0.86847   0.43619   0.00000  Uiso   1.00
C291   C     0.15890   0.83833   0.46114   0.00000  Uiso   1.00
C292   C     0.13420   0.72922   0.46274   0.00000  Uiso   1.00
C293   C     0.07882   0.71957   0.48737   0.00000  Uiso   1.00
C294   C     0.20806   0.96077   0.39035   0.00000  Uiso   1.00
C295   C     0.22469   0.95461   0.33245   0.00000  Uiso   1.00
C296   C     0.21070   0.04802   0.29749   0.00000  Uiso   1.00
C297   C     0.25256   0.92750   0.48509   0.00000  Uiso   1.00
C298   C     0.30661   0.89338   0.50682   0.00000  Uiso   1.00
C299   C     0.33010   0.95881   0.55161   0.00000  Uiso   1.00
H300   H     0.14152   0.12012   0.49435   0.00000  Uiso   1.00
H301   H     0.05114   0.99927   0.52515   0.00000  Uiso   1.00
H302   H     0.14163   0.22462   0.39488   0.00000  Uiso   1.00
H303   H     0.22354   0.16340   0.56922   0.00000  Uiso   1.00
H304   H     0.96396   0.82292   0.54947   0.00000  Uiso   1.00
H305   H     0.15477   0.29810   0.27480   0.00000  Uiso   1.00
H306   H     0.32750   0.16901   0.64243   0.00000  Uiso   1.00
H307   H     0.24195   0.79368   0.41890   0.00000  Uiso   1.00
H308   H     0.15708   0.65490   0.44556   0.00000  Uiso   1.00
H309   H     0.24756   0.88026   0.31528   0.00000  Uiso   1.00
H310   H     0.32947   0.81904   0.48963   0.00000  Uiso   1.00
H311   H     0.04994   0.54341   0.48487   0.00000  Uiso   1.00
H312   H     0.24076   0.01861   0.21020   0.00000  Uiso   1.00
H313   H     0.41348   0.88951   0.57783   0.00000  Uiso   1.00
O314   O     0.94930   0.59777   0.53605   0.00000  Uiso   1.00
O315   O     0.19965   0.22121   0.17569   0.00000  Uiso   1.00
O316   O     0.42626   0.05184   0.65802   0.00000  Uiso   1.00
N317   N     0.99585   0.77618   0.53062   0.00000  Uiso   1.00
N318   N     0.17424   0.22044   0.27382   0.00000  Uiso   1.00
N319   N     0.33573   0.09977   0.61751   0.00000  Uiso   1.00
N320   N     0.04211   0.62578   0.49586   0.00000  Uiso   1.00
N321   N     0.22050   0.07004   0.23906   0.00000  Uiso   1.00
N322   N     0.38200   0.94937   0.58275   0.00000  Uiso   1.00
C323   C     0.33547   0.45467   0.97707   0.00000  Uiso   1.00
C324   C     0.37065   0.56560   0.98334   0.00000  Uiso   1.00
C325   C     0.42600   0.57510   0.00797   0.00000  Uiso   1.00
C326   C     0.45079   0.68419   0.00961   0.00000  Uiso   1.00
C327   C     0.50992   0.84183   0.02270   0.00000  Uiso   1.00
C328   C     0.32149   0.44317   0.91256   0.00000  Uiso   1.00
C329   C     0.33551   0.34971   0.87768   0.00000  Uiso   1.00
C330   C     0.31891   0.35574   0.81974   0.00000  Uiso   1.00
C331   C     0.30168   0.32325   0.72295   0.00000  Uiso   1.00
C332   C     0.27699   0.47644   0.00729   0.00000  Uiso   1.00
C333   C     0.25358   0.41093   0.05205   0.00000  Uiso   1.00
C334   C     0.19950   0.44495   0.07385   0.00000  Uiso   1.00
C335   C     0.11318   0.46412   0.12414   0.00000  Uiso   1.00
C336   C     0.28106   0.63153   0.93619   0.00000  Uiso   1.00
C337   C     0.34110   0.66167   0.96114   0.00000  Uiso   1.00
C338   C     0.36580   0.77078   0.96274   0.00000  Uiso   1.00
C339   C     0.42118   0.78043   0.98737   0.00000  Uiso   1.00
C340   C     0.29194   0.53923   0.89035   0.00000  Uiso   1.00
C341   C     0.27531   0.54539   0.83245   0.00000  Uiso   1.00
C342   C     0.28930   0.45198   0.79749   0.00000  Uiso   1.00
C343   C     0.24744   0.57250   0.98509   0.00000  Uiso   1.00
C344   C     0.19339   0.60662   0.00682   0.00000  Uiso   1.00
C345   C     0.16990   0.54119   0.05161   0.00000  Uiso   1.00
H346   H     0.35848   0.37988   0.99435   0.00000  Uiso   1.00
H347   H     0.44886   0.50073   0.02515   0.00000  Uiso   1.00
H348   H     0.35837   0.27538   0.89488   0.00000  Uiso   1.00
H349   H     0.27646   0.33660   0.06922   0.00000  Uiso   1.00
H350   H     0.53604   0.67708   0.04947   0.00000  Uiso   1.00
H351   H     0.34523   0.20190   0.77480   0.00000  Uiso   1.00
H352   H     0.17250   0.33099   0.14243   0.00000  Uiso   1.00
H353   H     0.25805   0.70632   0.91890   0.00000  Uiso   1.00
H354   H     0.34292   0.84510   0.94556   0.00000  Uiso   1.00
H355   H     0.25244   0.61974   0.81528   0.00000  Uiso   1.00
H356   H     0.17053   0.68096   0.98963   0.00000  Uiso   1.00
H357   H     0.45006   0.95659   0.98487   0.00000  Uiso   1.00
H358   H     0.25924   0.48139   0.71020   0.00000  Uiso   1.00
H359   H     0.08652   0.61049   0.07783   0.00000  Uiso   1.00
O360   O     0.55070   0.90223   0.03605   0.00000  Uiso   1.00
O361   O     0.30035   0.27879   0.67569   0.00000  Uiso   1.00
O362   O     0.07374   0.44816   0.15802   0.00000  Uiso   1.00
N363   N     0.50415   0.72382   0.03062   0.00000  Uiso   1.00
N364   N     0.32576   0.27956   0.77382   0.00000  Uiso   1.00
N365   N     0.16427   0.40023   0.11751   0.00000  Uiso   1.00
N366   N     0.45789   0.87422   0.99586   0.00000  Uiso   1.00
N367   N     0.27950   0.42996   0.73906   0.00000  Uiso   1.00
N368   N     0.11800   0.55063   0.08275   0.00000  Uiso   1.00
