data_job_02122
_audit_creation_date              2018-12-19
_audit_creation_method            'Materials Studio'
_symmetry_space_group_name_H-M    'P1'
_symmetry_Int_Tables_number       1
_symmetry_cell_setting            triclinic
loop_
_symmetry_equiv_pos_as_xyz
  x,y,z
_cell_length_a                    24.7439
_cell_length_b                    12.3094
_cell_length_c                    22.7282
_cell_angle_alpha                 90.0000
_cell_angle_beta                  67.2769
_cell_angle_gamma                 90.0000
loop_
_atom_site_label
_atom_site_type_symbol
_atom_site_fract_x
_atom_site_fract_y
_atom_site_fract_z
_atom_site_U_iso_or_equiv
_atom_site_adp_type
_atom_site_occupancy
C1     C     0.37260   0.21149   0.64955   0.00000  Uiso   1.00
C2     C     0.42445   0.13393   0.63294   0.00000  Uiso   1.00
C3     C     0.43288   0.04057   0.59623   0.00000  Uiso   1.00
C4     C     0.48311   0.98053   0.58652   0.00000  Uiso   1.00
C5     C     0.55746   0.85516   0.55679   0.00000  Uiso   1.00
C6     C     0.34554   0.21792   0.72218   0.00000  Uiso   1.00
C7     C     0.28762   0.19519   0.76049   0.00000  Uiso   1.00
C8     C     0.27143   0.20588   0.82590   0.00000  Uiso   1.00
C9     C     0.22326   0.21098   0.93470   0.00000  Uiso   1.00
C10    C     0.39868   0.32332   0.62647   0.00000  Uiso   1.00
C11    C     0.38544   0.38925   0.58431   0.00000  Uiso   1.00
C12    C     0.41398   0.48869   0.56915   0.00000  Uiso   1.00
C13    C     0.44833   0.65745   0.52935   0.00000  Uiso   1.00
C14    C     0.44682   0.27089   0.69759   0.00000  Uiso   1.00
C15    C     0.46475   0.16619   0.65904   0.00000  Uiso   1.00
C16    C     0.51499   0.10628   0.64938   0.00000  Uiso   1.00
C17    C     0.52349   0.01285   0.61266   0.00000  Uiso   1.00
C18    C     0.38584   0.25018   0.74827   0.00000  Uiso   1.00
C19    C     0.36973   0.26091   0.81364   0.00000  Uiso   1.00
C20    C     0.31181   0.23820   0.85204   0.00000  Uiso   1.00
C21    C     0.43899   0.35559   0.65256   0.00000  Uiso   1.00
C22    C     0.46755   0.45496   0.63746   0.00000  Uiso   1.00
C23    C     0.45436   0.52101   0.59529   0.00000  Uiso   1.00
H24    H     0.34122   0.18637   0.62924   0.00000  Uiso   1.00
H25    H     0.40167   0.01562   0.57605   0.00000  Uiso   1.00
H26    H     0.25644   0.17024   0.74028   0.00000  Uiso   1.00
H27    H     0.35425   0.36425   0.56413   0.00000  Uiso   1.00
H28    H     0.48645   0.84052   0.52860   0.00000  Uiso   1.00
H29    H     0.18022   0.16657   0.87490   0.00000  Uiso   1.00
H30    H     0.38647   0.57569   0.50345   0.00000  Uiso   1.00
H31    H     0.47820   0.29601   0.71791   0.00000  Uiso   1.00
H32    H     0.54617   0.13127   0.66958   0.00000  Uiso   1.00
H33    H     0.40093   0.28588   0.83381   0.00000  Uiso   1.00
H34    H     0.49875   0.47990   0.65766   0.00000  Uiso   1.00
H35    H     0.60373   0.93438   0.60452   0.00000  Uiso   1.00
H36    H     0.29750   0.26044   0.95081   0.00000  Uiso   1.00
H37    H     0.50375   0.66955   0.57936   0.00000  Uiso   1.00
O38    O     0.58733   0.77708   0.53318   0.00000  Uiso   1.00
O39    O     0.18555   0.20487   0.98751   0.00000  Uiso   1.00
O40    O     0.45615   0.74162   0.50017   0.00000  Uiso   1.00
N41    N     0.50473   0.88523   0.55309   0.00000  Uiso   1.00
N42    N     0.21842   0.19005   0.87686   0.00000  Uiso   1.00
N43    N     0.41124   0.57256   0.52960   0.00000  Uiso   1.00
N44    N     0.56784   0.93574   0.59394   0.00000  Uiso   1.00
N45    N     0.28153   0.24056   0.91770   0.00000  Uiso   1.00
N46    N     0.47435   0.62306   0.57044   0.00000  Uiso   1.00
C47    C     0.87260   0.71149   0.64955   0.00000  Uiso   1.00
C48    C     0.92445   0.63393   0.63294   0.00000  Uiso   1.00
C49    C     0.93288   0.54057   0.59623   0.00000  Uiso   1.00
C50    C     0.98311   0.48053   0.58652   0.00000  Uiso   1.00
C51    C     0.05746   0.35516   0.55679   0.00000  Uiso   1.00
C52    C     0.84554   0.71792   0.72218   0.00000  Uiso   1.00
C53    C     0.78762   0.69519   0.76049   0.00000  Uiso   1.00
C54    C     0.77143   0.70588   0.82590   0.00000  Uiso   1.00
C55    C     0.72326   0.71098   0.93470   0.00000  Uiso   1.00
C56    C     0.89868   0.82332   0.62647   0.00000  Uiso   1.00
C57    C     0.88544   0.88925   0.58431   0.00000  Uiso   1.00
C58    C     0.91398   0.98869   0.56915   0.00000  Uiso   1.00
C59    C     0.94833   0.15745   0.52935   0.00000  Uiso   1.00
C60    C     0.94682   0.77089   0.69759   0.00000  Uiso   1.00
C61    C     0.96475   0.66619   0.65904   0.00000  Uiso   1.00
C62    C     0.01499   0.60628   0.64938   0.00000  Uiso   1.00
C63    C     0.02349   0.51285   0.61266   0.00000  Uiso   1.00
C64    C     0.88584   0.75018   0.74827   0.00000  Uiso   1.00
C65    C     0.86973   0.76091   0.81364   0.00000  Uiso   1.00
C66    C     0.81181   0.73820   0.85204   0.00000  Uiso   1.00
C67    C     0.93899   0.85559   0.65256   0.00000  Uiso   1.00
C68    C     0.96755   0.95496   0.63746   0.00000  Uiso   1.00
C69    C     0.95436   0.02101   0.59529   0.00000  Uiso   1.00
H70    H     0.84122   0.68637   0.62924   0.00000  Uiso   1.00
H71    H     0.90167   0.51562   0.57605   0.00000  Uiso   1.00
H72    H     0.75644   0.67024   0.74028   0.00000  Uiso   1.00
H73    H     0.85425   0.86425   0.56413   0.00000  Uiso   1.00
H74    H     0.98645   0.34052   0.52860   0.00000  Uiso   1.00
H75    H     0.68022   0.66657   0.87490   0.00000  Uiso   1.00
H76    H     0.88647   0.07569   0.50345   0.00000  Uiso   1.00
H77    H     0.97820   0.79601   0.71791   0.00000  Uiso   1.00
H78    H     0.04617   0.63127   0.66958   0.00000  Uiso   1.00
H79    H     0.90093   0.78588   0.83381   0.00000  Uiso   1.00
H80    H     0.99875   0.97990   0.65766   0.00000  Uiso   1.00
H81    H     0.10373   0.43438   0.60452   0.00000  Uiso   1.00
H82    H     0.79750   0.76044   0.95081   0.00000  Uiso   1.00
H83    H     0.00375   0.16955   0.57936   0.00000  Uiso   1.00
O84    O     0.08733   0.27708   0.53318   0.00000  Uiso   1.00
O85    O     0.68555   0.70487   0.98751   0.00000  Uiso   1.00
O86    O     0.95615   0.24162   0.50017   0.00000  Uiso   1.00
N87    N     0.00473   0.38523   0.55309   0.00000  Uiso   1.00
N88    N     0.71842   0.69005   0.87686   0.00000  Uiso   1.00
N89    N     0.91124   0.07256   0.52960   0.00000  Uiso   1.00
N90    N     0.06784   0.43574   0.59394   0.00000  Uiso   1.00
N91    N     0.78153   0.74056   0.91770   0.00000  Uiso   1.00
N92    N     0.97435   0.12306   0.57044   0.00000  Uiso   1.00
C93    C     0.62740   0.21149   0.85045   0.00000  Uiso   1.00
C94    C     0.57555   0.13393   0.86706   0.00000  Uiso   1.00
C95    C     0.56712   0.04057   0.90377   0.00000  Uiso   1.00
C96    C     0.51689   0.98053   0.91348   0.00000  Uiso   1.00
C97    C     0.44254   0.85516   0.94321   0.00000  Uiso   1.00
C98    C     0.65446   0.21792   0.77782   0.00000  Uiso   1.00
C99    C     0.71238   0.19519   0.73951   0.00000  Uiso   1.00
C100   C     0.72857   0.20588   0.67410   0.00000  Uiso   1.00
C101   C     0.77674   0.21098   0.56530   0.00000  Uiso   1.00
C102   C     0.60132   0.32332   0.87353   0.00000  Uiso   1.00
C103   C     0.61456   0.38925   0.91569   0.00000  Uiso   1.00
C104   C     0.58602   0.48869   0.93085   0.00000  Uiso   1.00
C105   C     0.55167   0.65745   0.97065   0.00000  Uiso   1.00
C106   C     0.55318   0.27089   0.80241   0.00000  Uiso   1.00
C107   C     0.53525   0.16619   0.84096   0.00000  Uiso   1.00
C108   C     0.48501   0.10628   0.85062   0.00000  Uiso   1.00
C109   C     0.47651   0.01285   0.88734   0.00000  Uiso   1.00
C110   C     0.61416   0.25018   0.75173   0.00000  Uiso   1.00
C111   C     0.63027   0.26091   0.68636   0.00000  Uiso   1.00
C112   C     0.68819   0.23820   0.64796   0.00000  Uiso   1.00
C113   C     0.56101   0.35559   0.84744   0.00000  Uiso   1.00
C114   C     0.53245   0.45496   0.86254   0.00000  Uiso   1.00
C115   C     0.54564   0.52101   0.90471   0.00000  Uiso   1.00
H116   H     0.65878   0.18637   0.87076   0.00000  Uiso   1.00
H117   H     0.59833   0.01562   0.92395   0.00000  Uiso   1.00
H118   H     0.74356   0.17024   0.75972   0.00000  Uiso   1.00
H119   H     0.64575   0.36425   0.93587   0.00000  Uiso   1.00
H120   H     0.51355   0.84052   0.97140   0.00000  Uiso   1.00
H121   H     0.81978   0.16657   0.62510   0.00000  Uiso   1.00
H122   H     0.61353   0.57569   0.99655   0.00000  Uiso   1.00
H123   H     0.52180   0.29601   0.78209   0.00000  Uiso   1.00
H124   H     0.45383   0.13127   0.83042   0.00000  Uiso   1.00
H125   H     0.59907   0.28588   0.66619   0.00000  Uiso   1.00
H126   H     0.50125   0.47990   0.84234   0.00000  Uiso   1.00
H127   H     0.39627   0.93438   0.89548   0.00000  Uiso   1.00
H128   H     0.70250   0.26044   0.54919   0.00000  Uiso   1.00
H129   H     0.49625   0.66955   0.92064   0.00000  Uiso   1.00
O130   O     0.41267   0.77708   0.96682   0.00000  Uiso   1.00
O131   O     0.81445   0.20487   0.51249   0.00000  Uiso   1.00
O132   O     0.54385   0.74162   0.99983   0.00000  Uiso   1.00
N133   N     0.49527   0.88523   0.94691   0.00000  Uiso   1.00
N134   N     0.78158   0.19005   0.62314   0.00000  Uiso   1.00
N135   N     0.58876   0.57256   0.97040   0.00000  Uiso   1.00
N136   N     0.43216   0.93574   0.90606   0.00000  Uiso   1.00
N137   N     0.71847   0.24056   0.58230   0.00000  Uiso   1.00
N138   N     0.52565   0.62306   0.92956   0.00000  Uiso   1.00
C139   C     0.12740   0.71149   0.85045   0.00000  Uiso   1.00
C140   C     0.07555   0.63393   0.86706   0.00000  Uiso   1.00
C141   C     0.06712   0.54057   0.90377   0.00000  Uiso   1.00
C142   C     0.01689   0.48053   0.91348   0.00000  Uiso   1.00
C143   C     0.94254   0.35516   0.94321   0.00000  Uiso   1.00
C144   C     0.15446   0.71792   0.77782   0.00000  Uiso   1.00
C145   C     0.21238   0.69519   0.73951   0.00000  Uiso   1.00
C146   C     0.22857   0.70588   0.67410   0.00000  Uiso   1.00
C147   C     0.27674   0.71098   0.56530   0.00000  Uiso   1.00
C148   C     0.10132   0.82332   0.87353   0.00000  Uiso   1.00
C149   C     0.11456   0.88925   0.91569   0.00000  Uiso   1.00
C150   C     0.08602   0.98869   0.93085   0.00000  Uiso   1.00
C151   C     0.05167   0.15745   0.97065   0.00000  Uiso   1.00
C152   C     0.05318   0.77089   0.80241   0.00000  Uiso   1.00
C153   C     0.03525   0.66619   0.84096   0.00000  Uiso   1.00
C154   C     0.98501   0.60628   0.85062   0.00000  Uiso   1.00
C155   C     0.97651   0.51285   0.88734   0.00000  Uiso   1.00
C156   C     0.11416   0.75018   0.75173   0.00000  Uiso   1.00
C157   C     0.13027   0.76091   0.68636   0.00000  Uiso   1.00
C158   C     0.18819   0.73820   0.64796   0.00000  Uiso   1.00
C159   C     0.06101   0.85559   0.84744   0.00000  Uiso   1.00
C160   C     0.03245   0.95496   0.86254   0.00000  Uiso   1.00
C161   C     0.04564   0.02101   0.90471   0.00000  Uiso   1.00
H162   H     0.15878   0.68637   0.87076   0.00000  Uiso   1.00
H163   H     0.09833   0.51562   0.92395   0.00000  Uiso   1.00
H164   H     0.24356   0.67024   0.75972   0.00000  Uiso   1.00
H165   H     0.14575   0.86425   0.93587   0.00000  Uiso   1.00
H166   H     0.01355   0.34052   0.97140   0.00000  Uiso   1.00
H167   H     0.31978   0.66657   0.62510   0.00000  Uiso   1.00
H168   H     0.11353   0.07569   0.99655   0.00000  Uiso   1.00
H169   H     0.02180   0.79601   0.78209   0.00000  Uiso   1.00
H170   H     0.95383   0.63127   0.83042   0.00000  Uiso   1.00
H171   H     0.09907   0.78588   0.66619   0.00000  Uiso   1.00
H172   H     0.00125   0.97990   0.84234   0.00000  Uiso   1.00
H173   H     0.89627   0.43438   0.89548   0.00000  Uiso   1.00
H174   H     0.20250   0.76044   0.54919   0.00000  Uiso   1.00
H175   H     0.99625   0.16955   0.92064   0.00000  Uiso   1.00
O176   O     0.91267   0.27708   0.96682   0.00000  Uiso   1.00
O177   O     0.31445   0.70487   0.51249   0.00000  Uiso   1.00
O178   O     0.04385   0.24162   0.99983   0.00000  Uiso   1.00
N179   N     0.99527   0.38523   0.94691   0.00000  Uiso   1.00
N180   N     0.28158   0.69005   0.62314   0.00000  Uiso   1.00
N181   N     0.08876   0.07256   0.97040   0.00000  Uiso   1.00
N182   N     0.93216   0.43574   0.90606   0.00000  Uiso   1.00
N183   N     0.21847   0.74056   0.58230   0.00000  Uiso   1.00
N184   N     0.02565   0.12306   0.92956   0.00000  Uiso   1.00
C185   C     0.62740   0.78851   0.35045   0.00000  Uiso   1.00
C186   C     0.57555   0.86607   0.36706   0.00000  Uiso   1.00
C187   C     0.56712   0.95943   0.40377   0.00000  Uiso   1.00
C188   C     0.51689   0.01947   0.41348   0.00000  Uiso   1.00
C189   C     0.44254   0.14484   0.44321   0.00000  Uiso   1.00
C190   C     0.65446   0.78208   0.27782   0.00000  Uiso   1.00
C191   C     0.71238   0.80481   0.23951   0.00000  Uiso   1.00
C192   C     0.72857   0.79412   0.17410   0.00000  Uiso   1.00
C193   C     0.77674   0.78902   0.06530   0.00000  Uiso   1.00
C194   C     0.60132   0.67668   0.37353   0.00000  Uiso   1.00
C195   C     0.61456   0.61075   0.41569   0.00000  Uiso   1.00
C196   C     0.58602   0.51131   0.43085   0.00000  Uiso   1.00
C197   C     0.55167   0.34255   0.47065   0.00000  Uiso   1.00
C198   C     0.55318   0.72911   0.30241   0.00000  Uiso   1.00
C199   C     0.53525   0.83381   0.34096   0.00000  Uiso   1.00
C200   C     0.48501   0.89372   0.35062   0.00000  Uiso   1.00
C201   C     0.47651   0.98715   0.38734   0.00000  Uiso   1.00
C202   C     0.61416   0.74982   0.25173   0.00000  Uiso   1.00
C203   C     0.63027   0.73909   0.18636   0.00000  Uiso   1.00
C204   C     0.68819   0.76180   0.14796   0.00000  Uiso   1.00
C205   C     0.56101   0.64441   0.34744   0.00000  Uiso   1.00
C206   C     0.53245   0.54504   0.36254   0.00000  Uiso   1.00
C207   C     0.54564   0.47899   0.40471   0.00000  Uiso   1.00
H208   H     0.65878   0.81363   0.37076   0.00000  Uiso   1.00
H209   H     0.59833   0.98438   0.42395   0.00000  Uiso   1.00
H210   H     0.74356   0.82976   0.25972   0.00000  Uiso   1.00
H211   H     0.64575   0.63575   0.43587   0.00000  Uiso   1.00
H212   H     0.51355   0.15948   0.47140   0.00000  Uiso   1.00
H213   H     0.81978   0.83343   0.12510   0.00000  Uiso   1.00
H214   H     0.61353   0.42431   0.49655   0.00000  Uiso   1.00
H215   H     0.52180   0.70399   0.28209   0.00000  Uiso   1.00
H216   H     0.45383   0.86873   0.33042   0.00000  Uiso   1.00
H217   H     0.59907   0.71412   0.16619   0.00000  Uiso   1.00
H218   H     0.50125   0.52010   0.34234   0.00000  Uiso   1.00
H219   H     0.39627   0.06562   0.39548   0.00000  Uiso   1.00
H220   H     0.70250   0.73956   0.04919   0.00000  Uiso   1.00
H221   H     0.49625   0.33045   0.42064   0.00000  Uiso   1.00
O222   O     0.41267   0.22292   0.46682   0.00000  Uiso   1.00
O223   O     0.81445   0.79513   0.01249   0.00000  Uiso   1.00
O224   O     0.54385   0.25838   0.49983   0.00000  Uiso   1.00
N225   N     0.49527   0.11477   0.44691   0.00000  Uiso   1.00
N226   N     0.78158   0.80995   0.12314   0.00000  Uiso   1.00
N227   N     0.58876   0.42744   0.47040   0.00000  Uiso   1.00
N228   N     0.43216   0.06426   0.40606   0.00000  Uiso   1.00
N229   N     0.71847   0.75944   0.08230   0.00000  Uiso   1.00
N230   N     0.52565   0.37694   0.42956   0.00000  Uiso   1.00
C231   C     0.12740   0.28851   0.35045   0.00000  Uiso   1.00
C232   C     0.07555   0.36607   0.36706   0.00000  Uiso   1.00
C233   C     0.06712   0.45943   0.40377   0.00000  Uiso   1.00
C234   C     0.01689   0.51947   0.41348   0.00000  Uiso   1.00
C235   C     0.94254   0.64484   0.44321   0.00000  Uiso   1.00
C236   C     0.15446   0.28208   0.27782   0.00000  Uiso   1.00
C237   C     0.21238   0.30481   0.23951   0.00000  Uiso   1.00
C238   C     0.22857   0.29412   0.17410   0.00000  Uiso   1.00
C239   C     0.27674   0.28902   0.06530   0.00000  Uiso   1.00
C240   C     0.10132   0.17668   0.37353   0.00000  Uiso   1.00
C241   C     0.11456   0.11075   0.41569   0.00000  Uiso   1.00
C242   C     0.08602   0.01131   0.43085   0.00000  Uiso   1.00
C243   C     0.05167   0.84255   0.47065   0.00000  Uiso   1.00
C244   C     0.05318   0.22911   0.30241   0.00000  Uiso   1.00
C245   C     0.03525   0.33381   0.34096   0.00000  Uiso   1.00
C246   C     0.98501   0.39372   0.35062   0.00000  Uiso   1.00
C247   C     0.97651   0.48715   0.38734   0.00000  Uiso   1.00
C248   C     0.11416   0.24982   0.25173   0.00000  Uiso   1.00
C249   C     0.13027   0.23909   0.18636   0.00000  Uiso   1.00
C250   C     0.18819   0.26180   0.14796   0.00000  Uiso   1.00
C251   C     0.06101   0.14441   0.34744   0.00000  Uiso   1.00
C252   C     0.03245   0.04504   0.36254   0.00000  Uiso   1.00
C253   C     0.04564   0.97899   0.40471   0.00000  Uiso   1.00
H254   H     0.15878   0.31363   0.37076   0.00000  Uiso   1.00
H255   H     0.09833   0.48438   0.42395   0.00000  Uiso   1.00
H256   H     0.24356   0.32976   0.25972   0.00000  Uiso   1.00
H257   H     0.14575   0.13575   0.43587   0.00000  Uiso   1.00
H258   H     0.01355   0.65948   0.47140   0.00000  Uiso   1.00
H259   H     0.31978   0.33343   0.12510   0.00000  Uiso   1.00
H260   H     0.11353   0.92431   0.49655   0.00000  Uiso   1.00
H261   H     0.02180   0.20399   0.28209   0.00000  Uiso   1.00
H262   H     0.95383   0.36873   0.33042   0.00000  Uiso   1.00
H263   H     0.09907   0.21412   0.16619   0.00000  Uiso   1.00
H264   H     0.00125   0.02010   0.34234   0.00000  Uiso   1.00
H265   H     0.89627   0.56562   0.39548   0.00000  Uiso   1.00
H266   H     0.20250   0.23956   0.04919   0.00000  Uiso   1.00
H267   H     0.99625   0.83045   0.42064   0.00000  Uiso   1.00
O268   O     0.91267   0.72292   0.46682   0.00000  Uiso   1.00
O269   O     0.31445   0.29513   0.01249   0.00000  Uiso   1.00
O270   O     0.04385   0.75838   0.49983   0.00000  Uiso   1.00
N271   N     0.99527   0.61477   0.44691   0.00000  Uiso   1.00
N272   N     0.28158   0.30995   0.12314   0.00000  Uiso   1.00
N273   N     0.08876   0.92744   0.47040   0.00000  Uiso   1.00
N274   N     0.93216   0.56426   0.40606   0.00000  Uiso   1.00
N275   N     0.21847   0.25944   0.08230   0.00000  Uiso   1.00
N276   N     0.02565   0.87694   0.42956   0.00000  Uiso   1.00
C277   C     0.37260   0.78851   0.14955   0.00000  Uiso   1.00
C278   C     0.42445   0.86607   0.13294   0.00000  Uiso   1.00
C279   C     0.43288   0.95943   0.09623   0.00000  Uiso   1.00
C280   C     0.48311   0.01947   0.08652   0.00000  Uiso   1.00
C281   C     0.55746   0.14484   0.05679   0.00000  Uiso   1.00
C282   C     0.34554   0.78208   0.22218   0.00000  Uiso   1.00
C283   C     0.28762   0.80481   0.26049   0.00000  Uiso   1.00
C284   C     0.27143   0.79412   0.32590   0.00000  Uiso   1.00
C285   C     0.22326   0.78902   0.43470   0.00000  Uiso   1.00
C286   C     0.39868   0.67668   0.12647   0.00000  Uiso   1.00
C287   C     0.38544   0.61075   0.08431   0.00000  Uiso   1.00
C288   C     0.41398   0.51131   0.06915   0.00000  Uiso   1.00
C289   C     0.44833   0.34255   0.02935   0.00000  Uiso   1.00
C290   C     0.44682   0.72911   0.19759   0.00000  Uiso   1.00
C291   C     0.46475   0.83381   0.15904   0.00000  Uiso   1.00
C292   C     0.51499   0.89372   0.14938   0.00000  Uiso   1.00
C293   C     0.52349   0.98715   0.11266   0.00000  Uiso   1.00
C294   C     0.38584   0.74982   0.24827   0.00000  Uiso   1.00
C295   C     0.36973   0.73909   0.31364   0.00000  Uiso   1.00
C296   C     0.31181   0.76180   0.35204   0.00000  Uiso   1.00
C297   C     0.43899   0.64441   0.15256   0.00000  Uiso   1.00
C298   C     0.46755   0.54504   0.13746   0.00000  Uiso   1.00
C299   C     0.45436   0.47899   0.09529   0.00000  Uiso   1.00
H300   H     0.34122   0.81363   0.12924   0.00000  Uiso   1.00
H301   H     0.40167   0.98438   0.07605   0.00000  Uiso   1.00
H302   H     0.25644   0.82976   0.24028   0.00000  Uiso   1.00
H303   H     0.35425   0.63575   0.06413   0.00000  Uiso   1.00
H304   H     0.48645   0.15948   0.02860   0.00000  Uiso   1.00
H305   H     0.18022   0.83343   0.37490   0.00000  Uiso   1.00
H306   H     0.38647   0.42431   0.00345   0.00000  Uiso   1.00
H307   H     0.47820   0.70399   0.21791   0.00000  Uiso   1.00
H308   H     0.54617   0.86873   0.16958   0.00000  Uiso   1.00
H309   H     0.40093   0.71412   0.33381   0.00000  Uiso   1.00
H310   H     0.49875   0.52010   0.15766   0.00000  Uiso   1.00
H311   H     0.60373   0.06562   0.10452   0.00000  Uiso   1.00
H312   H     0.29750   0.73956   0.45081   0.00000  Uiso   1.00
H313   H     0.50375   0.33045   0.07936   0.00000  Uiso   1.00
O314   O     0.58733   0.22292   0.03318   0.00000  Uiso   1.00
O315   O     0.18555   0.79513   0.48751   0.00000  Uiso   1.00
O316   O     0.45615   0.25838   0.00017   0.00000  Uiso   1.00
N317   N     0.50473   0.11477   0.05309   0.00000  Uiso   1.00
N318   N     0.21842   0.80995   0.37686   0.00000  Uiso   1.00
N319   N     0.41124   0.42744   0.02960   0.00000  Uiso   1.00
N320   N     0.56784   0.06426   0.09394   0.00000  Uiso   1.00
N321   N     0.28153   0.75944   0.41770   0.00000  Uiso   1.00
N322   N     0.47435   0.37694   0.07044   0.00000  Uiso   1.00
C323   C     0.87260   0.28851   0.14955   0.00000  Uiso   1.00
C324   C     0.92445   0.36607   0.13294   0.00000  Uiso   1.00
C325   C     0.93288   0.45943   0.09623   0.00000  Uiso   1.00
C326   C     0.98311   0.51947   0.08652   0.00000  Uiso   1.00
C327   C     0.05746   0.64484   0.05679   0.00000  Uiso   1.00
C328   C     0.84554   0.28208   0.22218   0.00000  Uiso   1.00
C329   C     0.78762   0.30481   0.26049   0.00000  Uiso   1.00
C330   C     0.77143   0.29412   0.32590   0.00000  Uiso   1.00
C331   C     0.72326   0.28902   0.43470   0.00000  Uiso   1.00
C332   C     0.89868   0.17668   0.12647   0.00000  Uiso   1.00
C333   C     0.88544   0.11075   0.08431   0.00000  Uiso   1.00
C334   C     0.91398   0.01131   0.06915   0.00000  Uiso   1.00
C335   C     0.94833   0.84255   0.02935   0.00000  Uiso   1.00
C336   C     0.94682   0.22911   0.19759   0.00000  Uiso   1.00
C337   C     0.96475   0.33381   0.15904   0.00000  Uiso   1.00
C338   C     0.01499   0.39372   0.14938   0.00000  Uiso   1.00
C339   C     0.02349   0.48715   0.11266   0.00000  Uiso   1.00
C340   C     0.88584   0.24982   0.24827   0.00000  Uiso   1.00
C341   C     0.86973   0.23909   0.31364   0.00000  Uiso   1.00
C342   C     0.81181   0.26180   0.35204   0.00000  Uiso   1.00
C343   C     0.93899   0.14441   0.15256   0.00000  Uiso   1.00
C344   C     0.96755   0.04504   0.13746   0.00000  Uiso   1.00
C345   C     0.95436   0.97899   0.09529   0.00000  Uiso   1.00
H346   H     0.84122   0.31363   0.12924   0.00000  Uiso   1.00
H347   H     0.90167   0.48438   0.07605   0.00000  Uiso   1.00
H348   H     0.75644   0.32976   0.24028   0.00000  Uiso   1.00
H349   H     0.85425   0.13575   0.06413   0.00000  Uiso   1.00
H350   H     0.98645   0.65948   0.02860   0.00000  Uiso   1.00
H351   H     0.68022   0.33343   0.37490   0.00000  Uiso   1.00
H352   H     0.88647   0.92431   0.00345   0.00000  Uiso   1.00
H353   H     0.97820   0.20399   0.21791   0.00000  Uiso   1.00
H354   H     0.04617   0.36873   0.16958   0.00000  Uiso   1.00
H355   H     0.90093   0.21412   0.33381   0.00000  Uiso   1.00
H356   H     0.99875   0.02010   0.15766   0.00000  Uiso   1.00
H357   H     0.10373   0.56562   0.10452   0.00000  Uiso   1.00
H358   H     0.79750   0.23956   0.45081   0.00000  Uiso   1.00
H359   H     0.00375   0.83045   0.07936   0.00000  Uiso   1.00
O360   O     0.08733   0.72292   0.03318   0.00000  Uiso   1.00
O361   O     0.68555   0.29513   0.48751   0.00000  Uiso   1.00
O362   O     0.95615   0.75838   0.00017   0.00000  Uiso   1.00
N363   N     0.00473   0.61477   0.05309   0.00000  Uiso   1.00
N364   N     0.71842   0.30995   0.37686   0.00000  Uiso   1.00
N365   N     0.91124   0.92744   0.02960   0.00000  Uiso   1.00
N366   N     0.06784   0.56426   0.09394   0.00000  Uiso   1.00
N367   N     0.78153   0.25944   0.41770   0.00000  Uiso   1.00
N368   N     0.97435   0.87694   0.07044   0.00000  Uiso   1.00
