data_job_04797
_audit_creation_date              2018-12-19
_audit_creation_method            'Materials Studio'
_symmetry_space_group_name_H-M    'P1'
_symmetry_Int_Tables_number       1
_symmetry_cell_setting            triclinic
loop_
_symmetry_equiv_pos_as_xyz
  x,y,z
_cell_length_a                    14.9765
_cell_length_b                    10.6767
_cell_length_c                    14.9146
_cell_angle_alpha                 81.9088
_cell_angle_beta                  92.0414
_cell_angle_gamma                 103.5750
loop_
_atom_site_label
_atom_site_type_symbol
_atom_site_fract_x
_atom_site_fract_y
_atom_site_fract_z
_atom_site_U_iso_or_equiv
_atom_site_adp_type
_atom_site_occupancy
C1     C     0.25814   0.68897   0.46990   0.00000  Uiso   1.00
C2     C     0.16658   0.59368   0.45802   0.00000  Uiso   1.00
C3     C     0.09755   0.55046   0.52241   0.00000  Uiso   1.00
C4     C     0.01898   0.46330   0.49846   0.00000  Uiso   1.00
C5     C     0.87821   0.32174   0.49300   0.00000  Uiso   1.00
C6     C     0.33232   0.61947   0.45156   0.00000  Uiso   1.00
C7     C     0.40265   0.59794   0.51050   0.00000  Uiso   1.00
C8     C     0.46361   0.53251   0.48111   0.00000  Uiso   1.00
C9     C     0.58020   0.43106   0.46559   0.00000  Uiso   1.00
C10    C     0.26403   0.80035   0.39254   0.00000  Uiso   1.00
C11    C     0.27696   0.93092   0.40186   0.00000  Uiso   1.00
C12    C     0.28044   0.01779   0.32277   0.00000  Uiso   1.00
C13    C     0.29100   0.19719   0.21561   0.00000  Uiso   1.00
C14    C     0.24135   0.61106   0.31288   0.00000  Uiso   1.00
C15    C     0.15746   0.55137   0.37273   0.00000  Uiso   1.00
C16    C     0.07897   0.46426   0.34868   0.00000  Uiso   1.00
C17    C     0.00984   0.42092   0.41302   0.00000  Uiso   1.00
C18    C     0.32320   0.57715   0.36627   0.00000  Uiso   1.00
C19    C     0.38408   0.51175   0.33678   0.00000  Uiso   1.00
C20    C     0.45448   0.49012   0.39567   0.00000  Uiso   1.00
C21    C     0.25491   0.75804   0.30725   0.00000  Uiso   1.00
C22    C     0.25838   0.84472   0.22814   0.00000  Uiso   1.00
C23    C     0.27131   0.97539   0.23733   0.00000  Uiso   1.00
H24    H     0.26525   0.72191   0.53630   0.00000  Uiso   1.00
H25    H     0.10464   0.58322   0.58840   0.00000  Uiso   1.00
H26    H     0.40970   0.63071   0.57650   0.00000  Uiso   1.00
H27    H     0.28402   0.96363   0.46787   0.00000  Uiso   1.00
H28    H     0.92256   0.41075   0.60857   0.00000  Uiso   1.00
H29    H     0.56582   0.51093   0.58345   0.00000  Uiso   1.00
H30    H     0.30080   0.21296   0.35439   0.00000  Uiso   1.00
H31    H     0.23425   0.57812   0.24648   0.00000  Uiso   1.00
H32    H     0.07193   0.43154   0.28268   0.00000  Uiso   1.00
H33    H     0.37700   0.47902   0.27078   0.00000  Uiso   1.00
H34    H     0.25132   0.81194   0.16215   0.00000  Uiso   1.00
H35    H     0.89602   0.28764   0.36043   0.00000  Uiso   1.00
H36    H     0.53928   0.38782   0.33531   0.00000  Uiso   1.00
H37    H     0.27426   0.08985   0.10625   0.00000  Uiso   1.00
O38    O     0.80309   0.25533   0.51355   0.00000  Uiso   1.00
O39    O     0.64702   0.38678   0.48059   0.00000  Uiso   1.00
O40    O     0.29932   0.30782   0.18007   0.00000  Uiso   1.00
N41    N     0.93859   0.40192   0.54519   0.00000  Uiso   1.00
N42    N     0.53998   0.49556   0.52172   0.00000  Uiso   1.00
N43    N     0.29224   0.15190   0.30756   0.00000  Uiso   1.00
N44    N     0.92430   0.33567   0.41167   0.00000  Uiso   1.00
N45    N     0.52570   0.42931   0.38820   0.00000  Uiso   1.00
N46    N     0.27796   0.08565   0.17404   0.00000  Uiso   1.00
C47    C     0.79573   0.85102   0.49903   0.00000  Uiso   1.00
C48    C     0.72154   0.92049   0.51742   0.00000  Uiso   1.00
C49    C     0.65119   0.94201   0.45851   0.00000  Uiso   1.00
C50    C     0.59025   0.00743   0.48793   0.00000  Uiso   1.00
C51    C     0.47369   0.10892   0.50350   0.00000  Uiso   1.00
C52    C     0.88729   0.94633   0.51087   0.00000  Uiso   1.00
C53    C     0.95629   0.98956   0.44646   0.00000  Uiso   1.00
C54    C     0.03488   0.07673   0.47037   0.00000  Uiso   1.00
C55    C     0.17567   0.21826   0.47580   0.00000  Uiso   1.00
C56    C     0.78991   0.73964   0.57639   0.00000  Uiso   1.00
C57    C     0.77707   0.60909   0.56706   0.00000  Uiso   1.00
C58    C     0.77369   0.52224   0.64614   0.00000  Uiso   1.00
C59    C     0.76329   0.34285   0.75328   0.00000  Uiso   1.00
C60    C     0.81259   0.92892   0.65605   0.00000  Uiso   1.00
C61    C     0.73071   0.96280   0.60271   0.00000  Uiso   1.00
C62    C     0.66985   0.02820   0.63223   0.00000  Uiso   1.00
C63    C     0.59942   0.04982   0.57337   0.00000  Uiso   1.00
C64    C     0.89645   0.98865   0.59616   0.00000  Uiso   1.00
C65    C     0.97495   0.07576   0.62018   0.00000  Uiso   1.00
C66    C     0.04406   0.11912   0.55581   0.00000  Uiso   1.00
C67    C     0.79907   0.78195   0.66168   0.00000  Uiso   1.00
C68    C     0.79572   0.69529   0.74078   0.00000  Uiso   1.00
C69    C     0.78287   0.56463   0.73158   0.00000  Uiso   1.00
H70    H     0.78860   0.81808   0.43263   0.00000  Uiso   1.00
H71    H     0.64413   0.90926   0.39251   0.00000  Uiso   1.00
H72    H     0.94919   0.95679   0.38046   0.00000  Uiso   1.00
H73    H     0.76998   0.57638   0.50105   0.00000  Uiso   1.00
H74    H     0.48802   0.02905   0.38562   0.00000  Uiso   1.00
H75    H     0.13126   0.12924   0.36024   0.00000  Uiso   1.00
H76    H     0.75337   0.32707   0.61452   0.00000  Uiso   1.00
H77    H     0.81973   0.96187   0.72245   0.00000  Uiso   1.00
H78    H     0.67696   0.06094   0.69823   0.00000  Uiso   1.00
H79    H     0.98202   0.10847   0.68619   0.00000  Uiso   1.00
H80    H     0.80281   0.72806   0.80677   0.00000  Uiso   1.00
H81    H     0.51467   0.15217   0.63376   0.00000  Uiso   1.00
H82    H     0.15791   0.25235   0.60838   0.00000  Uiso   1.00
H83    H     0.78002   0.45018   0.86265   0.00000  Uiso   1.00
O84    O     0.40688   0.15322   0.48852   0.00000  Uiso   1.00
O85    O     0.25080   0.28465   0.45523   0.00000  Uiso   1.00
O86    O     0.75501   0.23222   0.78883   0.00000  Uiso   1.00
N87    N     0.51387   0.04441   0.44735   0.00000  Uiso   1.00
N88    N     0.11526   0.13810   0.42362   0.00000  Uiso   1.00
N89    N     0.76199   0.38814   0.66134   0.00000  Uiso   1.00
N90    N     0.52821   0.11065   0.58087   0.00000  Uiso   1.00
N91    N     0.12960   0.20434   0.55714   0.00000  Uiso   1.00
N92    N     0.77633   0.45438   0.79486   0.00000  Uiso   1.00
C93    C     0.75813   0.19870   0.02138   0.00000  Uiso   1.00
C94    C     0.83308   0.12455   0.04571   0.00000  Uiso   1.00
C95    C     0.90922   0.13161   0.99321   0.00000  Uiso   1.00
C96    C     0.96985   0.05616   0.02736   0.00000  Uiso   1.00
C97    C     0.08849   0.95308   0.05238   0.00000  Uiso   1.00
C98    C     0.66786   0.09609   0.02426   0.00000  Uiso   1.00
C99    C     0.60508   0.07924   0.95373   0.00000  Uiso   1.00
C100   C     0.52662   0.97984   0.96984   0.00000  Uiso   1.00
C101   C     0.38872   0.83265   0.96159   0.00000  Uiso   1.00
C102   C     0.75445   0.27501   0.09971   0.00000  Uiso   1.00
C103   C     0.76445   0.40859   0.09262   0.00000  Uiso   1.00
C104   C     0.75887   0.45983   0.17224   0.00000  Uiso   1.00
C105   C     0.75541   0.59043   0.28113   0.00000  Uiso   1.00
C106   C     0.73040   0.05215   0.17539   0.00000  Uiso   1.00
C107   C     0.81801   0.04495   0.12936   0.00000  Uiso   1.00
C108   C     0.87854   0.96947   0.16360   0.00000  Uiso   1.00
C109   C     0.95476   0.97642   0.11116   0.00000  Uiso   1.00
C110   C     0.65279   0.01650   0.10791   0.00000  Uiso   1.00
C111   C     0.57440   0.91711   0.12412   0.00000  Uiso   1.00
C112   C     0.51153   0.90010   0.05364   0.00000  Uiso   1.00
C113   C     0.73938   0.19542   0.18336   0.00000  Uiso   1.00
C114   C     0.73377   0.24645   0.26300   0.00000  Uiso   1.00
C115   C     0.74377   0.38009   0.25604   0.00000  Uiso   1.00
H116   H     0.76986   0.26066   0.95626   0.00000  Uiso   1.00
H117   H     0.92085   0.19321   0.92847   0.00000  Uiso   1.00
H118   H     0.61676   0.14086   0.88901   0.00000  Uiso   1.00
H119   H     0.77611   0.47016   0.02787   0.00000  Uiso   1.00
H120   H     0.08160   0.08329   0.93455   0.00000  Uiso   1.00
H121   H     0.44039   0.97293   0.85135   0.00000  Uiso   1.00
H122   H     0.77640   0.66732   0.14416   0.00000  Uiso   1.00
H123   H     0.71867   0.99018   0.24051   0.00000  Uiso   1.00
H124   H     0.86686   0.90788   0.22833   0.00000  Uiso   1.00
H125   H     0.56276   0.85553   0.18887   0.00000  Uiso   1.00
H126   H     0.72211   0.18483   0.32773   0.00000  Uiso   1.00
H127   H     0.03778   0.85170   0.17792   0.00000  Uiso   1.00
H128   H     0.39656   0.74135   0.09472   0.00000  Uiso   1.00
H129   H     0.73258   0.43574   0.38753   0.00000  Uiso   1.00
O130   O     0.15808   0.91821   0.04307   0.00000  Uiso   1.00
O131   O     0.31683   0.77345   0.93393   0.00000  Uiso   1.00
O132   O     0.75768   0.68446   0.31809   0.00000  Uiso   1.00
N133   N     0.05096   0.04010   0.99350   0.00000  Uiso   1.00
N134   N     0.45147   0.93691   0.91571   0.00000  Uiso   1.00
N135   N     0.76559   0.58610   0.18946   0.00000  Uiso   1.00
N136   N     0.02738   0.91549   0.12446   0.00000  Uiso   1.00
N137   N     0.42789   0.81230   0.04667   0.00000  Uiso   1.00
N138   N     0.74201   0.46149   0.32042   0.00000  Uiso   1.00
C139   C     0.29601   0.34135   0.94758   0.00000  Uiso   1.00
C140   C     0.38629   0.44393   0.94467   0.00000  Uiso   1.00
C141   C     0.44907   0.46080   0.01519   0.00000  Uiso   1.00
C142   C     0.52754   0.56018   0.99907   0.00000  Uiso   1.00
C143   C     0.66542   0.70740   0.00730   0.00000  Uiso   1.00
C144   C     0.22107   0.41552   0.92325   0.00000  Uiso   1.00
C145   C     0.14493   0.40848   0.97576   0.00000  Uiso   1.00
C146   C     0.08431   0.48393   0.94160   0.00000  Uiso   1.00
C147   C     0.96564   0.58697   0.91655   0.00000  Uiso   1.00
C148   C     0.29964   0.26500   0.86926   0.00000  Uiso   1.00
C149   C     0.28954   0.13140   0.87635   0.00000  Uiso   1.00
C150   C     0.29504   0.08013   0.79673   0.00000  Uiso   1.00
C151   C     0.29837   0.94946   0.68784   0.00000  Uiso   1.00
C152   C     0.32372   0.48785   0.79355   0.00000  Uiso   1.00
C153   C     0.40134   0.52350   0.86101   0.00000  Uiso   1.00
C154   C     0.47974   0.62289   0.84478   0.00000  Uiso   1.00
C155   C     0.54262   0.63990   0.91526   0.00000  Uiso   1.00
C156   C     0.23613   0.49509   0.83960   0.00000  Uiso   1.00
C157   C     0.17560   0.57057   0.80535   0.00000  Uiso   1.00
C158   C     0.09939   0.56365   0.85779   0.00000  Uiso   1.00
C159   C     0.31470   0.34457   0.78560   0.00000  Uiso   1.00
C160   C     0.32021   0.29349   0.70595   0.00000  Uiso   1.00
C161   C     0.31012   0.15984   0.71292   0.00000  Uiso   1.00
H162   H     0.28428   0.27940   0.01271   0.00000  Uiso   1.00
H163   H     0.43739   0.39920   0.07992   0.00000  Uiso   1.00
H164   H     0.13329   0.34688   0.04049   0.00000  Uiso   1.00
H165   H     0.27789   0.06985   0.94110   0.00000  Uiso   1.00
H166   H     0.61377   0.56715   0.11756   0.00000  Uiso   1.00
H167   H     0.97255   0.45680   0.03441   0.00000  Uiso   1.00
H168   H     0.27744   0.87262   0.82483   0.00000  Uiso   1.00
H169   H     0.33544   0.54980   0.72842   0.00000  Uiso   1.00
H170   H     0.49137   0.68445   0.78003   0.00000  Uiso   1.00
H171   H     0.18727   0.63213   0.74061   0.00000  Uiso   1.00
H172   H     0.33186   0.35510   0.64122   0.00000  Uiso   1.00
H173   H     0.65757   0.79867   0.87416   0.00000  Uiso   1.00
H174   H     0.01635   0.68831   0.79101   0.00000  Uiso   1.00
H175   H     0.32125   0.10414   0.58143   0.00000  Uiso   1.00
O176   O     0.73730   0.76664   0.03495   0.00000  Uiso   1.00
O177   O     0.89604   0.62183   0.92585   0.00000  Uiso   1.00
O178   O     0.29606   0.85541   0.65090   0.00000  Uiso   1.00
N179   N     0.60269   0.60315   0.05319   0.00000  Uiso   1.00
N180   N     0.00319   0.49998   0.97545   0.00000  Uiso   1.00
N181   N     0.28822   0.95383   0.77951   0.00000  Uiso   1.00
N182   N     0.62626   0.72772   0.92222   0.00000  Uiso   1.00
N183   N     0.02676   0.62456   0.84448   0.00000  Uiso   1.00
N184   N     0.31179   0.07841   0.64854   0.00000  Uiso   1.00
