data_job_01447
_audit_creation_date              2018-12-19
_audit_creation_method            'Materials Studio'
_symmetry_space_group_name_H-M    'P1'
_symmetry_Int_Tables_number       1
_symmetry_cell_setting            triclinic
loop_
_symmetry_equiv_pos_as_xyz
  x,y,z
_cell_length_a                    14.6815
_cell_length_b                    22.7634
_cell_length_c                    14.6994
_cell_angle_alpha                 90.0000
_cell_angle_beta                  90.0000
_cell_angle_gamma                 90.0000
loop_
_atom_site_label
_atom_site_type_symbol
_atom_site_fract_x
_atom_site_fract_y
_atom_site_fract_z
_atom_site_U_iso_or_equiv
_atom_site_adp_type
_atom_site_occupancy
C1     C     0.80283   0.95500   0.12287   0.00000  Uiso   1.00
C2     C     0.82483   0.90396   0.18637   0.00000  Uiso   1.00
C3     C     0.89747   0.86542   0.17705   0.00000  Uiso   1.00
C4     C     0.90584   0.82163   0.24226   0.00000  Uiso   1.00
C5     C     0.94943   0.74313   0.32990   0.00000  Uiso   1.00
C6     C     0.70542   0.94496   0.09037   0.00000  Uiso   1.00
C7     C     0.67767   0.94089   0.00034   0.00000  Uiso   1.00
C8     C     0.58551   0.93161   0.98474   0.00000  Uiso   1.00
C9     C     0.44371   0.91680   0.92334   0.00000  Uiso   1.00
C10    C     0.79988   0.00975   0.18257   0.00000  Uiso   1.00
C11    C     0.85152   0.06017   0.17005   0.00000  Uiso   1.00
C12    C     0.83888   0.10545   0.23207   0.00000  Uiso   1.00
C13    C     0.84373   0.19123   0.31382   0.00000  Uiso   1.00
C14    C     0.68851   0.94576   0.25525   0.00000  Uiso   1.00
C15    C     0.76274   0.89895   0.25827   0.00000  Uiso   1.00
C16    C     0.77100   0.85520   0.32352   0.00000  Uiso   1.00
C17    C     0.84364   0.81660   0.31430   0.00000  Uiso   1.00
C18    C     0.64333   0.93994   0.16227   0.00000  Uiso   1.00
C19    C     0.55119   0.93067   0.14681   0.00000  Uiso   1.00
C20    C     0.52331   0.92659   0.05677   0.00000  Uiso   1.00
C21    C     0.73779   0.00473   0.25448   0.00000  Uiso   1.00
C22    C     0.72505   0.04994   0.31652   0.00000  Uiso   1.00
C23    C     0.77667   0.10042   0.30410   0.00000  Uiso   1.00
H24    H     0.85116   0.95891   0.06688   0.00000  Uiso   1.00
H25    H     0.94551   0.86932   0.12139   0.00000  Uiso   1.00
H26    H     0.72573   0.94478   0.94471   0.00000  Uiso   1.00
H27    H     0.89956   0.06403   0.11440   0.00000  Uiso   1.00
H28    H     0.02271   0.76776   0.21351   0.00000  Uiso   1.00
H29    H     0.55929   0.92690   0.84097   0.00000  Uiso   1.00
H30    H     0.92585   0.17837   0.19879   0.00000  Uiso   1.00
H31    H     0.64017   0.94186   0.31123   0.00000  Uiso   1.00
H32    H     0.72294   0.85133   0.37915   0.00000  Uiso   1.00
H33    H     0.50316   0.92679   0.20247   0.00000  Uiso   1.00
H34    H     0.67700   0.04605   0.37216   0.00000  Uiso   1.00
H35    H     0.84206   0.75317   0.42272   0.00000  Uiso   1.00
H36    H     0.37865   0.91231   0.05017   0.00000  Uiso   1.00
H37    H     0.74521   0.16378   0.40800   0.00000  Uiso   1.00
O38    O     0.99062   0.70121   0.35837   0.00000  Uiso   1.00
O39    O     0.38264   0.91000   0.86961   0.00000  Uiso   1.00
O40    O     0.86356   0.23993   0.33906   0.00000  Uiso   1.00
N41    N     0.96884   0.77676   0.25344   0.00000  Uiso   1.00
N42    N     0.53558   0.92553   0.90513   0.00000  Uiso   1.00
N43    N     0.87827   0.16065   0.23965   0.00000  Uiso   1.00
N44    N     0.87164   0.76890   0.36601   0.00000  Uiso   1.00
N45    N     0.43838   0.91768   0.01771   0.00000  Uiso   1.00
N46    N     0.78106   0.15279   0.35222   0.00000  Uiso   1.00
C47    C     0.69717   0.54500   0.12287   0.00000  Uiso   1.00
C48    C     0.67517   0.59604   0.18637   0.00000  Uiso   1.00
C49    C     0.60253   0.63458   0.17705   0.00000  Uiso   1.00
C50    C     0.59416   0.67837   0.24226   0.00000  Uiso   1.00
C51    C     0.55057   0.75687   0.32990   0.00000  Uiso   1.00
C52    C     0.79458   0.55504   0.09037   0.00000  Uiso   1.00
C53    C     0.82233   0.55911   0.00034   0.00000  Uiso   1.00
C54    C     0.91449   0.56839   0.98474   0.00000  Uiso   1.00
C55    C     0.05629   0.58320   0.92334   0.00000  Uiso   1.00
C56    C     0.70012   0.49025   0.18257   0.00000  Uiso   1.00
C57    C     0.64848   0.43983   0.17005   0.00000  Uiso   1.00
C58    C     0.66112   0.39455   0.23207   0.00000  Uiso   1.00
C59    C     0.65627   0.30877   0.31382   0.00000  Uiso   1.00
C60    C     0.81149   0.55424   0.25525   0.00000  Uiso   1.00
C61    C     0.73726   0.60105   0.25827   0.00000  Uiso   1.00
C62    C     0.72900   0.64480   0.32352   0.00000  Uiso   1.00
C63    C     0.65636   0.68340   0.31430   0.00000  Uiso   1.00
C64    C     0.85667   0.56006   0.16227   0.00000  Uiso   1.00
C65    C     0.94881   0.56933   0.14681   0.00000  Uiso   1.00
C66    C     0.97669   0.57341   0.05677   0.00000  Uiso   1.00
C67    C     0.76221   0.49527   0.25448   0.00000  Uiso   1.00
C68    C     0.77495   0.45006   0.31652   0.00000  Uiso   1.00
C69    C     0.72333   0.39958   0.30410   0.00000  Uiso   1.00
H70    H     0.64884   0.54109   0.06688   0.00000  Uiso   1.00
H71    H     0.55449   0.63068   0.12139   0.00000  Uiso   1.00
H72    H     0.77427   0.55522   0.94471   0.00000  Uiso   1.00
H73    H     0.60044   0.43597   0.11440   0.00000  Uiso   1.00
H74    H     0.47729   0.73224   0.21351   0.00000  Uiso   1.00
H75    H     0.94071   0.57310   0.84097   0.00000  Uiso   1.00
H76    H     0.57415   0.32163   0.19879   0.00000  Uiso   1.00
H77    H     0.85983   0.55814   0.31123   0.00000  Uiso   1.00
H78    H     0.77706   0.64867   0.37915   0.00000  Uiso   1.00
H79    H     0.99684   0.57321   0.20247   0.00000  Uiso   1.00
H80    H     0.82300   0.45395   0.37216   0.00000  Uiso   1.00
H81    H     0.65794   0.74683   0.42272   0.00000  Uiso   1.00
H82    H     0.12135   0.58769   0.05017   0.00000  Uiso   1.00
H83    H     0.75479   0.33622   0.40800   0.00000  Uiso   1.00
O84    O     0.50938   0.79879   0.35837   0.00000  Uiso   1.00
O85    O     0.11736   0.59000   0.86961   0.00000  Uiso   1.00
O86    O     0.63644   0.26007   0.33906   0.00000  Uiso   1.00
N87    N     0.53116   0.72324   0.25344   0.00000  Uiso   1.00
N88    N     0.96442   0.57447   0.90513   0.00000  Uiso   1.00
N89    N     0.62173   0.33935   0.23965   0.00000  Uiso   1.00
N90    N     0.62836   0.73110   0.36601   0.00000  Uiso   1.00
N91    N     0.06162   0.58232   0.01771   0.00000  Uiso   1.00
N92    N     0.71894   0.34721   0.35222   0.00000  Uiso   1.00
C93    C     0.19717   0.45500   0.37713   0.00000  Uiso   1.00
C94    C     0.17517   0.40396   0.31363   0.00000  Uiso   1.00
C95    C     0.10253   0.36542   0.32295   0.00000  Uiso   1.00
C96    C     0.09416   0.32163   0.25774   0.00000  Uiso   1.00
C97    C     0.05057   0.24313   0.17010   0.00000  Uiso   1.00
C98    C     0.29458   0.44496   0.40963   0.00000  Uiso   1.00
C99    C     0.32233   0.44089   0.49966   0.00000  Uiso   1.00
C100   C     0.41449   0.43161   0.51526   0.00000  Uiso   1.00
C101   C     0.55629   0.41680   0.57666   0.00000  Uiso   1.00
C102   C     0.20012   0.50975   0.31743   0.00000  Uiso   1.00
C103   C     0.14848   0.56017   0.32995   0.00000  Uiso   1.00
C104   C     0.16112   0.60545   0.26793   0.00000  Uiso   1.00
C105   C     0.15627   0.69123   0.18618   0.00000  Uiso   1.00
C106   C     0.31149   0.44576   0.24475   0.00000  Uiso   1.00
C107   C     0.23726   0.39895   0.24173   0.00000  Uiso   1.00
C108   C     0.22900   0.35520   0.17648   0.00000  Uiso   1.00
C109   C     0.15636   0.31660   0.18570   0.00000  Uiso   1.00
C110   C     0.35667   0.43994   0.33773   0.00000  Uiso   1.00
C111   C     0.44881   0.43067   0.35319   0.00000  Uiso   1.00
C112   C     0.47669   0.42659   0.44323   0.00000  Uiso   1.00
C113   C     0.26221   0.50473   0.24552   0.00000  Uiso   1.00
C114   C     0.27495   0.54994   0.18348   0.00000  Uiso   1.00
C115   C     0.22333   0.60042   0.19590   0.00000  Uiso   1.00
H116   H     0.14884   0.45891   0.43312   0.00000  Uiso   1.00
H117   H     0.05449   0.36932   0.37861   0.00000  Uiso   1.00
H118   H     0.27427   0.44478   0.55529   0.00000  Uiso   1.00
H119   H     0.10044   0.56403   0.38560   0.00000  Uiso   1.00
H120   H     0.97729   0.26776   0.28649   0.00000  Uiso   1.00
H121   H     0.44071   0.42690   0.65903   0.00000  Uiso   1.00
H122   H     0.07415   0.67837   0.30121   0.00000  Uiso   1.00
H123   H     0.35983   0.44186   0.18877   0.00000  Uiso   1.00
H124   H     0.27706   0.35133   0.12085   0.00000  Uiso   1.00
H125   H     0.49684   0.42679   0.29753   0.00000  Uiso   1.00
H126   H     0.32300   0.54605   0.12784   0.00000  Uiso   1.00
H127   H     0.15794   0.25317   0.07728   0.00000  Uiso   1.00
H128   H     0.62135   0.41231   0.44983   0.00000  Uiso   1.00
H129   H     0.25479   0.66378   0.09200   0.00000  Uiso   1.00
O130   O     0.00938   0.20121   0.14163   0.00000  Uiso   1.00
O131   O     0.61736   0.41000   0.63039   0.00000  Uiso   1.00
O132   O     0.13644   0.73993   0.16094   0.00000  Uiso   1.00
N133   N     0.03116   0.27676   0.24656   0.00000  Uiso   1.00
N134   N     0.46442   0.42553   0.59487   0.00000  Uiso   1.00
N135   N     0.12173   0.66065   0.26035   0.00000  Uiso   1.00
N136   N     0.12836   0.26890   0.13399   0.00000  Uiso   1.00
N137   N     0.56162   0.41768   0.48229   0.00000  Uiso   1.00
N138   N     0.21894   0.65279   0.14778   0.00000  Uiso   1.00
C139   C     0.30283   0.04500   0.37713   0.00000  Uiso   1.00
C140   C     0.32483   0.09604   0.31363   0.00000  Uiso   1.00
C141   C     0.39747   0.13458   0.32295   0.00000  Uiso   1.00
C142   C     0.40584   0.17837   0.25774   0.00000  Uiso   1.00
C143   C     0.44943   0.25687   0.17010   0.00000  Uiso   1.00
C144   C     0.20542   0.05504   0.40963   0.00000  Uiso   1.00
C145   C     0.17767   0.05911   0.49966   0.00000  Uiso   1.00
C146   C     0.08551   0.06839   0.51526   0.00000  Uiso   1.00
C147   C     0.94371   0.08320   0.57666   0.00000  Uiso   1.00
C148   C     0.29988   0.99025   0.31743   0.00000  Uiso   1.00
C149   C     0.35152   0.93983   0.32995   0.00000  Uiso   1.00
C150   C     0.33888   0.89455   0.26793   0.00000  Uiso   1.00
C151   C     0.34373   0.80877   0.18618   0.00000  Uiso   1.00
C152   C     0.18851   0.05424   0.24475   0.00000  Uiso   1.00
C153   C     0.26274   0.10105   0.24173   0.00000  Uiso   1.00
C154   C     0.27100   0.14480   0.17648   0.00000  Uiso   1.00
C155   C     0.34364   0.18340   0.18570   0.00000  Uiso   1.00
C156   C     0.14333   0.06006   0.33773   0.00000  Uiso   1.00
C157   C     0.05119   0.06933   0.35319   0.00000  Uiso   1.00
C158   C     0.02331   0.07341   0.44323   0.00000  Uiso   1.00
C159   C     0.23779   0.99527   0.24552   0.00000  Uiso   1.00
C160   C     0.22505   0.95006   0.18348   0.00000  Uiso   1.00
C161   C     0.27667   0.89958   0.19590   0.00000  Uiso   1.00
H162   H     0.35116   0.04109   0.43312   0.00000  Uiso   1.00
H163   H     0.44551   0.13068   0.37861   0.00000  Uiso   1.00
H164   H     0.22573   0.05522   0.55529   0.00000  Uiso   1.00
H165   H     0.39956   0.93597   0.38560   0.00000  Uiso   1.00
H166   H     0.52271   0.23224   0.28649   0.00000  Uiso   1.00
H167   H     0.05929   0.07310   0.65903   0.00000  Uiso   1.00
H168   H     0.42585   0.82163   0.30121   0.00000  Uiso   1.00
H169   H     0.14017   0.05814   0.18877   0.00000  Uiso   1.00
H170   H     0.22294   0.14867   0.12085   0.00000  Uiso   1.00
H171   H     0.00316   0.07321   0.29753   0.00000  Uiso   1.00
H172   H     0.17700   0.95395   0.12784   0.00000  Uiso   1.00
H173   H     0.34206   0.24683   0.07728   0.00000  Uiso   1.00
H174   H     0.87865   0.08769   0.44983   0.00000  Uiso   1.00
H175   H     0.24521   0.83622   0.09200   0.00000  Uiso   1.00
O176   O     0.49062   0.29879   0.14163   0.00000  Uiso   1.00
O177   O     0.88264   0.09000   0.63039   0.00000  Uiso   1.00
O178   O     0.36356   0.76007   0.16094   0.00000  Uiso   1.00
N179   N     0.46884   0.22324   0.24656   0.00000  Uiso   1.00
N180   N     0.03558   0.07447   0.59487   0.00000  Uiso   1.00
N181   N     0.37827   0.83935   0.26035   0.00000  Uiso   1.00
N182   N     0.37164   0.23110   0.13399   0.00000  Uiso   1.00
N183   N     0.93838   0.08232   0.48229   0.00000  Uiso   1.00
N184   N     0.28106   0.84721   0.14778   0.00000  Uiso   1.00
C185   C     0.19717   0.04500   0.87713   0.00000  Uiso   1.00
C186   C     0.17517   0.09604   0.81363   0.00000  Uiso   1.00
C187   C     0.10253   0.13458   0.82295   0.00000  Uiso   1.00
C188   C     0.09416   0.17837   0.75774   0.00000  Uiso   1.00
C189   C     0.05057   0.25687   0.67010   0.00000  Uiso   1.00
C190   C     0.29458   0.05504   0.90963   0.00000  Uiso   1.00
C191   C     0.32233   0.05911   0.99966   0.00000  Uiso   1.00
C192   C     0.41449   0.06839   0.01526   0.00000  Uiso   1.00
C193   C     0.55629   0.08320   0.07666   0.00000  Uiso   1.00
C194   C     0.20012   0.99025   0.81743   0.00000  Uiso   1.00
C195   C     0.14848   0.93983   0.82995   0.00000  Uiso   1.00
C196   C     0.16112   0.89455   0.76793   0.00000  Uiso   1.00
C197   C     0.15627   0.80877   0.68618   0.00000  Uiso   1.00
C198   C     0.31149   0.05424   0.74475   0.00000  Uiso   1.00
C199   C     0.23726   0.10105   0.74173   0.00000  Uiso   1.00
C200   C     0.22900   0.14480   0.67648   0.00000  Uiso   1.00
C201   C     0.15636   0.18340   0.68570   0.00000  Uiso   1.00
C202   C     0.35667   0.06006   0.83773   0.00000  Uiso   1.00
C203   C     0.44881   0.06933   0.85319   0.00000  Uiso   1.00
C204   C     0.47669   0.07341   0.94323   0.00000  Uiso   1.00
C205   C     0.26221   0.99527   0.74552   0.00000  Uiso   1.00
C206   C     0.27495   0.95006   0.68348   0.00000  Uiso   1.00
C207   C     0.22333   0.89958   0.69590   0.00000  Uiso   1.00
H208   H     0.14884   0.04109   0.93312   0.00000  Uiso   1.00
H209   H     0.05449   0.13068   0.87861   0.00000  Uiso   1.00
H210   H     0.27427   0.05522   0.05529   0.00000  Uiso   1.00
H211   H     0.10044   0.93597   0.88560   0.00000  Uiso   1.00
H212   H     0.97729   0.23224   0.78649   0.00000  Uiso   1.00
H213   H     0.44071   0.07310   0.15903   0.00000  Uiso   1.00
H214   H     0.07415   0.82163   0.80121   0.00000  Uiso   1.00
H215   H     0.35983   0.05814   0.68877   0.00000  Uiso   1.00
H216   H     0.27706   0.14867   0.62085   0.00000  Uiso   1.00
H217   H     0.49684   0.07321   0.79753   0.00000  Uiso   1.00
H218   H     0.32300   0.95395   0.62784   0.00000  Uiso   1.00
H219   H     0.15794   0.24683   0.57728   0.00000  Uiso   1.00
H220   H     0.62135   0.08769   0.94983   0.00000  Uiso   1.00
H221   H     0.25479   0.83622   0.59200   0.00000  Uiso   1.00
O222   O     0.00938   0.29879   0.64163   0.00000  Uiso   1.00
O223   O     0.61736   0.09000   0.13039   0.00000  Uiso   1.00
O224   O     0.13644   0.76007   0.66094   0.00000  Uiso   1.00
N225   N     0.03116   0.22324   0.74656   0.00000  Uiso   1.00
N226   N     0.46442   0.07447   0.09487   0.00000  Uiso   1.00
N227   N     0.12173   0.83935   0.76035   0.00000  Uiso   1.00
N228   N     0.12836   0.23110   0.63399   0.00000  Uiso   1.00
N229   N     0.56162   0.08232   0.98229   0.00000  Uiso   1.00
N230   N     0.21894   0.84721   0.64778   0.00000  Uiso   1.00
C231   C     0.30283   0.45500   0.87713   0.00000  Uiso   1.00
C232   C     0.32483   0.40396   0.81363   0.00000  Uiso   1.00
C233   C     0.39747   0.36542   0.82295   0.00000  Uiso   1.00
C234   C     0.40584   0.32163   0.75774   0.00000  Uiso   1.00
C235   C     0.44943   0.24313   0.67010   0.00000  Uiso   1.00
C236   C     0.20542   0.44496   0.90963   0.00000  Uiso   1.00
C237   C     0.17767   0.44089   0.99966   0.00000  Uiso   1.00
C238   C     0.08551   0.43161   0.01526   0.00000  Uiso   1.00
C239   C     0.94371   0.41680   0.07666   0.00000  Uiso   1.00
C240   C     0.29988   0.50975   0.81743   0.00000  Uiso   1.00
C241   C     0.35152   0.56017   0.82995   0.00000  Uiso   1.00
C242   C     0.33888   0.60545   0.76793   0.00000  Uiso   1.00
C243   C     0.34373   0.69123   0.68618   0.00000  Uiso   1.00
C244   C     0.18851   0.44576   0.74475   0.00000  Uiso   1.00
C245   C     0.26274   0.39895   0.74173   0.00000  Uiso   1.00
C246   C     0.27100   0.35520   0.67648   0.00000  Uiso   1.00
C247   C     0.34364   0.31660   0.68570   0.00000  Uiso   1.00
C248   C     0.14333   0.43994   0.83773   0.00000  Uiso   1.00
C249   C     0.05119   0.43067   0.85319   0.00000  Uiso   1.00
C250   C     0.02331   0.42659   0.94323   0.00000  Uiso   1.00
C251   C     0.23779   0.50473   0.74552   0.00000  Uiso   1.00
C252   C     0.22505   0.54994   0.68348   0.00000  Uiso   1.00
C253   C     0.27667   0.60042   0.69590   0.00000  Uiso   1.00
H254   H     0.35116   0.45891   0.93312   0.00000  Uiso   1.00
H255   H     0.44551   0.36932   0.87861   0.00000  Uiso   1.00
H256   H     0.22573   0.44478   0.05529   0.00000  Uiso   1.00
H257   H     0.39956   0.56403   0.88560   0.00000  Uiso   1.00
H258   H     0.52271   0.26776   0.78649   0.00000  Uiso   1.00
H259   H     0.05929   0.42690   0.15903   0.00000  Uiso   1.00
H260   H     0.42585   0.67837   0.80121   0.00000  Uiso   1.00
H261   H     0.14017   0.44186   0.68877   0.00000  Uiso   1.00
H262   H     0.22294   0.35133   0.62085   0.00000  Uiso   1.00
H263   H     0.00316   0.42679   0.79753   0.00000  Uiso   1.00
H264   H     0.17700   0.54605   0.62784   0.00000  Uiso   1.00
H265   H     0.34206   0.25317   0.57728   0.00000  Uiso   1.00
H266   H     0.87865   0.41231   0.94983   0.00000  Uiso   1.00
H267   H     0.24521   0.66378   0.59200   0.00000  Uiso   1.00
O268   O     0.49062   0.20121   0.64163   0.00000  Uiso   1.00
O269   O     0.88264   0.41000   0.13039   0.00000  Uiso   1.00
O270   O     0.36356   0.73993   0.66094   0.00000  Uiso   1.00
N271   N     0.46884   0.27676   0.74656   0.00000  Uiso   1.00
N272   N     0.03558   0.42553   0.09487   0.00000  Uiso   1.00
N273   N     0.37827   0.66065   0.76035   0.00000  Uiso   1.00
N274   N     0.37164   0.26890   0.63399   0.00000  Uiso   1.00
N275   N     0.93838   0.41768   0.98229   0.00000  Uiso   1.00
N276   N     0.28106   0.65279   0.64778   0.00000  Uiso   1.00
C277   C     0.80283   0.54500   0.62287   0.00000  Uiso   1.00
C278   C     0.82483   0.59604   0.68637   0.00000  Uiso   1.00
C279   C     0.89747   0.63458   0.67705   0.00000  Uiso   1.00
C280   C     0.90584   0.67837   0.74226   0.00000  Uiso   1.00
C281   C     0.94943   0.75687   0.82990   0.00000  Uiso   1.00
C282   C     0.70542   0.55504   0.59037   0.00000  Uiso   1.00
C283   C     0.67767   0.55911   0.50034   0.00000  Uiso   1.00
C284   C     0.58551   0.56839   0.48474   0.00000  Uiso   1.00
C285   C     0.44371   0.58320   0.42334   0.00000  Uiso   1.00
C286   C     0.79988   0.49025   0.68257   0.00000  Uiso   1.00
C287   C     0.85152   0.43983   0.67005   0.00000  Uiso   1.00
C288   C     0.83888   0.39455   0.73207   0.00000  Uiso   1.00
C289   C     0.84373   0.30877   0.81382   0.00000  Uiso   1.00
C290   C     0.68851   0.55424   0.75525   0.00000  Uiso   1.00
C291   C     0.76274   0.60105   0.75827   0.00000  Uiso   1.00
C292   C     0.77100   0.64480   0.82352   0.00000  Uiso   1.00
C293   C     0.84364   0.68340   0.81430   0.00000  Uiso   1.00
C294   C     0.64333   0.56006   0.66227   0.00000  Uiso   1.00
C295   C     0.55119   0.56933   0.64681   0.00000  Uiso   1.00
C296   C     0.52331   0.57341   0.55677   0.00000  Uiso   1.00
C297   C     0.73779   0.49527   0.75448   0.00000  Uiso   1.00
C298   C     0.72505   0.45006   0.81652   0.00000  Uiso   1.00
C299   C     0.77667   0.39958   0.80410   0.00000  Uiso   1.00
H300   H     0.85116   0.54109   0.56688   0.00000  Uiso   1.00
H301   H     0.94551   0.63068   0.62139   0.00000  Uiso   1.00
H302   H     0.72573   0.55522   0.44471   0.00000  Uiso   1.00
H303   H     0.89956   0.43597   0.61440   0.00000  Uiso   1.00
H304   H     0.02271   0.73224   0.71351   0.00000  Uiso   1.00
H305   H     0.55929   0.57310   0.34097   0.00000  Uiso   1.00
H306   H     0.92585   0.32163   0.69879   0.00000  Uiso   1.00
H307   H     0.64017   0.55814   0.81123   0.00000  Uiso   1.00
H308   H     0.72294   0.64867   0.87915   0.00000  Uiso   1.00
H309   H     0.50316   0.57321   0.70247   0.00000  Uiso   1.00
H310   H     0.67700   0.45395   0.87216   0.00000  Uiso   1.00
H311   H     0.84206   0.74683   0.92272   0.00000  Uiso   1.00
H312   H     0.37865   0.58769   0.55017   0.00000  Uiso   1.00
H313   H     0.74521   0.33622   0.90800   0.00000  Uiso   1.00
O314   O     0.99062   0.79879   0.85837   0.00000  Uiso   1.00
O315   O     0.38264   0.59000   0.36961   0.00000  Uiso   1.00
O316   O     0.86356   0.26007   0.83906   0.00000  Uiso   1.00
N317   N     0.96884   0.72324   0.75344   0.00000  Uiso   1.00
N318   N     0.53558   0.57447   0.40513   0.00000  Uiso   1.00
N319   N     0.87827   0.33935   0.73965   0.00000  Uiso   1.00
N320   N     0.87164   0.73110   0.86601   0.00000  Uiso   1.00
N321   N     0.43838   0.58232   0.51771   0.00000  Uiso   1.00
N322   N     0.78106   0.34721   0.85222   0.00000  Uiso   1.00
C323   C     0.69717   0.95500   0.62287   0.00000  Uiso   1.00
C324   C     0.67517   0.90396   0.68637   0.00000  Uiso   1.00
C325   C     0.60253   0.86542   0.67705   0.00000  Uiso   1.00
C326   C     0.59416   0.82163   0.74226   0.00000  Uiso   1.00
C327   C     0.55057   0.74313   0.82990   0.00000  Uiso   1.00
C328   C     0.79458   0.94496   0.59037   0.00000  Uiso   1.00
C329   C     0.82233   0.94089   0.50034   0.00000  Uiso   1.00
C330   C     0.91449   0.93161   0.48474   0.00000  Uiso   1.00
C331   C     0.05629   0.91680   0.42334   0.00000  Uiso   1.00
C332   C     0.70012   0.00975   0.68257   0.00000  Uiso   1.00
C333   C     0.64848   0.06017   0.67005   0.00000  Uiso   1.00
C334   C     0.66112   0.10545   0.73207   0.00000  Uiso   1.00
C335   C     0.65627   0.19123   0.81382   0.00000  Uiso   1.00
C336   C     0.81149   0.94576   0.75525   0.00000  Uiso   1.00
C337   C     0.73726   0.89895   0.75827   0.00000  Uiso   1.00
C338   C     0.72900   0.85520   0.82352   0.00000  Uiso   1.00
C339   C     0.65636   0.81660   0.81430   0.00000  Uiso   1.00
C340   C     0.85667   0.93994   0.66227   0.00000  Uiso   1.00
C341   C     0.94881   0.93067   0.64681   0.00000  Uiso   1.00
C342   C     0.97669   0.92659   0.55677   0.00000  Uiso   1.00
C343   C     0.76221   0.00473   0.75448   0.00000  Uiso   1.00
C344   C     0.77495   0.04994   0.81652   0.00000  Uiso   1.00
C345   C     0.72333   0.10042   0.80410   0.00000  Uiso   1.00
H346   H     0.64884   0.95891   0.56688   0.00000  Uiso   1.00
H347   H     0.55449   0.86932   0.62139   0.00000  Uiso   1.00
H348   H     0.77427   0.94478   0.44471   0.00000  Uiso   1.00
H349   H     0.60044   0.06403   0.61440   0.00000  Uiso   1.00
H350   H     0.47729   0.76776   0.71351   0.00000  Uiso   1.00
H351   H     0.94071   0.92690   0.34097   0.00000  Uiso   1.00
H352   H     0.57415   0.17837   0.69879   0.00000  Uiso   1.00
H353   H     0.85983   0.94186   0.81123   0.00000  Uiso   1.00
H354   H     0.77706   0.85133   0.87915   0.00000  Uiso   1.00
H355   H     0.99684   0.92679   0.70247   0.00000  Uiso   1.00
H356   H     0.82300   0.04605   0.87216   0.00000  Uiso   1.00
H357   H     0.65794   0.75317   0.92272   0.00000  Uiso   1.00
H358   H     0.12135   0.91231   0.55017   0.00000  Uiso   1.00
H359   H     0.75479   0.16378   0.90800   0.00000  Uiso   1.00
O360   O     0.50938   0.70121   0.85837   0.00000  Uiso   1.00
O361   O     0.11736   0.91000   0.36961   0.00000  Uiso   1.00
O362   O     0.63644   0.23993   0.83906   0.00000  Uiso   1.00
N363   N     0.53116   0.77676   0.75344   0.00000  Uiso   1.00
N364   N     0.96442   0.92553   0.40513   0.00000  Uiso   1.00
N365   N     0.62173   0.16065   0.73965   0.00000  Uiso   1.00
N366   N     0.62836   0.76890   0.86601   0.00000  Uiso   1.00
N367   N     0.06162   0.91768   0.51771   0.00000  Uiso   1.00
N368   N     0.71894   0.15279   0.85222   0.00000  Uiso   1.00
