data_job_05911
_audit_creation_date              2018-12-19
_audit_creation_method            'Materials Studio'
_symmetry_space_group_name_H-M    'P1'
_symmetry_Int_Tables_number       1
_symmetry_cell_setting            triclinic
loop_
_symmetry_equiv_pos_as_xyz
  x,y,z
_cell_length_a                    15.0475
_cell_length_b                    14.8976
_cell_length_c                    14.5644
_cell_angle_alpha                 97.0719
_cell_angle_beta                  96.6136
_cell_angle_gamma                 95.5117
loop_
_atom_site_label
_atom_site_type_symbol
_atom_site_fract_x
_atom_site_fract_y
_atom_site_fract_z
_atom_site_U_iso_or_equiv
_atom_site_adp_type
_atom_site_occupancy
C1     C     0.02524   0.35939   0.69249   0.00000  Uiso   1.00
C2     C     0.97994   0.43598   0.74089   0.00000  Uiso   1.00
C3     C     0.88905   0.44682   0.72616   0.00000  Uiso   1.00
C4     C     0.86082   0.52135   0.77728   0.00000  Uiso   1.00
C5     C     0.78129   0.63096   0.84273   0.00000  Uiso   1.00
C6     C     0.10008   0.40554   0.64661   0.00000  Uiso   1.00
C7     C     0.11022   0.39077   0.55261   0.00000  Uiso   1.00
C8     C     0.18313   0.43967   0.52437   0.00000  Uiso   1.00
C9     C     0.29016   0.50197   0.44347   0.00000  Uiso   1.00
C10    C     0.07209   0.31415   0.77013   0.00000  Uiso   1.00
C11    C     0.05870   0.22254   0.77998   0.00000  Uiso   1.00
C12    C     0.10806   0.19449   0.85573   0.00000  Uiso   1.00
C13    C     0.17161   0.11489   0.96661   0.00000  Uiso   1.00
C14    C     0.13672   0.47248   0.80947   0.00000  Uiso   1.00
C15    C     0.04050   0.49741   0.80443   0.00000  Uiso   1.00
C16    C     0.01240   0.57194   0.85559   0.00000  Uiso   1.00
C17    C     0.92148   0.58289   0.84094   0.00000  Uiso   1.00
C18    C     0.16064   0.46696   0.71014   0.00000  Uiso   1.00
C19    C     0.23356   0.51589   0.68204   0.00000  Uiso   1.00
C20    C     0.24380   0.50120   0.58803   0.00000  Uiso   1.00
C21    C     0.13264   0.37558   0.83367   0.00000  Uiso   1.00
C22    C     0.18204   0.34766   0.90942   0.00000  Uiso   1.00
C23    C     0.16872   0.25602   0.91939   0.00000  Uiso   1.00
H24    H     0.97810   0.31157   0.64301   0.00000  Uiso   1.00
H25    H     0.84221   0.39927   0.67697   0.00000  Uiso   1.00
H26    H     0.06335   0.34322   0.50346   0.00000  Uiso   1.00
H27    H     0.01183   0.17502   0.73080   0.00000  Uiso   1.00
H28    H     0.71827   0.52362   0.74261   0.00000  Uiso   1.00
H29    H     0.18456   0.40542   0.37676   0.00000  Uiso   1.00
H30    H     0.07594   0.05072   0.85615   0.00000  Uiso   1.00
H31    H     0.18387   0.52030   0.85894   0.00000  Uiso   1.00
H32    H     0.05928   0.61946   0.90476   0.00000  Uiso   1.00
H33    H     0.28041   0.56342   0.73124   0.00000  Uiso   1.00
H34    H     0.22890   0.39521   0.95858   0.00000  Uiso   1.00
H35    H     0.89445   0.70233   0.92749   0.00000  Uiso   1.00
H36    H     0.36074   0.58413   0.56163   0.00000  Uiso   1.00
H37    H     0.25211   0.22944   0.04102   0.00000  Uiso   1.00
O38    O     0.72069   0.67446   0.86127   0.00000  Uiso   1.00
O39    O     0.33245   0.51936   0.38128   0.00000  Uiso   1.00
O40    O     0.18993   0.05402   0.01023   0.00000  Uiso   1.00
N41    N     0.77683   0.55206   0.77985   0.00000  Uiso   1.00
N42    N     0.21278   0.44156   0.43779   0.00000  Uiso   1.00
N43    N     0.11124   0.10995   0.88597   0.00000  Uiso   1.00
N44    N     0.87163   0.64822   0.87933   0.00000  Uiso   1.00
N45    N     0.30757   0.53772   0.53727   0.00000  Uiso   1.00
N46    N     0.20604   0.20611   0.98545   0.00000  Uiso   1.00
C47    C     0.69319   0.02550   0.35977   0.00000  Uiso   1.00
C48    C     0.74005   0.98031   0.43745   0.00000  Uiso   1.00
C49    C     0.72666   0.88871   0.44737   0.00000  Uiso   1.00
C50    C     0.77600   0.86072   0.52316   0.00000  Uiso   1.00
C51    C     0.83952   0.78122   0.63414   0.00000  Uiso   1.00
C52    C     0.64784   0.10207   0.40813   0.00000  Uiso   1.00
C53    C     0.55694   0.11285   0.39338   0.00000  Uiso   1.00
C54    C     0.52866   0.18737   0.44449   0.00000  Uiso   1.00
C55    C     0.44904   0.29694   0.50991   0.00000  Uiso   1.00
C56    C     0.76801   0.07167   0.31388   0.00000  Uiso   1.00
C57    C     0.77814   0.05691   0.21989   0.00000  Uiso   1.00
C58    C     0.85102   0.10585   0.19164   0.00000  Uiso   1.00
C59    C     0.95799   0.16821   0.11072   0.00000  Uiso   1.00
C60    C     0.80460   0.13867   0.47674   0.00000  Uiso   1.00
C61    C     0.80056   0.04179   0.50098   0.00000  Uiso   1.00
C62    C     0.84993   0.01393   0.57678   0.00000  Uiso   1.00
C63    C     0.83663   0.92230   0.58681   0.00000  Uiso   1.00
C64    C     0.70836   0.16354   0.47166   0.00000  Uiso   1.00
C65    C     0.68021   0.23807   0.52280   0.00000  Uiso   1.00
C66    C     0.58928   0.24895   0.50814   0.00000  Uiso   1.00
C67    C     0.82853   0.13314   0.37742   0.00000  Uiso   1.00
C68    C     0.90141   0.18212   0.34931   0.00000  Uiso   1.00
C69    C     0.91165   0.16743   0.25529   0.00000  Uiso   1.00
H70    H     0.64607   0.97764   0.31030   0.00000  Uiso   1.00
H71    H     0.67982   0.84116   0.39819   0.00000  Uiso   1.00
H72    H     0.51012   0.06528   0.34421   0.00000  Uiso   1.00
H73    H     0.73129   0.00934   0.17074   0.00000  Uiso   1.00
H74    H     0.74390   0.71697   0.52366   0.00000  Uiso   1.00
H75    H     0.38609   0.18953   0.40982   0.00000  Uiso   1.00
H76    H     0.85247   0.07158   0.04403   0.00000  Uiso   1.00
H77    H     0.85172   0.18653   0.52620   0.00000  Uiso   1.00
H78    H     0.89676   0.06151   0.62593   0.00000  Uiso   1.00
H79    H     0.72706   0.28562   0.57195   0.00000  Uiso   1.00
H80    H     0.94823   0.22968   0.39849   0.00000  Uiso   1.00
H81    H     0.91998   0.89581   0.70851   0.00000  Uiso   1.00
H82    H     0.56217   0.36838   0.59467   0.00000  Uiso   1.00
H83    H     0.02855   0.25042   0.22888   0.00000  Uiso   1.00
O84    O     0.85783   0.72039   0.67781   0.00000  Uiso   1.00
O85    O     0.38841   0.34038   0.52844   0.00000  Uiso   1.00
O86    O     0.00029   0.18562   0.04854   0.00000  Uiso   1.00
N87    N     0.77917   0.77621   0.55347   0.00000  Uiso   1.00
N88    N     0.44464   0.21803   0.44704   0.00000  Uiso   1.00
N89    N     0.88065   0.10776   0.10506   0.00000  Uiso   1.00
N90    N     0.87392   0.87245   0.65293   0.00000  Uiso   1.00
N91    N     0.53939   0.31426   0.54651   0.00000  Uiso   1.00
N92    N     0.97540   0.20400   0.20452   0.00000  Uiso   1.00
C93    C     0.35896   0.69325   0.02715   0.00000  Uiso   1.00
C94    C     0.43382   0.73943   0.98132   0.00000  Uiso   1.00
C95    C     0.44401   0.72468   0.88734   0.00000  Uiso   1.00
C96    C     0.51694   0.77359   0.85915   0.00000  Uiso   1.00
C97    C     0.62400   0.83593   0.77833   0.00000  Uiso   1.00
C98    C     0.40579   0.64801   0.10481   0.00000  Uiso   1.00
C99    C     0.39238   0.55640   0.11467   0.00000  Uiso   1.00
C100   C     0.44171   0.52836   0.19045   0.00000  Uiso   1.00
C101   C     0.50519   0.44878   0.30139   0.00000  Uiso   1.00
C102   C     0.31361   0.76980   0.07553   0.00000  Uiso   1.00
C103   C     0.22270   0.78058   0.06080   0.00000  Uiso   1.00
C104   C     0.19442   0.85507   0.11195   0.00000  Uiso   1.00
C105   C     0.11479   0.96458   0.17743   0.00000  Uiso   1.00
C106   C     0.47036   0.80635   0.14420   0.00000  Uiso   1.00
C107   C     0.49433   0.80087   0.04490   0.00000  Uiso   1.00
C108   C     0.56726   0.84982   0.01685   0.00000  Uiso   1.00
C109   C     0.57755   0.83514   0.92284   0.00000  Uiso   1.00
C110   C     0.46629   0.70944   0.16839   0.00000  Uiso   1.00
C111   C     0.51564   0.68154   0.24418   0.00000  Uiso   1.00
C112   C     0.50232   0.58991   0.25415   0.00000  Uiso   1.00
C113   C     0.37412   0.83124   0.13911   0.00000  Uiso   1.00
C114   C     0.34596   0.90572   0.19030   0.00000  Uiso   1.00
C115   C     0.25503   0.91661   0.17564   0.00000  Uiso   1.00
H116   H     0.31185   0.64542   0.97765   0.00000  Uiso   1.00
H117   H     0.39717   0.67712   0.83816   0.00000  Uiso   1.00
H118   H     0.34555   0.50888   0.06546   0.00000  Uiso   1.00
H119   H     0.17590   0.73302   0.01159   0.00000  Uiso   1.00
H120   H     0.51847   0.73935   0.71155   0.00000  Uiso   1.00
H121   H     0.40960   0.38459   0.19085   0.00000  Uiso   1.00
H122   H     0.05186   0.85725   0.07726   0.00000  Uiso   1.00
H123   H     0.51747   0.85419   0.19371   0.00000  Uiso   1.00
H124   H     0.61408   0.89736   0.06607   0.00000  Uiso   1.00
H125   H     0.56246   0.72910   0.29337   0.00000  Uiso   1.00
H126   H     0.39281   0.95325   0.23950   0.00000  Uiso   1.00
H127   H     0.69452   0.91809   0.89653   0.00000  Uiso   1.00
H128   H     0.58565   0.56333   0.37583   0.00000  Uiso   1.00
H129   H     0.22791   0.03599   0.26223   0.00000  Uiso   1.00
O130   O     0.66635   0.85333   0.71618   0.00000  Uiso   1.00
O131   O     0.52351   0.38790   0.34501   0.00000  Uiso   1.00
O132   O     0.05416   0.00802   0.19597   0.00000  Uiso   1.00
N133   N     0.54663   0.77550   0.77260   0.00000  Uiso   1.00
N134   N     0.44486   0.44382   0.22070   0.00000  Uiso   1.00
N135   N     0.11039   0.88570   0.11452   0.00000  Uiso   1.00
N136   N     0.64137   0.87168   0.87213   0.00000  Uiso   1.00
N137   N     0.53959   0.54000   0.32024   0.00000  Uiso   1.00
N138   N     0.20513   0.98189   0.21406   0.00000  Uiso   1.00
C139   C     0.97476   0.64061   0.30751   0.00000  Uiso   1.00
C140   C     0.02006   0.56402   0.25911   0.00000  Uiso   1.00
C141   C     0.11095   0.55318   0.27384   0.00000  Uiso   1.00
C142   C     0.13918   0.47865   0.22272   0.00000  Uiso   1.00
C143   C     0.21871   0.36904   0.15727   0.00000  Uiso   1.00
C144   C     0.89992   0.59446   0.35339   0.00000  Uiso   1.00
C145   C     0.88979   0.60923   0.44739   0.00000  Uiso   1.00
C146   C     0.81687   0.56033   0.47563   0.00000  Uiso   1.00
C147   C     0.70984   0.49803   0.55653   0.00000  Uiso   1.00
C148   C     0.92791   0.68585   0.22987   0.00000  Uiso   1.00
C149   C     0.94130   0.77746   0.22002   0.00000  Uiso   1.00
C150   C     0.89194   0.80551   0.14427   0.00000  Uiso   1.00
C151   C     0.82839   0.88511   0.03339   0.00000  Uiso   1.00
C152   C     0.86328   0.52752   0.19053   0.00000  Uiso   1.00
C153   C     0.95950   0.50259   0.19557   0.00000  Uiso   1.00
C154   C     0.98760   0.42806   0.14441   0.00000  Uiso   1.00
C155   C     0.07852   0.41711   0.15906   0.00000  Uiso   1.00
C156   C     0.83936   0.53304   0.28986   0.00000  Uiso   1.00
C157   C     0.76644   0.48411   0.31796   0.00000  Uiso   1.00
C158   C     0.75621   0.49880   0.41197   0.00000  Uiso   1.00
C159   C     0.86736   0.62442   0.16633   0.00000  Uiso   1.00
C160   C     0.81796   0.65234   0.09058   0.00000  Uiso   1.00
C161   C     0.83128   0.74398   0.08061   0.00000  Uiso   1.00
H162   H     0.02190   0.68843   0.35699   0.00000  Uiso   1.00
H163   H     0.15779   0.60073   0.32303   0.00000  Uiso   1.00
H164   H     0.93665   0.65678   0.49654   0.00000  Uiso   1.00
H165   H     0.98817   0.82498   0.26920   0.00000  Uiso   1.00
H166   H     0.28173   0.47638   0.25739   0.00000  Uiso   1.00
H167   H     0.81544   0.59458   0.62324   0.00000  Uiso   1.00
H168   H     0.92406   0.94928   0.14386   0.00000  Uiso   1.00
H169   H     0.81613   0.47970   0.14106   0.00000  Uiso   1.00
H170   H     0.94072   0.38054   0.09524   0.00000  Uiso   1.00
H171   H     0.71959   0.43659   0.26876   0.00000  Uiso   1.00
H172   H     0.77111   0.60479   0.04142   0.00000  Uiso   1.00
H173   H     0.10555   0.29767   0.07251   0.00000  Uiso   1.00
H174   H     0.63926   0.41587   0.43837   0.00000  Uiso   1.00
H175   H     0.74789   0.77056   0.95898   0.00000  Uiso   1.00
O176   O     0.27931   0.32554   0.13873   0.00000  Uiso   1.00
O177   O     0.66755   0.48064   0.61872   0.00000  Uiso   1.00
O178   O     0.81007   0.94598   0.98977   0.00000  Uiso   1.00
N179   N     0.22317   0.44794   0.22015   0.00000  Uiso   1.00
N180   N     0.78723   0.55844   0.56221   0.00000  Uiso   1.00
N181   N     0.88876   0.89005   0.11403   0.00000  Uiso   1.00
N182   N     0.12837   0.35178   0.12067   0.00000  Uiso   1.00
N183   N     0.69243   0.46228   0.46273   0.00000  Uiso   1.00
N184   N     0.79397   0.79389   0.01455   0.00000  Uiso   1.00
C185   C     0.30682   0.97450   0.64024   0.00000  Uiso   1.00
C186   C     0.25995   0.01969   0.56255   0.00000  Uiso   1.00
C187   C     0.27334   0.11129   0.55263   0.00000  Uiso   1.00
C188   C     0.22400   0.13928   0.47684   0.00000  Uiso   1.00
C189   C     0.16048   0.21878   0.36586   0.00000  Uiso   1.00
C190   C     0.35216   0.89793   0.59187   0.00000  Uiso   1.00
C191   C     0.44306   0.88715   0.60662   0.00000  Uiso   1.00
C192   C     0.47134   0.81263   0.55551   0.00000  Uiso   1.00
C193   C     0.55096   0.70306   0.49009   0.00000  Uiso   1.00
C194   C     0.23199   0.92833   0.68612   0.00000  Uiso   1.00
C195   C     0.22186   0.94309   0.78011   0.00000  Uiso   1.00
C196   C     0.14898   0.89415   0.80836   0.00000  Uiso   1.00
C197   C     0.04201   0.83179   0.88928   0.00000  Uiso   1.00
C198   C     0.19540   0.86133   0.52326   0.00000  Uiso   1.00
C199   C     0.19944   0.95821   0.49902   0.00000  Uiso   1.00
C200   C     0.15007   0.98607   0.42322   0.00000  Uiso   1.00
C201   C     0.16337   0.07770   0.41319   0.00000  Uiso   1.00
C202   C     0.29164   0.83646   0.52834   0.00000  Uiso   1.00
C203   C     0.31979   0.76194   0.47720   0.00000  Uiso   1.00
C204   C     0.41072   0.75105   0.49186   0.00000  Uiso   1.00
C205   C     0.17147   0.86686   0.62258   0.00000  Uiso   1.00
C206   C     0.09859   0.81788   0.65069   0.00000  Uiso   1.00
C207   C     0.08835   0.83257   0.74471   0.00000  Uiso   1.00
H208   H     0.35394   0.02236   0.68970   0.00000  Uiso   1.00
H209   H     0.32019   0.15884   0.60181   0.00000  Uiso   1.00
H210   H     0.48988   0.93472   0.65579   0.00000  Uiso   1.00
H211   H     0.26871   0.99066   0.82926   0.00000  Uiso   1.00
H212   H     0.25610   0.28303   0.47634   0.00000  Uiso   1.00
H213   H     0.61391   0.81047   0.59018   0.00000  Uiso   1.00
H214   H     0.14753   0.92842   0.95597   0.00000  Uiso   1.00
H215   H     0.14828   0.81347   0.47380   0.00000  Uiso   1.00
H216   H     0.10324   0.93849   0.37407   0.00000  Uiso   1.00
H217   H     0.27294   0.71438   0.42805   0.00000  Uiso   1.00
H218   H     0.05177   0.77032   0.60151   0.00000  Uiso   1.00
H219   H     0.08002   0.10419   0.29149   0.00000  Uiso   1.00
H220   H     0.43783   0.63162   0.40534   0.00000  Uiso   1.00
H221   H     0.97145   0.74958   0.77112   0.00000  Uiso   1.00
O222   O     0.14217   0.27961   0.32219   0.00000  Uiso   1.00
O223   O     0.61159   0.65962   0.47156   0.00000  Uiso   1.00
O224   O     0.99972   0.81438   0.95146   0.00000  Uiso   1.00
N225   N     0.22083   0.22379   0.44653   0.00000  Uiso   1.00
N226   N     0.55536   0.78197   0.55296   0.00000  Uiso   1.00
N227   N     0.11935   0.89224   0.89494   0.00000  Uiso   1.00
N228   N     0.12608   0.12755   0.34707   0.00000  Uiso   1.00
N229   N     0.46061   0.68574   0.45349   0.00000  Uiso   1.00
N230   N     0.02460   0.79600   0.79548   0.00000  Uiso   1.00
C231   C     0.64104   0.30675   0.97285   0.00000  Uiso   1.00
C232   C     0.56618   0.26057   0.01868   0.00000  Uiso   1.00
C233   C     0.55599   0.27532   0.11266   0.00000  Uiso   1.00
C234   C     0.48307   0.22641   0.14085   0.00000  Uiso   1.00
C235   C     0.37600   0.16407   0.22167   0.00000  Uiso   1.00
C236   C     0.59422   0.35199   0.89519   0.00000  Uiso   1.00
C237   C     0.60762   0.44360   0.88533   0.00000  Uiso   1.00
C238   C     0.55829   0.47164   0.80955   0.00000  Uiso   1.00
C239   C     0.49481   0.55122   0.69861   0.00000  Uiso   1.00
C240   C     0.68639   0.23020   0.92447   0.00000  Uiso   1.00
C241   C     0.77730   0.21942   0.93920   0.00000  Uiso   1.00
C242   C     0.80558   0.14493   0.88805   0.00000  Uiso   1.00
C243   C     0.88521   0.03542   0.82257   0.00000  Uiso   1.00
C244   C     0.52964   0.19365   0.85580   0.00000  Uiso   1.00
C245   C     0.50567   0.19913   0.95510   0.00000  Uiso   1.00
C246   C     0.43274   0.15018   0.98315   0.00000  Uiso   1.00
C247   C     0.42245   0.16486   0.07716   0.00000  Uiso   1.00
C248   C     0.53371   0.29056   0.83161   0.00000  Uiso   1.00
C249   C     0.48436   0.31846   0.75582   0.00000  Uiso   1.00
C250   C     0.49768   0.41009   0.74585   0.00000  Uiso   1.00
C251   C     0.62588   0.16876   0.86089   0.00000  Uiso   1.00
C252   C     0.65404   0.09428   0.80970   0.00000  Uiso   1.00
C253   C     0.74497   0.08339   0.82436   0.00000  Uiso   1.00
H254   H     0.68815   0.35459   0.02235   0.00000  Uiso   1.00
H255   H     0.60283   0.32288   0.16184   0.00000  Uiso   1.00
H256   H     0.65445   0.49113   0.93454   0.00000  Uiso   1.00
H257   H     0.82410   0.26698   0.98841   0.00000  Uiso   1.00
H258   H     0.48153   0.26065   0.28845   0.00000  Uiso   1.00
H259   H     0.59040   0.61541   0.80915   0.00000  Uiso   1.00
H260   H     0.94814   0.14275   0.92274   0.00000  Uiso   1.00
H261   H     0.48253   0.14581   0.80629   0.00000  Uiso   1.00
H262   H     0.38592   0.10264   0.93393   0.00000  Uiso   1.00
H263   H     0.43754   0.27090   0.70663   0.00000  Uiso   1.00
H264   H     0.60719   0.04675   0.76050   0.00000  Uiso   1.00
H265   H     0.30548   0.08191   0.10347   0.00000  Uiso   1.00
H266   H     0.41435   0.43667   0.62417   0.00000  Uiso   1.00
H267   H     0.77209   0.96401   0.73777   0.00000  Uiso   1.00
O268   O     0.33365   0.14667   0.28382   0.00000  Uiso   1.00
O269   O     0.47650   0.61210   0.65499   0.00000  Uiso   1.00
O270   O     0.94584   0.99198   0.80403   0.00000  Uiso   1.00
N271   N     0.45337   0.22450   0.22740   0.00000  Uiso   1.00
N272   N     0.55514   0.55618   0.77930   0.00000  Uiso   1.00
N273   N     0.88961   0.11430   0.88548   0.00000  Uiso   1.00
N274   N     0.35864   0.12832   0.12787   0.00000  Uiso   1.00
N275   N     0.46041   0.46000   0.67976   0.00000  Uiso   1.00
N276   N     0.79487   0.01811   0.78594   0.00000  Uiso   1.00
