data_job_02115
_audit_creation_date              2018-12-19
_audit_creation_method            'Materials Studio'
_symmetry_space_group_name_H-M    'P1'
_symmetry_Int_Tables_number       1
_symmetry_cell_setting            triclinic
loop_
_symmetry_equiv_pos_as_xyz
  x,y,z
_cell_length_a                    12.4475
_cell_length_b                    21.1771
_cell_length_c                    33.4848
_cell_angle_alpha                 90.0000
_cell_angle_beta                  113.0288
_cell_angle_gamma                 90.0000
loop_
_atom_site_label
_atom_site_type_symbol
_atom_site_fract_x
_atom_site_fract_y
_atom_site_fract_z
_atom_site_U_iso_or_equiv
_atom_site_adp_type
_atom_site_occupancy
C1     C     0.79371   0.14237   0.11970   0.00000  Uiso   1.00
C2     C     0.89487   0.18917   0.13493   0.00000  Uiso   1.00
C3     C     0.97292   0.19957   0.11528   0.00000  Uiso   1.00
C4     C     0.05940   0.24439   0.13420   0.00000  Uiso   1.00
C5     C     0.21529   0.31199   0.15221   0.00000  Uiso   1.00
C6     C     0.81216   0.09909   0.15822   0.00000  Uiso   1.00
C7     C     0.82065   0.03375   0.15814   0.00000  Uiso   1.00
C8     C     0.83750   0.00273   0.19667   0.00000  Uiso   1.00
C9     C     0.86490   0.93047   0.25082   0.00000  Uiso   1.00
C10    C     0.68426   0.18072   0.11292   0.00000  Uiso   1.00
C11    C     0.58520   0.18401   0.07474   0.00000  Uiso   1.00
C12    C     0.49435   0.22171   0.07513   0.00000  Uiso   1.00
C13    C     0.32316   0.27620   0.05894   0.00000  Uiso   1.00
C14    C     0.80852   0.20347   0.18826   0.00000  Uiso   1.00
C15    C     0.90291   0.22236   0.17218   0.00000  Uiso   1.00
C16    C     0.98930   0.26718   0.19113   0.00000  Uiso   1.00
C17    C     0.06746   0.27764   0.17150   0.00000  Uiso   1.00
C18    C     0.82021   0.13227   0.19546   0.00000  Uiso   1.00
C19    C     0.83704   0.10135   0.23400   0.00000  Uiso   1.00
C20    C     0.84556   0.03598   0.23398   0.00000  Uiso   1.00
C21    C     0.69231   0.21391   0.15016   0.00000  Uiso   1.00
C22    C     0.60159   0.25161   0.15060   0.00000  Uiso   1.00
C23    C     0.50241   0.25496   0.11243   0.00000  Uiso   1.00
H24    H     0.78745   0.11653   0.09071   0.00000  Uiso   1.00
H25    H     0.96667   0.17387   0.08646   0.00000  Uiso   1.00
H26    H     0.81441   0.00807   0.12932   0.00000  Uiso   1.00
H27    H     0.57900   0.15832   0.04593   0.00000  Uiso   1.00
H28    H     0.16894   0.25207   0.09818   0.00000  Uiso   1.00
H29    H     0.84787   0.90247   0.18855   0.00000  Uiso   1.00
H30    H     0.35144   0.21928   0.01272   0.00000  Uiso   1.00
H31    H     0.81479   0.22931   0.21725   0.00000  Uiso   1.00
H32    H     0.99551   0.29285   0.21995   0.00000  Uiso   1.00
H33    H     0.84326   0.12705   0.26281   0.00000  Uiso   1.00
H34    H     0.60784   0.27729   0.17942   0.00000  Uiso   1.00
H35    H     0.19235   0.34863   0.20653   0.00000  Uiso   1.00
H36    H     0.87127   0.99904   0.29690   0.00000  Uiso   1.00
H37    H     0.37486   0.31585   0.12106   0.00000  Uiso   1.00
O38    O     0.29906   0.34010   0.15186   0.00000  Uiso   1.00
O39    O     0.87780   0.88144   0.27041   0.00000  Uiso   1.00
O40    O     0.22652   0.29709   0.03972   0.00000  Uiso   1.00
N41    N     0.14963   0.26609   0.12331   0.00000  Uiso   1.00
N42    N     0.84947   0.93923   0.20780   0.00000  Uiso   1.00
N43    N     0.38534   0.23541   0.04341   0.00000  Uiso   1.00
N44    N     0.16223   0.31805   0.18161   0.00000  Uiso   1.00
N45    N     0.86206   0.99120   0.26610   0.00000  Uiso   1.00
N46    N     0.39794   0.28737   0.10171   0.00000  Uiso   1.00
C47    C     0.29371   0.64237   0.11970   0.00000  Uiso   1.00
C48    C     0.39487   0.68917   0.13493   0.00000  Uiso   1.00
C49    C     0.47292   0.69957   0.11528   0.00000  Uiso   1.00
C50    C     0.55940   0.74439   0.13420   0.00000  Uiso   1.00
C51    C     0.71529   0.81199   0.15221   0.00000  Uiso   1.00
C52    C     0.31216   0.59909   0.15822   0.00000  Uiso   1.00
C53    C     0.32065   0.53375   0.15814   0.00000  Uiso   1.00
C54    C     0.33750   0.50273   0.19667   0.00000  Uiso   1.00
C55    C     0.36490   0.43047   0.25082   0.00000  Uiso   1.00
C56    C     0.18426   0.68072   0.11292   0.00000  Uiso   1.00
C57    C     0.08520   0.68401   0.07474   0.00000  Uiso   1.00
C58    C     0.99435   0.72171   0.07513   0.00000  Uiso   1.00
C59    C     0.82316   0.77620   0.05894   0.00000  Uiso   1.00
C60    C     0.30852   0.70347   0.18826   0.00000  Uiso   1.00
C61    C     0.40291   0.72236   0.17218   0.00000  Uiso   1.00
C62    C     0.48930   0.76718   0.19113   0.00000  Uiso   1.00
C63    C     0.56746   0.77764   0.17150   0.00000  Uiso   1.00
C64    C     0.32021   0.63227   0.19546   0.00000  Uiso   1.00
C65    C     0.33704   0.60135   0.23400   0.00000  Uiso   1.00
C66    C     0.34556   0.53598   0.23398   0.00000  Uiso   1.00
C67    C     0.19231   0.71391   0.15016   0.00000  Uiso   1.00
C68    C     0.10159   0.75161   0.15060   0.00000  Uiso   1.00
C69    C     0.00241   0.75496   0.11243   0.00000  Uiso   1.00
H70    H     0.28745   0.61653   0.09071   0.00000  Uiso   1.00
H71    H     0.46667   0.67387   0.08646   0.00000  Uiso   1.00
H72    H     0.31441   0.50807   0.12932   0.00000  Uiso   1.00
H73    H     0.07900   0.65832   0.04593   0.00000  Uiso   1.00
H74    H     0.66894   0.75207   0.09818   0.00000  Uiso   1.00
H75    H     0.34787   0.40247   0.18855   0.00000  Uiso   1.00
H76    H     0.85144   0.71928   0.01272   0.00000  Uiso   1.00
H77    H     0.31479   0.72931   0.21725   0.00000  Uiso   1.00
H78    H     0.49551   0.79285   0.21995   0.00000  Uiso   1.00
H79    H     0.34326   0.62705   0.26281   0.00000  Uiso   1.00
H80    H     0.10784   0.77729   0.17942   0.00000  Uiso   1.00
H81    H     0.69235   0.84863   0.20653   0.00000  Uiso   1.00
H82    H     0.37127   0.49904   0.29690   0.00000  Uiso   1.00
H83    H     0.87486   0.81585   0.12106   0.00000  Uiso   1.00
O84    O     0.79906   0.84010   0.15186   0.00000  Uiso   1.00
O85    O     0.37780   0.38144   0.27041   0.00000  Uiso   1.00
O86    O     0.72652   0.79709   0.03972   0.00000  Uiso   1.00
N87    N     0.64963   0.76609   0.12331   0.00000  Uiso   1.00
N88    N     0.34947   0.43923   0.20780   0.00000  Uiso   1.00
N89    N     0.88534   0.73541   0.04341   0.00000  Uiso   1.00
N90    N     0.66223   0.81805   0.18161   0.00000  Uiso   1.00
N91    N     0.36206   0.49120   0.26610   0.00000  Uiso   1.00
N92    N     0.89794   0.78737   0.10171   0.00000  Uiso   1.00
C93    C     0.20629   0.14237   0.38030   0.00000  Uiso   1.00
C94    C     0.10513   0.18917   0.36507   0.00000  Uiso   1.00
C95    C     0.02708   0.19957   0.38472   0.00000  Uiso   1.00
C96    C     0.94060   0.24439   0.36580   0.00000  Uiso   1.00
C97    C     0.78471   0.31199   0.34779   0.00000  Uiso   1.00
C98    C     0.18784   0.09909   0.34178   0.00000  Uiso   1.00
C99    C     0.17935   0.03375   0.34186   0.00000  Uiso   1.00
C100   C     0.16250   0.00273   0.30333   0.00000  Uiso   1.00
C101   C     0.13510   0.93047   0.24918   0.00000  Uiso   1.00
C102   C     0.31574   0.18072   0.38708   0.00000  Uiso   1.00
C103   C     0.41480   0.18401   0.42526   0.00000  Uiso   1.00
C104   C     0.50565   0.22171   0.42487   0.00000  Uiso   1.00
C105   C     0.67684   0.27620   0.44106   0.00000  Uiso   1.00
C106   C     0.19148   0.20347   0.31174   0.00000  Uiso   1.00
C107   C     0.09709   0.22236   0.32782   0.00000  Uiso   1.00
C108   C     0.01070   0.26718   0.30887   0.00000  Uiso   1.00
C109   C     0.93254   0.27764   0.32850   0.00000  Uiso   1.00
C110   C     0.17979   0.13227   0.30454   0.00000  Uiso   1.00
C111   C     0.16296   0.10135   0.26600   0.00000  Uiso   1.00
C112   C     0.15444   0.03598   0.26602   0.00000  Uiso   1.00
C113   C     0.30769   0.21391   0.34984   0.00000  Uiso   1.00
C114   C     0.39841   0.25161   0.34940   0.00000  Uiso   1.00
C115   C     0.49759   0.25496   0.38757   0.00000  Uiso   1.00
H116   H     0.21255   0.11653   0.40929   0.00000  Uiso   1.00
H117   H     0.03333   0.17387   0.41354   0.00000  Uiso   1.00
H118   H     0.18559   0.00807   0.37068   0.00000  Uiso   1.00
H119   H     0.42100   0.15832   0.45407   0.00000  Uiso   1.00
H120   H     0.83106   0.25207   0.40182   0.00000  Uiso   1.00
H121   H     0.15213   0.90247   0.31145   0.00000  Uiso   1.00
H122   H     0.64856   0.21928   0.48728   0.00000  Uiso   1.00
H123   H     0.18521   0.22931   0.28275   0.00000  Uiso   1.00
H124   H     0.00449   0.29285   0.28005   0.00000  Uiso   1.00
H125   H     0.15674   0.12705   0.23719   0.00000  Uiso   1.00
H126   H     0.39216   0.27729   0.32058   0.00000  Uiso   1.00
H127   H     0.80765   0.34863   0.29347   0.00000  Uiso   1.00
H128   H     0.12873   0.99904   0.20310   0.00000  Uiso   1.00
H129   H     0.62514   0.31585   0.37894   0.00000  Uiso   1.00
O130   O     0.70094   0.34010   0.34814   0.00000  Uiso   1.00
O131   O     0.12220   0.88144   0.22959   0.00000  Uiso   1.00
O132   O     0.77348   0.29709   0.46028   0.00000  Uiso   1.00
N133   N     0.85037   0.26609   0.37669   0.00000  Uiso   1.00
N134   N     0.15053   0.93923   0.29220   0.00000  Uiso   1.00
N135   N     0.61466   0.23541   0.45659   0.00000  Uiso   1.00
N136   N     0.83777   0.31805   0.31839   0.00000  Uiso   1.00
N137   N     0.13794   0.99120   0.23390   0.00000  Uiso   1.00
N138   N     0.60206   0.28737   0.39829   0.00000  Uiso   1.00
C139   C     0.70629   0.64237   0.38030   0.00000  Uiso   1.00
C140   C     0.60513   0.68917   0.36507   0.00000  Uiso   1.00
C141   C     0.52708   0.69957   0.38472   0.00000  Uiso   1.00
C142   C     0.44060   0.74439   0.36580   0.00000  Uiso   1.00
C143   C     0.28471   0.81199   0.34779   0.00000  Uiso   1.00
C144   C     0.68784   0.59909   0.34178   0.00000  Uiso   1.00
C145   C     0.67935   0.53375   0.34186   0.00000  Uiso   1.00
C146   C     0.66250   0.50273   0.30333   0.00000  Uiso   1.00
C147   C     0.63510   0.43047   0.24918   0.00000  Uiso   1.00
C148   C     0.81574   0.68072   0.38708   0.00000  Uiso   1.00
C149   C     0.91480   0.68401   0.42526   0.00000  Uiso   1.00
C150   C     0.00565   0.72171   0.42487   0.00000  Uiso   1.00
C151   C     0.17684   0.77620   0.44106   0.00000  Uiso   1.00
C152   C     0.69148   0.70347   0.31174   0.00000  Uiso   1.00
C153   C     0.59709   0.72236   0.32782   0.00000  Uiso   1.00
C154   C     0.51070   0.76718   0.30887   0.00000  Uiso   1.00
C155   C     0.43254   0.77764   0.32850   0.00000  Uiso   1.00
C156   C     0.67979   0.63227   0.30454   0.00000  Uiso   1.00
C157   C     0.66296   0.60135   0.26600   0.00000  Uiso   1.00
C158   C     0.65444   0.53598   0.26602   0.00000  Uiso   1.00
C159   C     0.80769   0.71391   0.34984   0.00000  Uiso   1.00
C160   C     0.89841   0.75161   0.34940   0.00000  Uiso   1.00
C161   C     0.99759   0.75496   0.38757   0.00000  Uiso   1.00
H162   H     0.71255   0.61653   0.40929   0.00000  Uiso   1.00
H163   H     0.53333   0.67387   0.41354   0.00000  Uiso   1.00
H164   H     0.68559   0.50807   0.37068   0.00000  Uiso   1.00
H165   H     0.92100   0.65832   0.45407   0.00000  Uiso   1.00
H166   H     0.33106   0.75207   0.40182   0.00000  Uiso   1.00
H167   H     0.65213   0.40247   0.31145   0.00000  Uiso   1.00
H168   H     0.14856   0.71928   0.48728   0.00000  Uiso   1.00
H169   H     0.68521   0.72931   0.28275   0.00000  Uiso   1.00
H170   H     0.50449   0.79285   0.28005   0.00000  Uiso   1.00
H171   H     0.65674   0.62705   0.23719   0.00000  Uiso   1.00
H172   H     0.89216   0.77729   0.32058   0.00000  Uiso   1.00
H173   H     0.30765   0.84863   0.29347   0.00000  Uiso   1.00
H174   H     0.62873   0.49904   0.20310   0.00000  Uiso   1.00
H175   H     0.12514   0.81585   0.37894   0.00000  Uiso   1.00
O176   O     0.20094   0.84010   0.34814   0.00000  Uiso   1.00
O177   O     0.62220   0.38144   0.22959   0.00000  Uiso   1.00
O178   O     0.27348   0.79709   0.46028   0.00000  Uiso   1.00
N179   N     0.35037   0.76609   0.37669   0.00000  Uiso   1.00
N180   N     0.65053   0.43923   0.29220   0.00000  Uiso   1.00
N181   N     0.11466   0.73541   0.45659   0.00000  Uiso   1.00
N182   N     0.33777   0.81805   0.31839   0.00000  Uiso   1.00
N183   N     0.63794   0.49120   0.23390   0.00000  Uiso   1.00
N184   N     0.10206   0.78737   0.39829   0.00000  Uiso   1.00
C185   C     0.20629   0.85763   0.88030   0.00000  Uiso   1.00
C186   C     0.10513   0.81083   0.86507   0.00000  Uiso   1.00
C187   C     0.02708   0.80043   0.88472   0.00000  Uiso   1.00
C188   C     0.94060   0.75561   0.86580   0.00000  Uiso   1.00
C189   C     0.78471   0.68801   0.84779   0.00000  Uiso   1.00
C190   C     0.18784   0.90091   0.84178   0.00000  Uiso   1.00
C191   C     0.17935   0.96625   0.84186   0.00000  Uiso   1.00
C192   C     0.16250   0.99727   0.80333   0.00000  Uiso   1.00
C193   C     0.13510   0.06953   0.74918   0.00000  Uiso   1.00
C194   C     0.31574   0.81928   0.88708   0.00000  Uiso   1.00
C195   C     0.41480   0.81599   0.92526   0.00000  Uiso   1.00
C196   C     0.50565   0.77829   0.92487   0.00000  Uiso   1.00
C197   C     0.67684   0.72380   0.94106   0.00000  Uiso   1.00
C198   C     0.19148   0.79653   0.81174   0.00000  Uiso   1.00
C199   C     0.09709   0.77764   0.82782   0.00000  Uiso   1.00
C200   C     0.01070   0.73282   0.80887   0.00000  Uiso   1.00
C201   C     0.93254   0.72236   0.82850   0.00000  Uiso   1.00
C202   C     0.17979   0.86773   0.80454   0.00000  Uiso   1.00
C203   C     0.16296   0.89865   0.76600   0.00000  Uiso   1.00
C204   C     0.15444   0.96402   0.76602   0.00000  Uiso   1.00
C205   C     0.30769   0.78609   0.84984   0.00000  Uiso   1.00
C206   C     0.39841   0.74839   0.84940   0.00000  Uiso   1.00
C207   C     0.49759   0.74504   0.88757   0.00000  Uiso   1.00
H208   H     0.21255   0.88347   0.90929   0.00000  Uiso   1.00
H209   H     0.03333   0.82613   0.91354   0.00000  Uiso   1.00
H210   H     0.18559   0.99193   0.87068   0.00000  Uiso   1.00
H211   H     0.42100   0.84168   0.95407   0.00000  Uiso   1.00
H212   H     0.83106   0.74793   0.90182   0.00000  Uiso   1.00
H213   H     0.15213   0.09753   0.81145   0.00000  Uiso   1.00
H214   H     0.64856   0.78072   0.98728   0.00000  Uiso   1.00
H215   H     0.18521   0.77069   0.78275   0.00000  Uiso   1.00
H216   H     0.00449   0.70715   0.78005   0.00000  Uiso   1.00
H217   H     0.15674   0.87295   0.73719   0.00000  Uiso   1.00
H218   H     0.39216   0.72271   0.82058   0.00000  Uiso   1.00
H219   H     0.80765   0.65137   0.79347   0.00000  Uiso   1.00
H220   H     0.12873   0.00096   0.70310   0.00000  Uiso   1.00
H221   H     0.62514   0.68415   0.87894   0.00000  Uiso   1.00
O222   O     0.70094   0.65990   0.84814   0.00000  Uiso   1.00
O223   O     0.12220   0.11856   0.72959   0.00000  Uiso   1.00
O224   O     0.77348   0.70291   0.96028   0.00000  Uiso   1.00
N225   N     0.85037   0.73391   0.87669   0.00000  Uiso   1.00
N226   N     0.15053   0.06077   0.79220   0.00000  Uiso   1.00
N227   N     0.61466   0.76459   0.95659   0.00000  Uiso   1.00
N228   N     0.83777   0.68195   0.81839   0.00000  Uiso   1.00
N229   N     0.13794   0.00880   0.73390   0.00000  Uiso   1.00
N230   N     0.60206   0.71263   0.89829   0.00000  Uiso   1.00
C231   C     0.70629   0.35763   0.88030   0.00000  Uiso   1.00
C232   C     0.60513   0.31083   0.86507   0.00000  Uiso   1.00
C233   C     0.52708   0.30043   0.88472   0.00000  Uiso   1.00
C234   C     0.44060   0.25561   0.86580   0.00000  Uiso   1.00
C235   C     0.28471   0.18801   0.84779   0.00000  Uiso   1.00
C236   C     0.68784   0.40091   0.84178   0.00000  Uiso   1.00
C237   C     0.67935   0.46625   0.84186   0.00000  Uiso   1.00
C238   C     0.66250   0.49727   0.80333   0.00000  Uiso   1.00
C239   C     0.63510   0.56953   0.74918   0.00000  Uiso   1.00
C240   C     0.81574   0.31928   0.88708   0.00000  Uiso   1.00
C241   C     0.91480   0.31599   0.92526   0.00000  Uiso   1.00
C242   C     0.00565   0.27829   0.92487   0.00000  Uiso   1.00
C243   C     0.17684   0.22380   0.94106   0.00000  Uiso   1.00
C244   C     0.69148   0.29653   0.81174   0.00000  Uiso   1.00
C245   C     0.59709   0.27764   0.82782   0.00000  Uiso   1.00
C246   C     0.51070   0.23282   0.80887   0.00000  Uiso   1.00
C247   C     0.43254   0.22236   0.82850   0.00000  Uiso   1.00
C248   C     0.67979   0.36773   0.80454   0.00000  Uiso   1.00
C249   C     0.66296   0.39865   0.76600   0.00000  Uiso   1.00
C250   C     0.65444   0.46402   0.76602   0.00000  Uiso   1.00
C251   C     0.80769   0.28609   0.84984   0.00000  Uiso   1.00
C252   C     0.89841   0.24839   0.84940   0.00000  Uiso   1.00
C253   C     0.99759   0.24504   0.88757   0.00000  Uiso   1.00
H254   H     0.71255   0.38347   0.90929   0.00000  Uiso   1.00
H255   H     0.53333   0.32613   0.91354   0.00000  Uiso   1.00
H256   H     0.68559   0.49193   0.87068   0.00000  Uiso   1.00
H257   H     0.92100   0.34168   0.95407   0.00000  Uiso   1.00
H258   H     0.33106   0.24793   0.90182   0.00000  Uiso   1.00
H259   H     0.65213   0.59753   0.81145   0.00000  Uiso   1.00
H260   H     0.14856   0.28072   0.98728   0.00000  Uiso   1.00
H261   H     0.68521   0.27069   0.78275   0.00000  Uiso   1.00
H262   H     0.50449   0.20715   0.78005   0.00000  Uiso   1.00
H263   H     0.65674   0.37295   0.73719   0.00000  Uiso   1.00
H264   H     0.89216   0.22271   0.82058   0.00000  Uiso   1.00
H265   H     0.30765   0.15137   0.79347   0.00000  Uiso   1.00
H266   H     0.62873   0.50096   0.70310   0.00000  Uiso   1.00
H267   H     0.12514   0.18415   0.87894   0.00000  Uiso   1.00
O268   O     0.20094   0.15990   0.84814   0.00000  Uiso   1.00
O269   O     0.62220   0.61856   0.72959   0.00000  Uiso   1.00
O270   O     0.27348   0.20291   0.96028   0.00000  Uiso   1.00
N271   N     0.35037   0.23391   0.87669   0.00000  Uiso   1.00
N272   N     0.65053   0.56077   0.79220   0.00000  Uiso   1.00
N273   N     0.11466   0.26459   0.95659   0.00000  Uiso   1.00
N274   N     0.33777   0.18195   0.81839   0.00000  Uiso   1.00
N275   N     0.63794   0.50880   0.73390   0.00000  Uiso   1.00
N276   N     0.10206   0.21263   0.89829   0.00000  Uiso   1.00
C277   C     0.79371   0.85763   0.61970   0.00000  Uiso   1.00
C278   C     0.89487   0.81083   0.63493   0.00000  Uiso   1.00
C279   C     0.97292   0.80043   0.61528   0.00000  Uiso   1.00
C280   C     0.05940   0.75561   0.63420   0.00000  Uiso   1.00
C281   C     0.21529   0.68801   0.65221   0.00000  Uiso   1.00
C282   C     0.81216   0.90091   0.65822   0.00000  Uiso   1.00
C283   C     0.82065   0.96625   0.65814   0.00000  Uiso   1.00
C284   C     0.83750   0.99727   0.69667   0.00000  Uiso   1.00
C285   C     0.86490   0.06953   0.75082   0.00000  Uiso   1.00
C286   C     0.68426   0.81928   0.61292   0.00000  Uiso   1.00
C287   C     0.58520   0.81599   0.57474   0.00000  Uiso   1.00
C288   C     0.49435   0.77829   0.57513   0.00000  Uiso   1.00
C289   C     0.32316   0.72380   0.55894   0.00000  Uiso   1.00
C290   C     0.80852   0.79653   0.68826   0.00000  Uiso   1.00
C291   C     0.90291   0.77764   0.67218   0.00000  Uiso   1.00
C292   C     0.98930   0.73282   0.69113   0.00000  Uiso   1.00
C293   C     0.06746   0.72236   0.67150   0.00000  Uiso   1.00
C294   C     0.82021   0.86773   0.69546   0.00000  Uiso   1.00
C295   C     0.83704   0.89865   0.73400   0.00000  Uiso   1.00
C296   C     0.84556   0.96402   0.73398   0.00000  Uiso   1.00
C297   C     0.69231   0.78609   0.65016   0.00000  Uiso   1.00
C298   C     0.60159   0.74839   0.65060   0.00000  Uiso   1.00
C299   C     0.50241   0.74504   0.61243   0.00000  Uiso   1.00
H300   H     0.78745   0.88347   0.59071   0.00000  Uiso   1.00
H301   H     0.96667   0.82613   0.58646   0.00000  Uiso   1.00
H302   H     0.81441   0.99193   0.62932   0.00000  Uiso   1.00
H303   H     0.57900   0.84168   0.54593   0.00000  Uiso   1.00
H304   H     0.16894   0.74793   0.59818   0.00000  Uiso   1.00
H305   H     0.84787   0.09753   0.68855   0.00000  Uiso   1.00
H306   H     0.35144   0.78072   0.51272   0.00000  Uiso   1.00
H307   H     0.81479   0.77069   0.71725   0.00000  Uiso   1.00
H308   H     0.99551   0.70715   0.71995   0.00000  Uiso   1.00
H309   H     0.84326   0.87295   0.76281   0.00000  Uiso   1.00
H310   H     0.60784   0.72271   0.67942   0.00000  Uiso   1.00
H311   H     0.19235   0.65137   0.70653   0.00000  Uiso   1.00
H312   H     0.87127   0.00096   0.79690   0.00000  Uiso   1.00
H313   H     0.37486   0.68415   0.62106   0.00000  Uiso   1.00
O314   O     0.29906   0.65990   0.65186   0.00000  Uiso   1.00
O315   O     0.87780   0.11856   0.77041   0.00000  Uiso   1.00
O316   O     0.22652   0.70291   0.53972   0.00000  Uiso   1.00
N317   N     0.14963   0.73391   0.62331   0.00000  Uiso   1.00
N318   N     0.84947   0.06077   0.70780   0.00000  Uiso   1.00
N319   N     0.38534   0.76459   0.54341   0.00000  Uiso   1.00
N320   N     0.16223   0.68195   0.68161   0.00000  Uiso   1.00
N321   N     0.86206   0.00880   0.76610   0.00000  Uiso   1.00
N322   N     0.39794   0.71263   0.60171   0.00000  Uiso   1.00
C323   C     0.29371   0.35763   0.61970   0.00000  Uiso   1.00
C324   C     0.39487   0.31083   0.63493   0.00000  Uiso   1.00
C325   C     0.47292   0.30043   0.61528   0.00000  Uiso   1.00
C326   C     0.55940   0.25561   0.63420   0.00000  Uiso   1.00
C327   C     0.71529   0.18801   0.65221   0.00000  Uiso   1.00
C328   C     0.31216   0.40091   0.65822   0.00000  Uiso   1.00
C329   C     0.32065   0.46625   0.65814   0.00000  Uiso   1.00
C330   C     0.33750   0.49727   0.69667   0.00000  Uiso   1.00
C331   C     0.36490   0.56953   0.75082   0.00000  Uiso   1.00
C332   C     0.18426   0.31928   0.61292   0.00000  Uiso   1.00
C333   C     0.08520   0.31599   0.57474   0.00000  Uiso   1.00
C334   C     0.99435   0.27829   0.57513   0.00000  Uiso   1.00
C335   C     0.82316   0.22380   0.55894   0.00000  Uiso   1.00
C336   C     0.30852   0.29653   0.68826   0.00000  Uiso   1.00
C337   C     0.40291   0.27764   0.67218   0.00000  Uiso   1.00
C338   C     0.48930   0.23282   0.69113   0.00000  Uiso   1.00
C339   C     0.56746   0.22236   0.67150   0.00000  Uiso   1.00
C340   C     0.32021   0.36773   0.69546   0.00000  Uiso   1.00
C341   C     0.33704   0.39865   0.73400   0.00000  Uiso   1.00
C342   C     0.34556   0.46402   0.73398   0.00000  Uiso   1.00
C343   C     0.19231   0.28609   0.65016   0.00000  Uiso   1.00
C344   C     0.10159   0.24839   0.65060   0.00000  Uiso   1.00
C345   C     0.00241   0.24504   0.61243   0.00000  Uiso   1.00
H346   H     0.28745   0.38347   0.59071   0.00000  Uiso   1.00
H347   H     0.46667   0.32613   0.58646   0.00000  Uiso   1.00
H348   H     0.31441   0.49193   0.62932   0.00000  Uiso   1.00
H349   H     0.07900   0.34168   0.54593   0.00000  Uiso   1.00
H350   H     0.66894   0.24793   0.59818   0.00000  Uiso   1.00
H351   H     0.34787   0.59753   0.68855   0.00000  Uiso   1.00
H352   H     0.85144   0.28072   0.51272   0.00000  Uiso   1.00
H353   H     0.31479   0.27069   0.71725   0.00000  Uiso   1.00
H354   H     0.49551   0.20715   0.71995   0.00000  Uiso   1.00
H355   H     0.34326   0.37295   0.76281   0.00000  Uiso   1.00
H356   H     0.10784   0.22271   0.67942   0.00000  Uiso   1.00
H357   H     0.69235   0.15137   0.70653   0.00000  Uiso   1.00
H358   H     0.37127   0.50096   0.79690   0.00000  Uiso   1.00
H359   H     0.87486   0.18415   0.62106   0.00000  Uiso   1.00
O360   O     0.79906   0.15990   0.65186   0.00000  Uiso   1.00
O361   O     0.37780   0.61856   0.77041   0.00000  Uiso   1.00
O362   O     0.72652   0.20291   0.53972   0.00000  Uiso   1.00
N363   N     0.64963   0.23391   0.62331   0.00000  Uiso   1.00
N364   N     0.34947   0.56077   0.70780   0.00000  Uiso   1.00
N365   N     0.88534   0.26459   0.54341   0.00000  Uiso   1.00
N366   N     0.66223   0.18195   0.68161   0.00000  Uiso   1.00
N367   N     0.36206   0.50880   0.76610   0.00000  Uiso   1.00
N368   N     0.89794   0.21263   0.60171   0.00000  Uiso   1.00
