data_job_06927
_audit_creation_date              2018-12-19
_audit_creation_method            'Materials Studio'
_symmetry_space_group_name_H-M    'P1'
_symmetry_Int_Tables_number       1
_symmetry_cell_setting            triclinic
loop_
_symmetry_equiv_pos_as_xyz
  x,y,z
_cell_length_a                    22.0582
_cell_length_b                    22.3743
_cell_length_c                    23.0873
_cell_angle_alpha                 69.6357
_cell_angle_beta                  76.2840
_cell_angle_gamma                 107.0939
loop_
_atom_site_label
_atom_site_type_symbol
_atom_site_fract_x
_atom_site_fract_y
_atom_site_fract_z
_atom_site_U_iso_or_equiv
_atom_site_adp_type
_atom_site_occupancy
C1     C     0.75893   0.78255   0.38735   0.00000  Uiso   1.00
C2     C     0.74008   0.78210   0.45551   0.00000  Uiso   1.00
C3     C     0.78033   0.78073   0.49352   0.00000  Uiso   1.00
C4     C     0.75394   0.78053   0.55452   0.00000  Uiso   1.00
C5     C     0.73444   0.77963   0.65700   0.00000  Uiso   1.00
C6     C     0.70102   0.71972   0.39425   0.00000  Uiso   1.00
C7     C     0.70842   0.66591   0.38075   0.00000  Uiso   1.00
C8     C     0.64914   0.61319   0.39018   0.00000  Uiso   1.00
C9     C     0.56900   0.51547   0.39752   0.00000  Uiso   1.00
C10    C     0.75453   0.84724   0.34021   0.00000  Uiso   1.00
C11    C     0.80693   0.90065   0.28126   0.00000  Uiso   1.00
C12    C     0.79270   0.95529   0.24519   0.00000  Uiso   1.00
C13    C     0.79565   0.05557   0.16861   0.00000  Uiso   1.00
C14    C     0.64050   0.78463   0.42809   0.00000  Uiso   1.00
C15    C     0.67576   0.78323   0.47763   0.00000  Uiso   1.00
C16    C     0.64930   0.78303   0.53859   0.00000  Uiso   1.00
C17    C     0.68950   0.78166   0.57669   0.00000  Uiso   1.00
C18    C     0.63669   0.72085   0.41638   0.00000  Uiso   1.00
C19    C     0.57739   0.66820   0.42583   0.00000  Uiso   1.00
C20    C     0.58470   0.61432   0.41235   0.00000  Uiso   1.00
C21    C     0.69021   0.84837   0.36234   0.00000  Uiso   1.00
C22    C     0.67590   0.90294   0.32634   0.00000  Uiso   1.00
C23    C     0.72826   0.95642   0.26735   0.00000  Uiso   1.00
H24    H     0.80901   0.78167   0.37012   0.00000  Uiso   1.00
H25    H     0.83010   0.77985   0.47638   0.00000  Uiso   1.00
H26    H     0.75821   0.66505   0.36362   0.00000  Uiso   1.00
H27    H     0.85670   0.89975   0.26415   0.00000  Uiso   1.00
H28    H     0.82511   0.77831   0.60396   0.00000  Uiso   1.00
H29    H     0.67351   0.53626   0.36618   0.00000  Uiso   1.00
H30    H     0.88120   0.03117   0.15643   0.00000  Uiso   1.00
H31    H     0.59042   0.78550   0.44532   0.00000  Uiso   1.00
H32    H     0.59952   0.78390   0.55570   0.00000  Uiso   1.00
H33    H     0.52762   0.66910   0.44295   0.00000  Uiso   1.00
H34    H     0.62611   0.90380   0.34348   0.00000  Uiso   1.00
H35    H     0.63796   0.78160   0.66834   0.00000  Uiso   1.00
H36    H     0.48636   0.53954   0.43056   0.00000  Uiso   1.00
H37    H     0.69405   0.03446   0.22081   0.00000  Uiso   1.00
O38    O     0.74146   0.77881   0.70742   0.00000  Uiso   1.00
O39    O     0.54257   0.46125   0.39545   0.00000  Uiso   1.00
O40    O     0.81505   0.11057   0.12027   0.00000  Uiso   1.00
N41    N     0.77982   0.77932   0.60396   0.00000  Uiso   1.00
N42    N     0.63809   0.55300   0.38166   0.00000  Uiso   1.00
N43    N     0.83225   0.01570   0.18555   0.00000  Uiso   1.00
N44    N     0.67912   0.78109   0.63860   0.00000  Uiso   1.00
N45    N     0.53738   0.55477   0.41630   0.00000  Uiso   1.00
N46    N     0.73155   0.01747   0.22019   0.00000  Uiso   1.00
C47    C     0.32098   0.17079   0.77427   0.00000  Uiso   1.00
C48    C     0.39181   0.22267   0.72121   0.00000  Uiso   1.00
C49    C     0.41200   0.24153   0.65341   0.00000  Uiso   1.00
C50    C     0.47900   0.28984   0.61309   0.00000  Uiso   1.00
C51    C     0.58212   0.36605   0.52667   0.00000  Uiso   1.00
C52    C     0.33249   0.11521   0.82580   0.00000  Uiso   1.00
C53    C     0.30279   0.04371   0.84594   0.00000  Uiso   1.00
C54    C     0.31986   0.00156   0.89367   0.00000  Uiso   1.00
C55    C     0.33084   0.91092   0.96965   0.00000  Uiso   1.00
C56    C     0.29560   0.21030   0.80935   0.00000  Uiso   1.00
C57    C     0.23488   0.21875   0.81568   0.00000  Uiso   1.00
C58    C     0.22089   0.25665   0.84958   0.00000  Uiso   1.00
C59    C     0.17461   0.31366   0.90003   0.00000  Uiso   1.00
C60    C     0.40408   0.22305   0.82323   0.00000  Uiso   1.00
C61    C     0.43694   0.25105   0.74781   0.00000  Uiso   1.00
C62    C     0.50394   0.29935   0.70758   0.00000  Uiso   1.00
C63    C     0.52422   0.31828   0.63973   0.00000  Uiso   1.00
C64    C     0.37762   0.14359   0.85239   0.00000  Uiso   1.00
C65    C     0.39473   0.10153   0.90011   0.00000  Uiso   1.00
C66    C     0.36507   0.02999   0.92031   0.00000  Uiso   1.00
C67    C     0.34074   0.23869   0.83595   0.00000  Uiso   1.00
C68    C     0.32683   0.27657   0.86985   0.00000  Uiso   1.00
C69    C     0.26611   0.28508   0.87623   0.00000  Uiso   1.00
H70    H     0.28584   0.14869   0.75357   0.00000  Uiso   1.00
H71    H     0.37705   0.21955   0.63285   0.00000  Uiso   1.00
H72    H     0.26786   0.02176   0.82535   0.00000  Uiso   1.00
H73    H     0.19997   0.19678   0.79510   0.00000  Uiso   1.00
H74    H     0.49809   0.31061   0.51074   0.00000  Uiso   1.00
H75    H     0.26783   0.89356   0.91666   0.00000  Uiso   1.00
H76    H     0.12467   0.26261   0.85287   0.00000  Uiso   1.00
H77    H     0.43922   0.24515   0.84394   0.00000  Uiso   1.00
H78    H     0.53886   0.32131   0.72818   0.00000  Uiso   1.00
H79    H     0.42966   0.12351   0.92068   0.00000  Uiso   1.00
H80    H     0.36177   0.29853   0.89042   0.00000  Uiso   1.00
H81    H     0.62942   0.39320   0.58811   0.00000  Uiso   1.00
H82    H     0.39915   0.97614   0.99404   0.00000  Uiso   1.00
H83    H     0.25600   0.34520   0.93024   0.00000  Uiso   1.00
O84    O     0.62653   0.40024   0.47165   0.00000  Uiso   1.00
O85    O     0.32443   0.85309   0.00421   0.00000  Uiso   1.00
O86    O     0.13661   0.33728   0.92050   0.00000  Uiso   1.00
N87    N     0.51532   0.31961   0.54484   0.00000  Uiso   1.00
N88    N     0.30005   0.92969   0.92434   0.00000  Uiso   1.00
N89    N     0.16620   0.27471   0.86471   0.00000  Uiso   1.00
N90    N     0.58599   0.36404   0.58647   0.00000  Uiso   1.00
N91    N     0.37071   0.97413   0.96597   0.00000  Uiso   1.00
N92    N     0.23687   0.31915   0.90634   0.00000  Uiso   1.00
C93    C     0.81301   0.02795   0.73454   0.00000  Uiso   1.00
C94    C     0.73626   0.00865   0.75479   0.00000  Uiso   1.00
C95    C     0.68661   0.96268   0.81808   0.00000  Uiso   1.00
C96    C     0.61920   0.95200   0.82645   0.00000  Uiso   1.00
C97    C     0.50262   0.91682   0.86596   0.00000  Uiso   1.00
C98    C     0.83380   0.01075   0.67649   0.00000  Uiso   1.00
C99    C     0.86615   0.96655   0.67396   0.00000  Uiso   1.00
C100   C     0.88086   0.95764   0.61642   0.00000  Uiso   1.00
C101   C     0.91574   0.92576   0.53435   0.00000  Uiso   1.00
C102   C     0.84746   0.10747   0.70538   0.00000  Uiso   1.00
C103   C     0.89132   0.14460   0.72712   0.00000  Uiso   1.00
C104   C     0.91755   0.21713   0.69389   0.00000  Uiso   1.00
C105   C     0.97366   0.33542   0.65667   0.00000  Uiso   1.00
C106   C     0.78162   0.09074   0.63684   0.00000  Uiso   1.00
C107   C     0.71922   0.04276   0.70172   0.00000  Uiso   1.00
C108   C     0.65187   0.03215   0.70999   0.00000  Uiso   1.00
C109   C     0.60212   0.98616   0.77330   0.00000  Uiso   1.00
C110   C     0.81675   0.04485   0.62343   0.00000  Uiso   1.00
C111   C     0.83142   0.03601   0.56587   0.00000  Uiso   1.00
C112   C     0.86378   0.99180   0.56326   0.00000  Uiso   1.00
C113   C     0.83041   0.14158   0.65231   0.00000  Uiso   1.00
C114   C     0.85659   0.21406   0.61903   0.00000  Uiso   1.00
C115   C     0.90047   0.25129   0.64073   0.00000  Uiso   1.00
H116   H     0.82629   0.00140   0.77584   0.00000  Uiso   1.00
H117   H     0.69982   0.93629   0.85913   0.00000  Uiso   1.00
H118   H     0.87934   0.94017   0.71503   0.00000  Uiso   1.00
H119   H     0.90451   0.11819   0.76819   0.00000  Uiso   1.00
H120   H     0.55208   0.87913   0.92807   0.00000  Uiso   1.00
H121   H     0.93063   0.88732   0.62421   0.00000  Uiso   1.00
H122   H     0.98370   0.26271   0.73630   0.00000  Uiso   1.00
H123   H     0.76835   0.11729   0.59552   0.00000  Uiso   1.00
H124   H     0.63869   0.05854   0.66892   0.00000  Uiso   1.00
H125   H     0.81822   0.06241   0.52482   0.00000  Uiso   1.00
H126   H     0.84338   0.24043   0.57797   0.00000  Uiso   1.00
H127   H     0.50247   0.97835   0.77368   0.00000  Uiso   1.00
H128   H     0.88103   0.98654   0.46982   0.00000  Uiso   1.00
H129   H     0.93409   0.36193   0.58191   0.00000  Uiso   1.00
O130   O     0.44303   0.88799   0.90241   0.00000  Uiso   1.00
O131   O     0.93969   0.89874   0.50375   0.00000  Uiso   1.00
O132   O     0.00931   0.39124   0.65081   0.00000  Uiso   1.00
N133   N     0.55820   0.91056   0.88166   0.00000  Uiso   1.00
N134   N     0.91211   0.91820   0.59758   0.00000  Uiso   1.00
N135   N     0.96174   0.26916   0.70236   0.00000  Uiso   1.00
N136   N     0.53151   0.96394   0.79859   0.00000  Uiso   1.00
N137   N     0.88542   0.97159   0.51451   0.00000  Uiso   1.00
N138   N     0.93505   0.32255   0.61929   0.00000  Uiso   1.00
C139   C     0.13529   0.50959   0.15010   0.00000  Uiso   1.00
C140   C     0.16862   0.52979   0.19522   0.00000  Uiso   1.00
C141   C     0.14218   0.49513   0.26446   0.00000  Uiso   1.00
C142   C     0.18046   0.52181   0.29657   0.00000  Uiso   1.00
C143   C     0.22273   0.54415   0.37209   0.00000  Uiso   1.00
C144   C     0.18816   0.49944   0.10288   0.00000  Uiso   1.00
C145   C     0.17816   0.43927   0.09448   0.00000  Uiso   1.00
C146   C     0.23289   0.44041   0.04885   0.00000  Uiso   1.00
C147   C     0.30549   0.41565   0.98098   0.00000  Uiso   1.00
C148   C     0.12788   0.57423   0.10692   0.00000  Uiso   1.00
C149   C     0.06719   0.57695   0.10188   0.00000  Uiso   1.00
C150   C     0.07117   0.64105   0.05964   0.00000  Uiso   1.00
C151   C     0.05017   0.73242   0.99803   0.00000  Uiso   1.00
C152   C     0.25027   0.61859   0.08402   0.00000  Uiso   1.00
C153   C     0.23107   0.58899   0.15933   0.00000  Uiso   1.00
C154   C     0.26940   0.61573   0.19135   0.00000  Uiso   1.00
C155   C     0.24302   0.58112   0.26062   0.00000  Uiso   1.00
C156   C     0.25062   0.55864   0.06699   0.00000  Uiso   1.00
C157   C     0.30537   0.55987   0.02137   0.00000  Uiso   1.00
C158   C     0.29546   0.49972   0.01290   0.00000  Uiso   1.00
C159   C     0.19033   0.63344   0.07102   0.00000  Uiso   1.00
C160   C     0.19441   0.69755   0.02878   0.00000  Uiso   1.00
C161   C     0.13374   0.70036   0.02369   0.00000  Uiso   1.00
H162   H     0.08667   0.46349   0.17804   0.00000  Uiso   1.00
H163   H     0.09385   0.44931   0.29221   0.00000  Uiso   1.00
H164   H     0.12982   0.39347   0.12225   0.00000  Uiso   1.00
H165   H     0.01887   0.53112   0.12967   0.00000  Uiso   1.00
H166   H     0.12937   0.45968   0.40297   0.00000  Uiso   1.00
H167   H     0.20521   0.34194   0.04458   0.00000  Uiso   1.00
H168   H     0.97124   0.63221   0.06021   0.00000  Uiso   1.00
H169   H     0.29890   0.66469   0.05608   0.00000  Uiso   1.00
H170   H     0.31773   0.66155   0.16356   0.00000  Uiso   1.00
H171   H     0.35370   0.60570   0.99360   0.00000  Uiso   1.00
H172   H     0.24275   0.74336   0.00101   0.00000  Uiso   1.00
H173   H     0.31108   0.63194   0.29855   0.00000  Uiso   1.00
H174   H     0.38691   0.51420   0.94016   0.00000  Uiso   1.00
H175   H     0.15295   0.80447   0.95579   0.00000  Uiso   1.00
O176   O     0.22879   0.54011   0.42366   0.00000  Uiso   1.00
O177   O     0.32828   0.38563   0.95346   0.00000  Uiso   1.00
O178   O     0.02133   0.76646   0.97397   0.00000  Uiso   1.00
N179   N     0.16954   0.50067   0.36364   0.00000  Uiso   1.00
N180   N     0.24045   0.39057   0.02858   0.00000  Uiso   1.00
N181   N     0.02172   0.66195   0.04318   0.00000  Uiso   1.00
N182   N     0.26732   0.59336   0.30745   0.00000  Uiso   1.00
N183   N     0.33822   0.48327   0.97239   0.00000  Uiso   1.00
N184   N     0.11949   0.75464   0.98699   0.00000  Uiso   1.00
C185   C     0.52953   0.26969   0.21745   0.00000  Uiso   1.00
C186   C     0.45979   0.27274   0.22824   0.00000  Uiso   1.00
C187   C     0.43506   0.29576   0.17863   0.00000  Uiso   1.00
C188   C     0.36997   0.29448   0.19872   0.00000  Uiso   1.00
C189   C     0.26758   0.30275   0.20525   0.00000  Uiso   1.00
C190   C     0.51507   0.19398   0.26090   0.00000  Uiso   1.00
C191   C     0.53684   0.15080   0.23874   0.00000  Uiso   1.00
C192   C     0.51830   0.08322   0.28632   0.00000  Uiso   1.00
C193   C     0.50178   0.96924   0.34355   0.00000  Uiso   1.00
C194   C     0.56467   0.31272   0.24812   0.00000  Uiso   1.00
C195   C     0.62814   0.36937   0.21522   0.00000  Uiso   1.00
C196   C     0.65137   0.40175   0.25206   0.00000  Uiso   1.00
C197   C     0.71185   0.47213   0.28945   0.00000  Uiso   1.00
C198   C     0.45793   0.22647   0.34136   0.00000  Uiso   1.00
C199   C     0.42089   0.24926   0.29555   0.00000  Uiso   1.00
C200   C     0.35583   0.24794   0.31572   0.00000  Uiso   1.00
C201   C     0.33101   0.27096   0.26614   0.00000  Uiso   1.00
C202   C     0.47618   0.17050   0.32820   0.00000  Uiso   1.00
C203   C     0.45761   0.10297   0.37583   0.00000  Uiso   1.00
C204   C     0.47934   0.05970   0.35374   0.00000  Uiso   1.00
C205   C     0.52577   0.28925   0.31542   0.00000  Uiso   1.00
C206   C     0.54891   0.32154   0.35232   0.00000  Uiso   1.00
C207   C     0.61241   0.37823   0.31948   0.00000  Uiso   1.00
H208   H     0.55981   0.28796   0.16505   0.00000  Uiso   1.00
H209   H     0.46517   0.31392   0.12655   0.00000  Uiso   1.00
H210   H     0.56694   0.16898   0.18665   0.00000  Uiso   1.00
H211   H     0.65822   0.38752   0.16314   0.00000  Uiso   1.00
H212   H     0.34308   0.33233   0.11354   0.00000  Uiso   1.00
H213   H     0.55768   0.02672   0.24028   0.00000  Uiso   1.00
H214   H     0.75018   0.48754   0.19070   0.00000  Uiso   1.00
H215   H     0.42765   0.20819   0.39376   0.00000  Uiso   1.00
H216   H     0.32575   0.22977   0.36781   0.00000  Uiso   1.00
H217   H     0.42752   0.08483   0.42791   0.00000  Uiso   1.00
H218   H     0.51880   0.30336   0.40440   0.00000  Uiso   1.00
H219   H     0.22991   0.26402   0.30936   0.00000  Uiso   1.00
H220   H     0.44452   0.95841   0.43609   0.00000  Uiso   1.00
H221   H     0.63702   0.41924   0.38652   0.00000  Uiso   1.00
O222   O     0.22184   0.31379   0.19025   0.00000  Uiso   1.00
O223   O     0.50341   0.91285   0.35652   0.00000  Uiso   1.00
O224   O     0.75596   0.51744   0.29148   0.00000  Uiso   1.00
N225   N     0.33043   0.31330   0.16319   0.00000  Uiso   1.00
N226   N     0.53107   0.02757   0.28167   0.00000  Uiso   1.00
N227   N     0.71105   0.45839   0.23533   0.00000  Uiso   1.00
N228   N     0.26954   0.27655   0.26855   0.00000  Uiso   1.00
N229   N     0.47018   0.99082   0.38704   0.00000  Uiso   1.00
N230   N     0.65016   0.42164   0.34070   0.00000  Uiso   1.00
C231   C     0.17703   0.74434   0.50160   0.00000  Uiso   1.00
C232   C     0.22701   0.79240   0.42960   0.00000  Uiso   1.00
C233   C     0.29628   0.80723   0.40516   0.00000  Uiso   1.00
C234   C     0.33325   0.85248   0.33776   0.00000  Uiso   1.00
C235   C     0.41561   0.92262   0.23224   0.00000  Uiso   1.00
C236   C     0.11927   0.68922   0.49863   0.00000  Uiso   1.00
C237   C     0.09795   0.61730   0.53225   0.00000  Uiso   1.00
C238   C     0.04421   0.57569   0.52297   0.00000  Uiso   1.00
C239   C     0.95927   0.48564   0.52467   0.00000  Uiso   1.00
C240   C     0.14539   0.78839   0.52434   0.00000  Uiso   1.00
C241   C     0.14600   0.79983   0.57959   0.00000  Uiso   1.00
C242   C     0.11424   0.84171   0.59197   0.00000  Uiso   1.00
C243   C     0.06984   0.90564   0.63359   0.00000  Uiso   1.00
C244   C     0.11951   0.79834   0.42537   0.00000  Uiso   1.00
C245   C     0.19577   0.82173   0.38819   0.00000  Uiso   1.00
C246   C     0.23264   0.86698   0.32081   0.00000  Uiso   1.00
C247   C     0.30195   0.88186   0.29628   0.00000  Uiso   1.00
C248   C     0.08803   0.71855   0.45722   0.00000  Uiso   1.00
C249   C     0.03431   0.67705   0.44790   0.00000  Uiso   1.00
C250   C     0.01291   0.60507   0.48149   0.00000  Uiso   1.00
C251   C     0.11415   0.81773   0.48294   0.00000  Uiso   1.00
C252   C     0.08237   0.85959   0.49524   0.00000  Uiso   1.00
C253   C     0.08294   0.87110   0.55049   0.00000  Uiso   1.00
H254   H     0.20135   0.72150   0.53384   0.00000  Uiso   1.00
H255   H     0.32044   0.78451   0.43722   0.00000  Uiso   1.00
H256   H     0.12213   0.59461   0.56429   0.00000  Uiso   1.00
H257   H     0.17018   0.77713   0.61162   0.00000  Uiso   1.00
H258   H     0.43869   0.86729   0.31183   0.00000  Uiso   1.00
H259   H     0.02053   0.46687   0.57978   0.00000  Uiso   1.00
H260   H     0.12185   0.85174   0.67960   0.00000  Uiso   1.00
H261   H     0.09519   0.82118   0.39313   0.00000  Uiso   1.00
H262   H     0.20845   0.88967   0.28878   0.00000  Uiso   1.00
H263   H     0.01015   0.69976   0.41585   0.00000  Uiso   1.00
H264   H     0.05820   0.88228   0.46319   0.00000  Uiso   1.00
H265   H     0.34780   0.95263   0.19135   0.00000  Uiso   1.00
H266   H     0.92964   0.55222   0.45931   0.00000  Uiso   1.00
H267   H     0.03096   0.93709   0.55912   0.00000  Uiso   1.00
O268   O     0.46966   0.95319   0.18548   0.00000  Uiso   1.00
O269   O     0.92105   0.42787   0.53704   0.00000  Uiso   1.00
O270   O     0.05399   0.93281   0.66798   0.00000  Uiso   1.00
N271   N     0.40175   0.87798   0.29780   0.00000  Uiso   1.00
N272   N     0.01081   0.50362   0.54831   0.00000  Uiso   1.00
N273   N     0.10552   0.86343   0.64164   0.00000  Uiso   1.00
N274   N     0.35285   0.92391   0.23297   0.00000  Uiso   1.00
N275   N     0.96190   0.54955   0.48348   0.00000  Uiso   1.00
N276   N     0.05661   0.90935   0.57681   0.00000  Uiso   1.00
C277   C     0.18681   0.12039   0.57796   0.00000  Uiso   1.00
C278   C     0.19140   0.09978   0.52119   0.00000  Uiso   1.00
C279   C     0.13886   0.07996   0.49933   0.00000  Uiso   1.00
C280   C     0.15331   0.06309   0.44668   0.00000  Uiso   1.00
C281   C     0.15061   0.03069   0.36303   0.00000  Uiso   1.00
C282   C     0.24397   0.19337   0.54811   0.00000  Uiso   1.00
C283   C     0.23561   0.25223   0.54890   0.00000  Uiso   1.00
C284   C     0.29431   0.31414   0.51892   0.00000  Uiso   1.00
C285   C     0.37323   0.42702   0.47710   0.00000  Uiso   1.00
C286   C     0.20667   0.07165   0.62713   0.00000  Uiso   1.00
C287   C     0.16697   0.02818   0.69436   0.00000  Uiso   1.00
C288   C     0.19428   0.98762   0.73092   0.00000  Uiso   1.00
C289   C     0.21529   0.91152   0.81180   0.00000  Uiso   1.00
C290   C     0.30590   0.12568   0.52334   0.00000  Uiso   1.00
C291   C     0.25609   0.10266   0.49153   0.00000  Uiso   1.00
C292   C     0.27062   0.08582   0.43890   0.00000  Uiso   1.00
C293   C     0.21811   0.06597   0.41696   0.00000  Uiso   1.00
C294   C     0.30865   0.19625   0.51845   0.00000  Uiso   1.00
C295   C     0.36738   0.25808   0.48846   0.00000  Uiso   1.00
C296   C     0.35912   0.31702   0.48920   0.00000  Uiso   1.00
C297   C     0.27136   0.07452   0.59747   0.00000  Uiso   1.00
C298   C     0.29874   0.03403   0.63393   0.00000  Uiso   1.00
C299   C     0.25908   0.99051   0.70120   0.00000  Uiso   1.00
H300   H     0.13645   0.11815   0.60105   0.00000  Uiso   1.00
H301   H     0.08881   0.07775   0.52230   0.00000  Uiso   1.00
H302   H     0.18555   0.24998   0.57186   0.00000  Uiso   1.00
H303   H     0.11692   0.02597   0.71730   0.00000  Uiso   1.00
H304   H     0.06452   0.03424   0.42188   0.00000  Uiso   1.00
H305   H     0.26851   0.39741   0.52641   0.00000  Uiso   1.00
H306   H     0.12378   0.92503   0.83311   0.00000  Uiso   1.00
H307   H     0.35627   0.12792   0.50024   0.00000  Uiso   1.00
H308   H     0.32069   0.08805   0.41595   0.00000  Uiso   1.00
H309   H     0.41743   0.26029   0.46551   0.00000  Uiso   1.00
H310   H     0.34880   0.03627   0.61096   0.00000  Uiso   1.00
H311   H     0.25273   0.04260   0.33557   0.00000  Uiso   1.00
H312   H     0.45672   0.40577   0.44010   0.00000  Uiso   1.00
H313   H     0.31199   0.93339   0.74679   0.00000  Uiso   1.00
O314   O     0.13126   0.01204   0.32508   0.00000  Uiso   1.00
O315   O     0.39888   0.48849   0.46223   0.00000  Uiso   1.00
O316   O     0.20900   0.86874   0.86460   0.00000  Uiso   1.00
N317   N     0.11369   0.04167   0.41315   0.00000  Uiso   1.00
N318   N     0.30441   0.38121   0.51086   0.00000  Uiso   1.00
N319   N     0.16911   0.93959   0.79760   0.00000  Uiso   1.00
N320   N     0.21496   0.04617   0.36670   0.00000  Uiso   1.00
N321   N     0.40568   0.38571   0.46442   0.00000  Uiso   1.00
N322   N     0.27038   0.94409   0.75115   0.00000  Uiso   1.00
C323   C     0.50080   0.63764   0.17744   0.00000  Uiso   1.00
C324   C     0.43332   0.57309   0.20849   0.00000  Uiso   1.00
C325   C     0.39921   0.52708   0.27597   0.00000  Uiso   1.00
C326   C     0.33814   0.47119   0.29435   0.00000  Uiso   1.00
C327   C     0.23729   0.37242   0.34977   0.00000  Uiso   1.00
C328   C     0.48675   0.69926   0.13854   0.00000  Uiso   1.00
C329   C     0.49756   0.75935   0.14722   0.00000  Uiso   1.00
C330   C     0.48148   0.80968   0.10671   0.00000  Uiso   1.00
C331   C     0.46362   0.90682   0.05351   0.00000  Uiso   1.00
C332   C     0.54960   0.62861   0.12543   0.00000  Uiso   1.00
C333   C     0.61328   0.62932   0.12306   0.00000  Uiso   1.00
C334   C     0.65012   0.62018   0.07150   0.00000  Uiso   1.00
C335   C     0.72985   0.60763   0.99793   0.00000  Uiso   1.00
C336   C     0.45302   0.62018   0.09006   0.00000  Uiso   1.00
C337   C     0.40737   0.56361   0.16102   0.00000  Uiso   1.00
C338   C     0.34634   0.50777   0.17930   0.00000  Uiso   1.00
C339   C     0.31214   0.46169   0.24680   0.00000  Uiso   1.00
C340   C     0.46079   0.68978   0.09108   0.00000  Uiso   1.00
C341   C     0.44470   0.74004   0.05054   0.00000  Uiso   1.00
C342   C     0.45548   0.80018   0.05916   0.00000  Uiso   1.00
C343   C     0.52365   0.61913   0.07796   0.00000  Uiso   1.00
C344   C     0.56041   0.61000   0.02639   0.00000  Uiso   1.00
C345   C     0.62413   0.61069   0.02395   0.00000  Uiso   1.00
H346   H     0.52101   0.64503   0.21439   0.00000  Uiso   1.00
H347   H     0.41930   0.53444   0.31269   0.00000  Uiso   1.00
H348   H     0.51765   0.76668   0.18395   0.00000  Uiso   1.00
H349   H     0.63334   0.63666   0.15980   0.00000  Uiso   1.00
H350   H     0.29509   0.40767   0.40074   0.00000  Uiso   1.00
H351   H     0.50248   0.89736   0.12927   0.00000  Uiso   1.00
H352   H     0.74644   0.62320   0.07834   0.00000  Uiso   1.00
H353   H     0.43282   0.61280   0.05311   0.00000  Uiso   1.00
H354   H     0.32627   0.50044   0.14256   0.00000  Uiso   1.00
H355   H     0.42462   0.73268   0.01382   0.00000  Uiso   1.00
H356   H     0.54031   0.60266   0.98967   0.00000  Uiso   1.00
H357   H     0.21958   0.38008   0.26266   0.00000  Uiso   1.00
H358   H     0.42698   0.86978   0.99118   0.00000  Uiso   1.00
H359   H     0.67093   0.59561   0.94026   0.00000  Uiso   1.00
O360   O     0.18882   0.32056   0.39345   0.00000  Uiso   1.00
O361   O     0.46093   0.96302   0.03728   0.00000  Uiso   1.00
O362   O     0.78099   0.60332   0.97047   0.00000  Uiso   1.00
N363   N     0.29194   0.41659   0.35596   0.00000  Uiso   1.00
N364   N     0.48584   0.87442   0.10216   0.00000  Uiso   1.00
N365   N     0.71393   0.61811   0.05454   0.00000  Uiso   1.00
N366   N     0.25131   0.40174   0.28166   0.00000  Uiso   1.00
N367   N     0.44521   0.85957   0.02786   0.00000  Uiso   1.00
N368   N     0.67330   0.60327   0.98024   0.00000  Uiso   1.00
C369   C     0.07467   0.85773   0.16482   0.00000  Uiso   1.00
C370   C     0.11997   0.82374   0.18984   0.00000  Uiso   1.00
C371   C     0.18865   0.84342   0.15452   0.00000  Uiso   1.00
C372   C     0.22106   0.80576   0.18615   0.00000  Uiso   1.00
C373   C     0.29675   0.76142   0.21517   0.00000  Uiso   1.00
C374   C     0.04607   0.88061   0.21621   0.00000  Uiso   1.00
C375   C     0.05261   0.94811   0.20307   0.00000  Uiso   1.00
C376   C     0.02280   0.95833   0.25691   0.00000  Uiso   1.00
C377   C     0.98372   0.00227   0.32687   0.00000  Uiso   1.00
C378   C     0.01371   0.79903   0.16994   0.00000  Uiso   1.00
C379   C     0.99303   0.79794   0.11790   0.00000  Uiso   1.00
C380   C     0.93596   0.73948   0.13279   0.00000  Uiso   1.00
C381   C     0.84663   0.65676   0.13091   0.00000  Uiso   1.00
C382   C     0.01009   0.75585   0.28379   0.00000  Uiso   1.00
C383   C     0.08490   0.76840   0.25446   0.00000  Uiso   1.00
C384   C     0.11721   0.73070   0.28614   0.00000  Uiso   1.00
C385   C     0.18592   0.75032   0.25088   0.00000  Uiso   1.00
C386   C     0.01100   0.82527   0.28083   0.00000  Uiso   1.00
C387   C     0.98117   0.83539   0.33470   0.00000  Uiso   1.00
C388   C     0.98766   0.90289   0.32164   0.00000  Uiso   1.00
C389   C     0.97864   0.74369   0.23456   0.00000  Uiso   1.00
C390   C     0.92159   0.68522   0.24953   0.00000  Uiso   1.00
C391   C     0.90082   0.68404   0.19752   0.00000  Uiso   1.00
H392   H     0.10197   0.90082   0.11452   0.00000  Uiso   1.00
H393   H     0.21578   0.88626   0.10452   0.00000  Uiso   1.00
H394   H     0.07975   0.99093   0.15306   0.00000  Uiso   1.00
H395   H     0.02018   0.84078   0.06791   0.00000  Uiso   1.00
H396   H     0.32649   0.84572   0.12194   0.00000  Uiso   1.00
H397   H     0.03965   0.06642   0.22429   0.00000  Uiso   1.00
H398   H     0.91403   0.74981   0.04473   0.00000  Uiso   1.00
H399   H     0.98279   0.71276   0.33410   0.00000  Uiso   1.00
H400   H     0.09005   0.68788   0.33615   0.00000  Uiso   1.00
H401   H     0.95403   0.79255   0.38469   0.00000  Uiso   1.00
H402   H     0.89446   0.64240   0.29954   0.00000  Uiso   1.00
H403   H     0.22445   0.68471   0.30994   0.00000  Uiso   1.00
H404   H     0.93761   0.90541   0.41229   0.00000  Uiso   1.00
H405   H     0.81199   0.58880   0.23273   0.00000  Uiso   1.00
O406   O     0.34819   0.75226   0.21333   0.00000  Uiso   1.00
O407   O     0.97186   0.04180   0.34761   0.00000  Uiso   1.00
O408   O     0.80705   0.62641   0.11203   0.00000  Uiso   1.00
N409   N     0.28775   0.81123   0.16590   0.00000  Uiso   1.00
N410   N     0.01958   0.01758   0.26159   0.00000  Uiso   1.00
N411   N     0.90213   0.72158   0.09372   0.00000  Uiso   1.00
N412   N     0.23284   0.72460   0.26706   0.00000  Uiso   1.00
N413   N     0.96467   0.93094   0.36276   0.00000  Uiso   1.00
N414   N     0.84722   0.63494   0.19488   0.00000  Uiso   1.00
C415   C     0.67771   0.33409   0.86730   0.00000  Uiso   1.00
C416   C     0.67280   0.30974   0.81389   0.00000  Uiso   1.00
C417   C     0.72594   0.33223   0.75432   0.00000  Uiso   1.00
C418   C     0.71106   0.30368   0.71210   0.00000  Uiso   1.00
C419   C     0.71342   0.27339   0.62659   0.00000  Uiso   1.00
C420   C     0.62302   0.36232   0.87739   0.00000  Uiso   1.00
C421   C     0.63432   0.42902   0.87121   0.00000  Uiso   1.00
C422   C     0.57754   0.44474   0.88245   0.00000  Uiso   1.00
C423   C     0.50261   0.49606   0.89558   0.00000  Uiso   1.00
C424   C     0.65444   0.26807   0.93183   0.00000  Uiso   1.00
C425   C     0.69215   0.25552   0.97144   0.00000  Uiso   1.00
C426   C     0.66181   0.19188   0.02853   0.00000  Uiso   1.00
C427   C     0.63567   0.09686   0.12618   0.00000  Uiso   1.00
C428   C     0.55679   0.24340   0.89825   0.00000  Uiso   1.00
C429   C     0.60712   0.26048   0.83070   0.00000  Uiso   1.00
C430   C     0.59216   0.23188   0.78856   0.00000  Uiso   1.00
C431   C     0.64527   0.25433   0.72894   0.00000  Uiso   1.00
C432   C     0.55735   0.31306   0.89420   0.00000  Uiso   1.00
C433   C     0.50054   0.32868   0.90546   0.00000  Uiso   1.00
C434   C     0.51174   0.39539   0.89930   0.00000  Uiso   1.00
C435   C     0.58877   0.21880   0.94864   0.00000  Uiso   1.00
C436   C     0.55837   0.15517   0.00568   0.00000  Uiso   1.00
C437   C     0.59601   0.14253   0.04537   0.00000  Uiso   1.00
H438   H     0.72884   0.37245   0.85421   0.00000  Uiso   1.00
H439   H     0.77676   0.37036   0.74132   0.00000  Uiso   1.00
H440   H     0.68515   0.46713   0.85821   0.00000  Uiso   1.00
H441   H     0.74297   0.29366   0.95842   0.00000  Uiso   1.00
H442   H     0.80091   0.34634   0.62357   0.00000  Uiso   1.00
H443   H     0.60775   0.55038   0.87005   0.00000  Uiso   1.00
H444   H     0.72967   0.18458   0.08136   0.00000  Uiso   1.00
H445   H     0.50566   0.20504   0.91134   0.00000  Uiso   1.00
H446   H     0.54133   0.19376   0.80159   0.00000  Uiso   1.00
H447   H     0.44972   0.29054   0.91847   0.00000  Uiso   1.00
H448   H     0.50754   0.11706   0.01868   0.00000  Uiso   1.00
H449   H     0.60983   0.20301   0.67248   0.00000  Uiso   1.00
H450   H     0.41666   0.40706   0.91896   0.00000  Uiso   1.00
H451   H     0.53859   0.04125   0.13027   0.00000  Uiso   1.00
O452   O     0.73286   0.27029   0.57478   0.00000  Uiso   1.00
O453   O     0.47943   0.53799   0.89817   0.00000  Uiso   1.00
O454   O     0.63939   0.05806   0.17540   0.00000  Uiso   1.00
N455   N     0.75105   0.31414   0.65015   0.00000  Uiso   1.00
N456   N     0.57045   0.50492   0.88058   0.00000  Uiso   1.00
N457   N     0.68443   0.16293   0.07815   0.00000  Uiso   1.00
N458   N     0.64823   0.23702   0.67647   0.00000  Uiso   1.00
N459   N     0.46763   0.42779   0.90690   0.00000  Uiso   1.00
N460   N     0.58161   0.08580   0.10447   0.00000  Uiso   1.00
C461   C     0.35054   0.55989   0.70979   0.00000  Uiso   1.00
C462   C     0.40947   0.54146   0.68440   0.00000  Uiso   1.00
C463   C     0.45134   0.52462   0.71771   0.00000  Uiso   1.00
C464   C     0.50240   0.50937   0.68608   0.00000  Uiso   1.00
C465   C     0.59258   0.48055   0.65617   0.00000  Uiso   1.00
C466   C     0.36603   0.63166   0.65603   0.00000  Uiso   1.00
C467   C     0.37136   0.69067   0.66549   0.00000  Uiso   1.00
C468   C     0.38584   0.75135   0.60998   0.00000  Uiso   1.00
C469   C     0.40853   0.86256   0.53604   0.00000  Uiso   1.00
C470   C     0.28725   0.50850   0.70985   0.00000  Uiso   1.00
C471   C     0.22633   0.46396   0.76457   0.00000  Uiso   1.00
C472   C     0.17448   0.42096   0.75437   0.00000  Uiso   1.00
C473   C     0.07486   0.34095   0.76400   0.00000  Uiso   1.00
C474   C     0.36677   0.56273   0.59438   0.00000  Uiso   1.00
C475   C     0.41829   0.54300   0.62171   0.00000  Uiso   1.00
C476   C     0.46929   0.52777   0.59003   0.00000  Uiso   1.00
C477   C     0.51123   0.51091   0.62328   0.00000  Uiso   1.00
C478   C     0.37484   0.63321   0.59335   0.00000  Uiso   1.00
C479   C     0.38931   0.69381   0.53781   0.00000  Uiso   1.00
C480   C     0.39467   0.75290   0.54718   0.00000  Uiso   1.00
C481   C     0.29606   0.51004   0.64717   0.00000  Uiso   1.00
C482   C     0.24429   0.46711   0.63688   0.00000  Uiso   1.00
C483   C     0.18331   0.42251   0.69157   0.00000  Uiso   1.00
H484   H     0.34368   0.55869   0.75859   0.00000  Uiso   1.00
H485   H     0.44451   0.52344   0.76622   0.00000  Uiso   1.00
H486   H     0.36453   0.68945   0.71401   0.00000  Uiso   1.00
H487   H     0.21953   0.46278   0.81307   0.00000  Uiso   1.00
H488   H     0.56019   0.48506   0.74702   0.00000  Uiso   1.00
H489   H     0.39154   0.83511   0.63694   0.00000  Uiso   1.00
H490   H     0.08578   0.35713   0.84582   0.00000  Uiso   1.00
H491   H     0.37363   0.56394   0.54558   0.00000  Uiso   1.00
H492   H     0.47610   0.52897   0.54152   0.00000  Uiso   1.00
H493   H     0.39613   0.69499   0.48931   0.00000  Uiso   1.00
H494   H     0.25113   0.46832   0.58837   0.00000  Uiso   1.00
H495   H     0.58584   0.48956   0.56464   0.00000  Uiso   1.00
H496   H     0.41718   0.83960   0.45456   0.00000  Uiso   1.00
H497   H     0.11143   0.36162   0.66345   0.00000  Uiso   1.00
O498   O     0.63990   0.46424   0.65699   0.00000  Uiso   1.00
O499   O     0.41861   0.92348   0.51257   0.00000  Uiso   1.00
O500   O     0.01747   0.29638   0.78663   0.00000  Uiso   1.00
N501   N     0.55216   0.49091   0.70466   0.00000  Uiso   1.00
N502   N     0.39448   0.81818   0.60174   0.00000  Uiso   1.00
N503   N     0.10862   0.37132   0.79702   0.00000  Uiso   1.00
N504   N     0.56596   0.49332   0.60652   0.00000  Uiso   1.00
N505   N     0.40828   0.82060   0.50360   0.00000  Uiso   1.00
N506   N     0.12242   0.37374   0.69889   0.00000  Uiso   1.00
C507   C     0.73398   0.21955   0.36167   0.00000  Uiso   1.00
C508   C     0.68279   0.15642   0.42724   0.00000  Uiso   1.00
C509   C     0.61278   0.12410   0.44373   0.00000  Uiso   1.00
C510   C     0.57474   0.06707   0.50618   0.00000  Uiso   1.00
C511   C     0.49055   0.97269   0.60127   0.00000  Uiso   1.00
C512   C     0.76999   0.27511   0.38051   0.00000  Uiso   1.00
C513   C     0.77330   0.34260   0.35770   0.00000  Uiso   1.00
C514   C     0.80868   0.38549   0.38080   0.00000  Uiso   1.00
C515   C     0.85990   0.47540   0.40330   0.00000  Uiso   1.00
C516   C     0.78818   0.19708   0.33317   0.00000  Uiso   1.00
C517   C     0.80681   0.19898   0.27055   0.00000  Uiso   1.00
C518   C     0.85751   0.17619   0.25380   0.00000  Uiso   1.00
C519   C     0.93698   0.14495   0.20280   0.00000  Uiso   1.00
C520   C     0.79093   0.17572   0.44325   0.00000  Uiso   1.00
C521   C     0.71372   0.13262   0.47155   0.00000  Uiso   1.00
C522   C     0.67578   0.07562   0.53399   0.00000  Uiso   1.00
C523   C     0.60572   0.04322   0.55057   0.00000  Uiso   1.00
C524   C     0.80092   0.25131   0.42482   0.00000  Uiso   1.00
C525   C     0.83630   0.29411   0.44796   0.00000  Uiso   1.00
C526   C     0.83966   0.36164   0.42520   0.00000  Uiso   1.00
C527   C     0.81911   0.17328   0.37748   0.00000  Uiso   1.00
C528   C     0.86980   0.15049   0.36082   0.00000  Uiso   1.00
C529   C     0.88849   0.15234   0.29819   0.00000  Uiso   1.00
H530   H     0.70991   0.23808   0.32717   0.00000  Uiso   1.00
H531   H     0.58886   0.14254   0.40942   0.00000  Uiso   1.00
H532   H     0.74937   0.36101   0.32340   0.00000  Uiso   1.00
H533   H     0.78286   0.21740   0.23627   0.00000  Uiso   1.00
H534   H     0.46830   0.02614   0.52017   0.00000  Uiso   1.00
H535   H     0.80675   0.48679   0.33877   0.00000  Uiso   1.00
H536   H     0.87738   0.18397   0.15504   0.00000  Uiso   1.00
H537   H     0.81501   0.15719   0.47775   0.00000  Uiso   1.00
H538   H     0.69973   0.05721   0.56828   0.00000  Uiso   1.00
H539   H     0.86023   0.27567   0.48225   0.00000  Uiso   1.00
H540   H     0.89372   0.13207   0.39513   0.00000  Uiso   1.00
H541   H     0.55828   0.95688   0.64910   0.00000  Uiso   1.00
H542   H     0.89674   0.41753   0.46770   0.00000  Uiso   1.00
H543   H     0.96736   0.11471   0.28398   0.00000  Uiso   1.00
O544   O     0.43556   0.92721   0.64148   0.00000  Uiso   1.00
O545   O     0.87961   0.53157   0.40347   0.00000  Uiso   1.00
O546   O     0.97226   0.13428   0.16243   0.00000  Uiso   1.00
N547   N     0.50530   0.02355   0.53809   0.00000  Uiso   1.00
N548   N     0.82173   0.45423   0.36849   0.00000  Uiso   1.00
N549   N     0.88777   0.17114   0.19672   0.00000  Uiso   1.00
N550   N     0.55372   0.98628   0.60746   0.00000  Uiso   1.00
N551   N     0.87014   0.41696   0.43787   0.00000  Uiso   1.00
N552   N     0.93619   0.13387   0.26610   0.00000  Uiso   1.00
