data_job_04688
_audit_creation_date              2018-12-19
_audit_creation_method            'Materials Studio'
_symmetry_space_group_name_H-M    'P1'
_symmetry_Int_Tables_number       1
_symmetry_cell_setting            triclinic
loop_
_symmetry_equiv_pos_as_xyz
  x,y,z
_cell_length_a                    15.8168
_cell_length_b                    10.0526
_cell_length_c                    15.1994
_cell_angle_alpha                 90.0000
_cell_angle_beta                  64.5695
_cell_angle_gamma                 90.0000
loop_
_atom_site_label
_atom_site_type_symbol
_atom_site_fract_x
_atom_site_fract_y
_atom_site_fract_z
_atom_site_U_iso_or_equiv
_atom_site_adp_type
_atom_site_occupancy
C1     C     0.82037   0.76023   0.16328   0.00000  Uiso   1.00
C2     C     0.72665   0.82366   0.22856   0.00000  Uiso   1.00
C3     C     0.70054   0.95380   0.22218   0.00000  Uiso   1.00
C4     C     0.61177   0.99281   0.28864   0.00000  Uiso   1.00
C5     C     0.47544   0.10472   0.37934   0.00000  Uiso   1.00
C6     C     0.86090   0.70823   0.23139   0.00000  Uiso   1.00
C7     C     0.94767   0.74131   0.22737   0.00000  Uiso   1.00
C8     C     0.97191   0.68314   0.29620   0.00000  Uiso   1.00
C9     C     0.04404   0.61576   0.39125   0.00000  Uiso   1.00
C10    C     0.79735   0.63768   0.11855   0.00000  Uiso   1.00
C11    C     0.83071   0.61141   0.01967   0.00000  Uiso   1.00
C12    C     0.80145   0.49381   0.99350   0.00000  Uiso   1.00
C13    C     0.77491   0.31690   0.91335   0.00000  Uiso   1.00
C14    C     0.70913   0.59807   0.29264   0.00000  Uiso   1.00
C15    C     0.66623   0.73558   0.29882   0.00000  Uiso   1.00
C16    C     0.57747   0.77440   0.36530   0.00000  Uiso   1.00
C17    C     0.55123   0.90458   0.35902   0.00000  Uiso   1.00
C18    C     0.80048   0.62016   0.30165   0.00000  Uiso   1.00
C19    C     0.82460   0.56191   0.37049   0.00000  Uiso   1.00
C20    C     0.91138   0.59490   0.36659   0.00000  Uiso   1.00
C21    C     0.73692   0.54960   0.18882   0.00000  Uiso   1.00
C22    C     0.70762   0.43201   0.16279   0.00000  Uiso   1.00
C23    C     0.74093   0.40558   0.06389   0.00000  Uiso   1.00
H24    H     0.86742   0.82880   0.10858   0.00000  Uiso   1.00
H25    H     0.74733   0.02194   0.16780   0.00000  Uiso   1.00
H26    H     0.99442   0.80946   0.17299   0.00000  Uiso   1.00
H27    H     0.87746   0.67959   0.96532   0.00000  Uiso   1.00
H28    H     0.58755   0.19724   0.26447   0.00000  Uiso   1.00
H29    H     0.10857   0.74920   0.27538   0.00000  Uiso   1.00
H30    H     0.86195   0.47533   0.83746   0.00000  Uiso   1.00
H31    H     0.66209   0.52950   0.34735   0.00000  Uiso   1.00
H32    H     0.53072   0.70622   0.41967   0.00000  Uiso   1.00
H33    H     0.77782   0.49375   0.42485   0.00000  Uiso   1.00
H34    H     0.66087   0.36388   0.21718   0.00000  Uiso   1.00
H35    H     0.41175   0.94100   0.46889   0.00000  Uiso   1.00
H36    H     0.93278   0.49295   0.47980   0.00000  Uiso   1.00
H37    H     0.68615   0.21909   0.04189   0.00000  Uiso   1.00
O38    O     0.41695   0.19079   0.40997   0.00000  Uiso   1.00
O39    O     0.10052   0.60295   0.42427   0.00000  Uiso   1.00
O40    O     0.77695   0.24365   0.84974   0.00000  Uiso   1.00
N41    N     0.56419   0.11267   0.30264   0.00000  Uiso   1.00
N42    N     0.05132   0.69380   0.31285   0.00000  Uiso   1.00
N43    N     0.82076   0.43774   0.90344   0.00000  Uiso   1.00
N44    N     0.46960   0.97479   0.41264   0.00000  Uiso   1.00
N45    N     0.95672   0.55591   0.42285   0.00000  Uiso   1.00
N46    N     0.72617   0.29985   0.01344   0.00000  Uiso   1.00
C47    C     0.17963   0.26023   0.33672   0.00000  Uiso   1.00
C48    C     0.27335   0.32366   0.27144   0.00000  Uiso   1.00
C49    C     0.29946   0.45380   0.27782   0.00000  Uiso   1.00
C50    C     0.38823   0.49281   0.21136   0.00000  Uiso   1.00
C51    C     0.52456   0.60472   0.12066   0.00000  Uiso   1.00
C52    C     0.13910   0.20823   0.26861   0.00000  Uiso   1.00
C53    C     0.05233   0.24131   0.27263   0.00000  Uiso   1.00
C54    C     0.02809   0.18314   0.20380   0.00000  Uiso   1.00
C55    C     0.95596   0.11576   0.10875   0.00000  Uiso   1.00
C56    C     0.20265   0.13768   0.38145   0.00000  Uiso   1.00
C57    C     0.16929   0.11141   0.48033   0.00000  Uiso   1.00
C58    C     0.19855   0.99381   0.50650   0.00000  Uiso   1.00
C59    C     0.22509   0.81690   0.58665   0.00000  Uiso   1.00
C60    C     0.29087   0.09807   0.20736   0.00000  Uiso   1.00
C61    C     0.33377   0.23558   0.20118   0.00000  Uiso   1.00
C62    C     0.42253   0.27440   0.13470   0.00000  Uiso   1.00
C63    C     0.44877   0.40458   0.14098   0.00000  Uiso   1.00
C64    C     0.19952   0.12016   0.19835   0.00000  Uiso   1.00
C65    C     0.17540   0.06191   0.12951   0.00000  Uiso   1.00
C66    C     0.08862   0.09490   0.13341   0.00000  Uiso   1.00
C67    C     0.26308   0.04960   0.31118   0.00000  Uiso   1.00
C68    C     0.29238   0.93201   0.33721   0.00000  Uiso   1.00
C69    C     0.25907   0.90558   0.43611   0.00000  Uiso   1.00
H70    H     0.13258   0.32880   0.39142   0.00000  Uiso   1.00
H71    H     0.25267   0.52194   0.33220   0.00000  Uiso   1.00
H72    H     0.00558   0.30946   0.32701   0.00000  Uiso   1.00
H73    H     0.12254   0.17959   0.53468   0.00000  Uiso   1.00
H74    H     0.41245   0.69724   0.23553   0.00000  Uiso   1.00
H75    H     0.89143   0.24920   0.22462   0.00000  Uiso   1.00
H76    H     0.13805   0.97533   0.66254   0.00000  Uiso   1.00
H77    H     0.33791   0.02950   0.15265   0.00000  Uiso   1.00
H78    H     0.46928   0.20622   0.08033   0.00000  Uiso   1.00
H79    H     0.22218   0.99375   0.07515   0.00000  Uiso   1.00
H80    H     0.33913   0.86388   0.28282   0.00000  Uiso   1.00
H81    H     0.58825   0.44100   0.03111   0.00000  Uiso   1.00
H82    H     0.06722   0.99295   0.02020   0.00000  Uiso   1.00
H83    H     0.31385   0.71909   0.45811   0.00000  Uiso   1.00
O84    O     0.58305   0.69079   0.09003   0.00000  Uiso   1.00
O85    O     0.89948   0.10295   0.07573   0.00000  Uiso   1.00
O86    O     0.22305   0.74365   0.65026   0.00000  Uiso   1.00
N87    N     0.43581   0.61267   0.19736   0.00000  Uiso   1.00
N88    N     0.94868   0.19380   0.18715   0.00000  Uiso   1.00
N89    N     0.17924   0.93774   0.59656   0.00000  Uiso   1.00
N90    N     0.53040   0.47479   0.08736   0.00000  Uiso   1.00
N91    N     0.04328   0.05591   0.07715   0.00000  Uiso   1.00
N92    N     0.27383   0.79985   0.48656   0.00000  Uiso   1.00
C93    C     0.17963   0.23977   0.83672   0.00000  Uiso   1.00
C94    C     0.27335   0.17634   0.77144   0.00000  Uiso   1.00
C95    C     0.29946   0.04620   0.77782   0.00000  Uiso   1.00
C96    C     0.38823   0.00719   0.71136   0.00000  Uiso   1.00
C97    C     0.52456   0.89528   0.62066   0.00000  Uiso   1.00
C98    C     0.13910   0.29177   0.76861   0.00000  Uiso   1.00
C99    C     0.05233   0.25869   0.77263   0.00000  Uiso   1.00
C100   C     0.02809   0.31686   0.70380   0.00000  Uiso   1.00
C101   C     0.95596   0.38424   0.60875   0.00000  Uiso   1.00
C102   C     0.20265   0.36232   0.88145   0.00000  Uiso   1.00
C103   C     0.16929   0.38859   0.98033   0.00000  Uiso   1.00
C104   C     0.19855   0.50619   0.00650   0.00000  Uiso   1.00
C105   C     0.22509   0.68310   0.08665   0.00000  Uiso   1.00
C106   C     0.29087   0.40193   0.70736   0.00000  Uiso   1.00
C107   C     0.33377   0.26442   0.70118   0.00000  Uiso   1.00
C108   C     0.42253   0.22560   0.63470   0.00000  Uiso   1.00
C109   C     0.44877   0.09542   0.64098   0.00000  Uiso   1.00
C110   C     0.19952   0.37984   0.69835   0.00000  Uiso   1.00
C111   C     0.17540   0.43809   0.62951   0.00000  Uiso   1.00
C112   C     0.08862   0.40510   0.63341   0.00000  Uiso   1.00
C113   C     0.26308   0.45040   0.81118   0.00000  Uiso   1.00
C114   C     0.29238   0.56799   0.83721   0.00000  Uiso   1.00
C115   C     0.25907   0.59442   0.93611   0.00000  Uiso   1.00
H116   H     0.13258   0.17120   0.89142   0.00000  Uiso   1.00
H117   H     0.25267   0.97806   0.83220   0.00000  Uiso   1.00
H118   H     0.00558   0.19054   0.82701   0.00000  Uiso   1.00
H119   H     0.12254   0.32041   0.03468   0.00000  Uiso   1.00
H120   H     0.41245   0.80276   0.73553   0.00000  Uiso   1.00
H121   H     0.89143   0.25080   0.72462   0.00000  Uiso   1.00
H122   H     0.13805   0.52467   0.16254   0.00000  Uiso   1.00
H123   H     0.33791   0.47050   0.65265   0.00000  Uiso   1.00
H124   H     0.46928   0.29378   0.58033   0.00000  Uiso   1.00
H125   H     0.22218   0.50625   0.57515   0.00000  Uiso   1.00
H126   H     0.33913   0.63612   0.78282   0.00000  Uiso   1.00
H127   H     0.58825   0.05900   0.53111   0.00000  Uiso   1.00
H128   H     0.06722   0.50705   0.52020   0.00000  Uiso   1.00
H129   H     0.31385   0.78091   0.95811   0.00000  Uiso   1.00
O130   O     0.58305   0.80921   0.59003   0.00000  Uiso   1.00
O131   O     0.89948   0.39705   0.57573   0.00000  Uiso   1.00
O132   O     0.22305   0.75635   0.15026   0.00000  Uiso   1.00
N133   N     0.43581   0.88733   0.69736   0.00000  Uiso   1.00
N134   N     0.94868   0.30620   0.68715   0.00000  Uiso   1.00
N135   N     0.17924   0.56226   0.09656   0.00000  Uiso   1.00
N136   N     0.53040   0.02521   0.58736   0.00000  Uiso   1.00
N137   N     0.04328   0.44409   0.57715   0.00000  Uiso   1.00
N138   N     0.27383   0.70015   0.98656   0.00000  Uiso   1.00
C139   C     0.82037   0.73977   0.66328   0.00000  Uiso   1.00
C140   C     0.72665   0.67634   0.72856   0.00000  Uiso   1.00
C141   C     0.70054   0.54620   0.72218   0.00000  Uiso   1.00
C142   C     0.61177   0.50719   0.78864   0.00000  Uiso   1.00
C143   C     0.47544   0.39528   0.87934   0.00000  Uiso   1.00
C144   C     0.86090   0.79177   0.73139   0.00000  Uiso   1.00
C145   C     0.94767   0.75869   0.72737   0.00000  Uiso   1.00
C146   C     0.97191   0.81686   0.79620   0.00000  Uiso   1.00
C147   C     0.04404   0.88424   0.89125   0.00000  Uiso   1.00
C148   C     0.79735   0.86232   0.61855   0.00000  Uiso   1.00
C149   C     0.83071   0.88859   0.51967   0.00000  Uiso   1.00
C150   C     0.80145   0.00619   0.49350   0.00000  Uiso   1.00
C151   C     0.77491   0.18310   0.41335   0.00000  Uiso   1.00
C152   C     0.70913   0.90193   0.79264   0.00000  Uiso   1.00
C153   C     0.66623   0.76442   0.79882   0.00000  Uiso   1.00
C154   C     0.57747   0.72560   0.86530   0.00000  Uiso   1.00
C155   C     0.55123   0.59542   0.85902   0.00000  Uiso   1.00
C156   C     0.80048   0.87984   0.80165   0.00000  Uiso   1.00
C157   C     0.82460   0.93809   0.87049   0.00000  Uiso   1.00
C158   C     0.91138   0.90510   0.86659   0.00000  Uiso   1.00
C159   C     0.73692   0.95040   0.68882   0.00000  Uiso   1.00
C160   C     0.70762   0.06799   0.66279   0.00000  Uiso   1.00
C161   C     0.74093   0.09442   0.56389   0.00000  Uiso   1.00
H162   H     0.86742   0.67120   0.60858   0.00000  Uiso   1.00
H163   H     0.74733   0.47806   0.66780   0.00000  Uiso   1.00
H164   H     0.99442   0.69054   0.67299   0.00000  Uiso   1.00
H165   H     0.87746   0.82041   0.46532   0.00000  Uiso   1.00
H166   H     0.58755   0.30276   0.76447   0.00000  Uiso   1.00
H167   H     0.10857   0.75080   0.77538   0.00000  Uiso   1.00
H168   H     0.86195   0.02467   0.33746   0.00000  Uiso   1.00
H169   H     0.66209   0.97050   0.84735   0.00000  Uiso   1.00
H170   H     0.53072   0.79378   0.91967   0.00000  Uiso   1.00
H171   H     0.77782   0.00625   0.92485   0.00000  Uiso   1.00
H172   H     0.66087   0.13612   0.71718   0.00000  Uiso   1.00
H173   H     0.41175   0.55900   0.96889   0.00000  Uiso   1.00
H174   H     0.93278   0.00705   0.97980   0.00000  Uiso   1.00
H175   H     0.68615   0.28091   0.54189   0.00000  Uiso   1.00
O176   O     0.41695   0.30921   0.90997   0.00000  Uiso   1.00
O177   O     0.10052   0.89705   0.92427   0.00000  Uiso   1.00
O178   O     0.77695   0.25635   0.34974   0.00000  Uiso   1.00
N179   N     0.56419   0.38733   0.80264   0.00000  Uiso   1.00
N180   N     0.05132   0.80620   0.81285   0.00000  Uiso   1.00
N181   N     0.82076   0.06226   0.40344   0.00000  Uiso   1.00
N182   N     0.46960   0.52521   0.91264   0.00000  Uiso   1.00
N183   N     0.95672   0.94409   0.92285   0.00000  Uiso   1.00
N184   N     0.72617   0.20015   0.51344   0.00000  Uiso   1.00
