data_job_03117
_audit_creation_date              2018-12-19
_audit_creation_method            'Materials Studio'
_symmetry_space_group_name_H-M    'P1'
_symmetry_Int_Tables_number       1
_symmetry_cell_setting            triclinic
loop_
_symmetry_equiv_pos_as_xyz
  x,y,z
_cell_length_a                    22.4733
_cell_length_b                    7.6193
_cell_length_c                    22.5666
_cell_angle_alpha                 90.0000
_cell_angle_beta                  70.6469
_cell_angle_gamma                 90.0000
loop_
_atom_site_label
_atom_site_type_symbol
_atom_site_fract_x
_atom_site_fract_y
_atom_site_fract_z
_atom_site_U_iso_or_equiv
_atom_site_adp_type
_atom_site_occupancy
C1     C     0.23445   0.09556   0.67336   0.00000  Uiso   1.00
C2     C     0.20353   0.01681   0.73847   0.00000  Uiso   1.00
C3     C     0.19405   0.10260   0.79511   0.00000  Uiso   1.00
C4     C     0.16493   0.00780   0.84958   0.00000  Uiso   1.00
C5     C     0.11982   0.91202   0.95102   0.00000  Uiso   1.00
C6     C     0.28929   0.97447   0.63976   0.00000  Uiso   1.00
C7     C     0.35191   0.02467   0.61339   0.00000  Uiso   1.00
C8     C     0.39498   0.89422   0.58476   0.00000  Uiso   1.00
C9     C     0.48301   0.73272   0.53290   0.00000  Uiso   1.00
C10    C     0.18665   0.07547   0.63910   0.00000  Uiso   1.00
C11    C     0.16299   0.21058   0.61217   0.00000  Uiso   1.00
C12    C     0.11966   0.16516   0.58296   0.00000  Uiso   1.00
C13    C     0.04833   0.16048   0.53009   0.00000  Uiso   1.00
C14    C     0.19958   0.77464   0.66937   0.00000  Uiso   1.00
C15    C     0.18459   0.84250   0.73630   0.00000  Uiso   1.00
C16    C     0.15547   0.74755   0.79070   0.00000  Uiso   1.00
C17    C     0.14595   0.83319   0.84741   0.00000  Uiso   1.00
C18    C     0.27035   0.80016   0.63759   0.00000  Uiso   1.00
C19    C     0.31333   0.66961   0.60898   0.00000  Uiso   1.00
C20    C     0.37601   0.71960   0.58258   0.00000  Uiso   1.00
C21    C     0.16771   0.90116   0.63694   0.00000  Uiso   1.00
C22    C     0.12441   0.85552   0.60776   0.00000  Uiso   1.00
C23    C     0.10069   0.99053   0.58079   0.00000  Uiso   1.00
H24    H     0.24920   0.23126   0.67504   0.00000  Uiso   1.00
H25    H     0.20872   0.23749   0.79677   0.00000  Uiso   1.00
H26    H     0.36655   0.15957   0.61507   0.00000  Uiso   1.00
H27    H     0.17766   0.34545   0.61386   0.00000  Uiso   1.00
H28    H     0.15551   0.16751   0.93077   0.00000  Uiso   1.00
H29    H     0.48831   0.00322   0.54764   0.00000  Uiso   1.00
H30    H     0.08999   0.39519   0.54507   0.00000  Uiso   1.00
H31    H     0.18484   0.63893   0.66768   0.00000  Uiso   1.00
H32    H     0.14082   0.61266   0.78901   0.00000  Uiso   1.00
H33    H     0.29866   0.53474   0.60731   0.00000  Uiso   1.00
H34    H     0.10977   0.72062   0.60609   0.00000  Uiso   1.00
H35    H     0.10040   0.66038   0.92447   0.00000  Uiso   1.00
H36    H     0.43320   0.49609   0.54133   0.00000  Uiso   1.00
H37    H     0.03489   0.88805   0.53876   0.00000  Uiso   1.00
O38    O     0.10018   0.90733   0.00757   0.00000  Uiso   1.00
O39    O     0.53680   0.69180   0.50490   0.00000  Uiso   1.00
O40    O     0.01422   0.20604   0.50153   0.00000  Uiso   1.00
N41    N     0.14857   0.05177   0.91264   0.00000  Uiso   1.00
N42    N     0.45972   0.89817   0.55444   0.00000  Uiso   1.00
N43    N     0.08734   0.26461   0.55202   0.00000  Uiso   1.00
N44    N     0.11892   0.77889   0.90925   0.00000  Uiso   1.00
N45    N     0.43007   0.62528   0.55105   0.00000  Uiso   1.00
N46    N     0.05769   0.99173   0.54863   0.00000  Uiso   1.00
C47    C     0.76555   0.59556   0.82664   0.00000  Uiso   1.00
C48    C     0.79647   0.51681   0.76153   0.00000  Uiso   1.00
C49    C     0.80595   0.60260   0.70489   0.00000  Uiso   1.00
C50    C     0.83507   0.50780   0.65042   0.00000  Uiso   1.00
C51    C     0.88018   0.41202   0.54898   0.00000  Uiso   1.00
C52    C     0.71071   0.47447   0.86024   0.00000  Uiso   1.00
C53    C     0.64809   0.52467   0.88661   0.00000  Uiso   1.00
C54    C     0.60502   0.39422   0.91524   0.00000  Uiso   1.00
C55    C     0.51699   0.23272   0.96710   0.00000  Uiso   1.00
C56    C     0.81335   0.57547   0.86090   0.00000  Uiso   1.00
C57    C     0.83701   0.71058   0.88783   0.00000  Uiso   1.00
C58    C     0.88034   0.66516   0.91704   0.00000  Uiso   1.00
C59    C     0.95167   0.66048   0.96991   0.00000  Uiso   1.00
C60    C     0.80042   0.27464   0.83063   0.00000  Uiso   1.00
C61    C     0.81541   0.34250   0.76370   0.00000  Uiso   1.00
C62    C     0.84453   0.24755   0.70930   0.00000  Uiso   1.00
C63    C     0.85405   0.33319   0.65259   0.00000  Uiso   1.00
C64    C     0.72965   0.30016   0.86241   0.00000  Uiso   1.00
C65    C     0.68667   0.16961   0.89102   0.00000  Uiso   1.00
C66    C     0.62399   0.21960   0.91742   0.00000  Uiso   1.00
C67    C     0.83229   0.40116   0.86306   0.00000  Uiso   1.00
C68    C     0.87559   0.35552   0.89224   0.00000  Uiso   1.00
C69    C     0.89931   0.49053   0.91921   0.00000  Uiso   1.00
H70    H     0.75080   0.73126   0.82496   0.00000  Uiso   1.00
H71    H     0.79128   0.73749   0.70323   0.00000  Uiso   1.00
H72    H     0.63345   0.65957   0.88493   0.00000  Uiso   1.00
H73    H     0.82234   0.84545   0.88614   0.00000  Uiso   1.00
H74    H     0.84449   0.66751   0.56923   0.00000  Uiso   1.00
H75    H     0.51169   0.50322   0.95236   0.00000  Uiso   1.00
H76    H     0.91001   0.89519   0.95493   0.00000  Uiso   1.00
H77    H     0.81516   0.13893   0.83232   0.00000  Uiso   1.00
H78    H     0.85918   0.11266   0.71099   0.00000  Uiso   1.00
H79    H     0.70134   0.03474   0.89269   0.00000  Uiso   1.00
H80    H     0.89023   0.22062   0.89391   0.00000  Uiso   1.00
H81    H     0.89960   0.16038   0.57553   0.00000  Uiso   1.00
H82    H     0.56680   0.99609   0.95867   0.00000  Uiso   1.00
H83    H     0.96511   0.38805   0.96124   0.00000  Uiso   1.00
O84    O     0.89982   0.40733   0.49243   0.00000  Uiso   1.00
O85    O     0.46320   0.19180   0.99510   0.00000  Uiso   1.00
O86    O     0.98578   0.70604   0.99847   0.00000  Uiso   1.00
N87    N     0.85143   0.55177   0.58736   0.00000  Uiso   1.00
N88    N     0.54028   0.39817   0.94556   0.00000  Uiso   1.00
N89    N     0.91266   0.76461   0.94798   0.00000  Uiso   1.00
N90    N     0.88108   0.27889   0.59075   0.00000  Uiso   1.00
N91    N     0.56993   0.12528   0.94895   0.00000  Uiso   1.00
N92    N     0.94231   0.49173   0.95137   0.00000  Uiso   1.00
C93    C     0.76555   0.90444   0.32664   0.00000  Uiso   1.00
C94    C     0.79647   0.98319   0.26153   0.00000  Uiso   1.00
C95    C     0.80595   0.89740   0.20489   0.00000  Uiso   1.00
C96    C     0.83507   0.99220   0.15042   0.00000  Uiso   1.00
C97    C     0.88018   0.08798   0.04898   0.00000  Uiso   1.00
C98    C     0.71071   0.02553   0.36024   0.00000  Uiso   1.00
C99    C     0.64809   0.97533   0.38661   0.00000  Uiso   1.00
C100   C     0.60502   0.10578   0.41524   0.00000  Uiso   1.00
C101   C     0.51699   0.26728   0.46710   0.00000  Uiso   1.00
C102   C     0.81335   0.92453   0.36090   0.00000  Uiso   1.00
C103   C     0.83701   0.78942   0.38783   0.00000  Uiso   1.00
C104   C     0.88034   0.83484   0.41704   0.00000  Uiso   1.00
C105   C     0.95167   0.83952   0.46991   0.00000  Uiso   1.00
C106   C     0.80042   0.22536   0.33063   0.00000  Uiso   1.00
C107   C     0.81541   0.15750   0.26370   0.00000  Uiso   1.00
C108   C     0.84453   0.25245   0.20930   0.00000  Uiso   1.00
C109   C     0.85405   0.16681   0.15259   0.00000  Uiso   1.00
C110   C     0.72965   0.19984   0.36241   0.00000  Uiso   1.00
C111   C     0.68667   0.33039   0.39102   0.00000  Uiso   1.00
C112   C     0.62399   0.28040   0.41742   0.00000  Uiso   1.00
C113   C     0.83229   0.09884   0.36306   0.00000  Uiso   1.00
C114   C     0.87559   0.14448   0.39224   0.00000  Uiso   1.00
C115   C     0.89931   0.00947   0.41921   0.00000  Uiso   1.00
H116   H     0.75080   0.76874   0.32496   0.00000  Uiso   1.00
H117   H     0.79128   0.76251   0.20323   0.00000  Uiso   1.00
H118   H     0.63345   0.84043   0.38493   0.00000  Uiso   1.00
H119   H     0.82234   0.65455   0.38614   0.00000  Uiso   1.00
H120   H     0.84449   0.83249   0.06923   0.00000  Uiso   1.00
H121   H     0.51169   0.99678   0.45236   0.00000  Uiso   1.00
H122   H     0.91001   0.60481   0.45493   0.00000  Uiso   1.00
H123   H     0.81516   0.36107   0.33232   0.00000  Uiso   1.00
H124   H     0.85918   0.38734   0.21099   0.00000  Uiso   1.00
H125   H     0.70134   0.46526   0.39269   0.00000  Uiso   1.00
H126   H     0.89023   0.27938   0.39391   0.00000  Uiso   1.00
H127   H     0.89960   0.33962   0.07553   0.00000  Uiso   1.00
H128   H     0.56680   0.50391   0.45867   0.00000  Uiso   1.00
H129   H     0.96511   0.11195   0.46124   0.00000  Uiso   1.00
O130   O     0.89982   0.09267   0.99243   0.00000  Uiso   1.00
O131   O     0.46320   0.30820   0.49510   0.00000  Uiso   1.00
O132   O     0.98578   0.79396   0.49847   0.00000  Uiso   1.00
N133   N     0.85143   0.94823   0.08736   0.00000  Uiso   1.00
N134   N     0.54028   0.10183   0.44556   0.00000  Uiso   1.00
N135   N     0.91266   0.73539   0.44798   0.00000  Uiso   1.00
N136   N     0.88108   0.22111   0.09075   0.00000  Uiso   1.00
N137   N     0.56993   0.37472   0.44895   0.00000  Uiso   1.00
N138   N     0.94231   0.00827   0.45137   0.00000  Uiso   1.00
C139   C     0.23445   0.40444   0.17336   0.00000  Uiso   1.00
C140   C     0.20353   0.48319   0.23847   0.00000  Uiso   1.00
C141   C     0.19405   0.39740   0.29511   0.00000  Uiso   1.00
C142   C     0.16493   0.49220   0.34958   0.00000  Uiso   1.00
C143   C     0.11982   0.58798   0.45102   0.00000  Uiso   1.00
C144   C     0.28929   0.52553   0.13976   0.00000  Uiso   1.00
C145   C     0.35191   0.47533   0.11339   0.00000  Uiso   1.00
C146   C     0.39498   0.60578   0.08476   0.00000  Uiso   1.00
C147   C     0.48301   0.76728   0.03290   0.00000  Uiso   1.00
C148   C     0.18665   0.42453   0.13910   0.00000  Uiso   1.00
C149   C     0.16299   0.28942   0.11217   0.00000  Uiso   1.00
C150   C     0.11966   0.33484   0.08296   0.00000  Uiso   1.00
C151   C     0.04833   0.33952   0.03009   0.00000  Uiso   1.00
C152   C     0.19958   0.72536   0.16937   0.00000  Uiso   1.00
C153   C     0.18459   0.65750   0.23630   0.00000  Uiso   1.00
C154   C     0.15547   0.75245   0.29070   0.00000  Uiso   1.00
C155   C     0.14595   0.66681   0.34741   0.00000  Uiso   1.00
C156   C     0.27035   0.69984   0.13759   0.00000  Uiso   1.00
C157   C     0.31333   0.83039   0.10898   0.00000  Uiso   1.00
C158   C     0.37601   0.78040   0.08258   0.00000  Uiso   1.00
C159   C     0.16771   0.59884   0.13694   0.00000  Uiso   1.00
C160   C     0.12441   0.64448   0.10776   0.00000  Uiso   1.00
C161   C     0.10069   0.50947   0.08079   0.00000  Uiso   1.00
H162   H     0.24920   0.26874   0.17504   0.00000  Uiso   1.00
H163   H     0.20872   0.26251   0.29677   0.00000  Uiso   1.00
H164   H     0.36655   0.34043   0.11507   0.00000  Uiso   1.00
H165   H     0.17766   0.15455   0.11386   0.00000  Uiso   1.00
H166   H     0.15551   0.33249   0.43077   0.00000  Uiso   1.00
H167   H     0.48831   0.49678   0.04764   0.00000  Uiso   1.00
H168   H     0.08999   0.10481   0.04507   0.00000  Uiso   1.00
H169   H     0.18484   0.86107   0.16768   0.00000  Uiso   1.00
H170   H     0.14082   0.88734   0.28901   0.00000  Uiso   1.00
H171   H     0.29866   0.96526   0.10731   0.00000  Uiso   1.00
H172   H     0.10977   0.77938   0.10609   0.00000  Uiso   1.00
H173   H     0.10040   0.83962   0.42447   0.00000  Uiso   1.00
H174   H     0.43320   0.00391   0.04133   0.00000  Uiso   1.00
H175   H     0.03489   0.61195   0.03876   0.00000  Uiso   1.00
O176   O     0.10018   0.59267   0.50757   0.00000  Uiso   1.00
O177   O     0.53680   0.80820   0.00490   0.00000  Uiso   1.00
O178   O     0.01422   0.29396   0.00153   0.00000  Uiso   1.00
N179   N     0.14857   0.44823   0.41264   0.00000  Uiso   1.00
N180   N     0.45972   0.60183   0.05444   0.00000  Uiso   1.00
N181   N     0.08734   0.23539   0.05202   0.00000  Uiso   1.00
N182   N     0.11892   0.72111   0.40925   0.00000  Uiso   1.00
N183   N     0.43007   0.87472   0.05105   0.00000  Uiso   1.00
N184   N     0.05769   0.50827   0.04863   0.00000  Uiso   1.00
