data_job_01297
_audit_creation_date              2018-12-19
_audit_creation_method            'Materials Studio'
_symmetry_space_group_name_H-M    'P1'
_symmetry_Int_Tables_number       1
_symmetry_cell_setting            triclinic
loop_
_symmetry_equiv_pos_as_xyz
  x,y,z
_cell_length_a                    17.8367
_cell_length_b                    10.1848
_cell_length_c                    9.5961
_cell_angle_alpha                 77.4355
_cell_angle_beta                  78.1160
_cell_angle_gamma                 74.7806
loop_
_atom_site_label
_atom_site_type_symbol
_atom_site_fract_x
_atom_site_fract_y
_atom_site_fract_z
_atom_site_U_iso_or_equiv
_atom_site_adp_type
_atom_site_occupancy
C1     C     0.81248   0.85982   0.11352   0.00000  Uiso   1.00
C2     C     0.74880   0.78514   0.19715   0.00000  Uiso   1.00
C3     C     0.74071   0.72948   0.34343   0.00000  Uiso   1.00
C4     C     0.67858   0.66525   0.39959   0.00000  Uiso   1.00
C5     C     0.58765   0.55048   0.54268   0.00000  Uiso   1.00
C6     C     0.85356   0.78252   0.98921   0.00000  Uiso   1.00
C7     C     0.93356   0.72467   0.96064   0.00000  Uiso   1.00
C8     C     0.95961   0.65826   0.84174   0.00000  Uiso   1.00
C9     C     0.03133   0.53951   0.66193   0.00000  Uiso   1.00
C10    C     0.76933   0.00145   0.04429   0.00000  Uiso   1.00
C11    C     0.77853   0.12769   0.06201   0.00000  Uiso   1.00
C12    C     0.73369   0.24560   0.98945   0.00000  Uiso   1.00
C13    C     0.67464   0.46678   0.89518   0.00000  Uiso   1.00
C14    C     0.71652   0.84475   0.95314   0.00000  Uiso   1.00
C15    C     0.69668   0.77696   0.11003   0.00000  Uiso   1.00
C16    C     0.63454   0.71280   0.16599   0.00000  Uiso   1.00
C17    C     0.62636   0.65705   0.31232   0.00000  Uiso   1.00
C18    C     0.80144   0.77434   0.90210   0.00000  Uiso   1.00
C19    C     0.82738   0.70800   0.78320   0.00000  Uiso   1.00
C20    C     0.90740   0.65006   0.75447   0.00000  Uiso   1.00
C21    C     0.71721   0.99327   0.95718   0.00000  Uiso   1.00
C22    C     0.67235   0.11101   0.88458   0.00000  Uiso   1.00
C23    C     0.68148   0.23740   0.90218   0.00000  Uiso   1.00
H24    H     0.85307   0.86619   0.18133   0.00000  Uiso   1.00
H25    H     0.78107   0.73582   0.41080   0.00000  Uiso   1.00
H26    H     0.97388   0.73103   0.02806   0.00000  Uiso   1.00
H27    H     0.81887   0.13398   0.12943   0.00000  Uiso   1.00
H28    H     0.67827   0.58763   0.62679   0.00000  Uiso   1.00
H29    H     0.08483   0.57757   0.81974   0.00000  Uiso   1.00
H30    H     0.75797   0.42728   0.03347   0.00000  Uiso   1.00
H31    H     0.67594   0.83838   0.88531   0.00000  Uiso   1.00
H32    H     0.59421   0.70649   0.09855   0.00000  Uiso   1.00
H33    H     0.78703   0.70169   0.71581   0.00000  Uiso   1.00
H34    H     0.63202   0.10464   0.81717   0.00000  Uiso   1.00
H35    H     0.52662   0.56381   0.37335   0.00000  Uiso   1.00
H36    H     0.93318   0.55376   0.56629   0.00000  Uiso   1.00
H37    H     0.60632   0.40346   0.78003   0.00000  Uiso   1.00
O38    O     0.55190   0.48941   0.64567   0.00000  Uiso   1.00
O39    O     0.08529   0.47625   0.58683   0.00000  Uiso   1.00
O40    O     0.65646   0.59104   0.86726   0.00000  Uiso   1.00
N41    N     0.65379   0.60015   0.53788   0.00000  Uiso   1.00
N42    N     0.03389   0.59073   0.78335   0.00000  Uiso   1.00
N43    N     0.72833   0.38513   0.98314   0.00000  Uiso   1.00
N44    N     0.57218   0.58733   0.40151   0.00000  Uiso   1.00
N45    N     0.95229   0.57792   0.64698   0.00000  Uiso   1.00
N46    N     0.64672   0.37232   0.84677   0.00000  Uiso   1.00
C47    C     0.18752   0.14018   0.88648   0.00000  Uiso   1.00
C48    C     0.25120   0.21486   0.80285   0.00000  Uiso   1.00
C49    C     0.25929   0.27052   0.65657   0.00000  Uiso   1.00
C50    C     0.32142   0.33475   0.60041   0.00000  Uiso   1.00
C51    C     0.41235   0.44952   0.45732   0.00000  Uiso   1.00
C52    C     0.14644   0.21748   0.01079   0.00000  Uiso   1.00
C53    C     0.06644   0.27533   0.03936   0.00000  Uiso   1.00
C54    C     0.04039   0.34174   0.15826   0.00000  Uiso   1.00
C55    C     0.96867   0.46049   0.33807   0.00000  Uiso   1.00
C56    C     0.23067   0.99855   0.95571   0.00000  Uiso   1.00
C57    C     0.22147   0.87231   0.93799   0.00000  Uiso   1.00
C58    C     0.26631   0.75440   0.01055   0.00000  Uiso   1.00
C59    C     0.32536   0.53322   0.10482   0.00000  Uiso   1.00
C60    C     0.28348   0.15525   0.04686   0.00000  Uiso   1.00
C61    C     0.30332   0.22304   0.88997   0.00000  Uiso   1.00
C62    C     0.36546   0.28720   0.83401   0.00000  Uiso   1.00
C63    C     0.37364   0.34295   0.68768   0.00000  Uiso   1.00
C64    C     0.19856   0.22566   0.09790   0.00000  Uiso   1.00
C65    C     0.17262   0.29200   0.21680   0.00000  Uiso   1.00
C66    C     0.09260   0.34994   0.24553   0.00000  Uiso   1.00
C67    C     0.28279   0.00673   0.04282   0.00000  Uiso   1.00
C68    C     0.32765   0.88899   0.11542   0.00000  Uiso   1.00
C69    C     0.31852   0.76260   0.09782   0.00000  Uiso   1.00
H70    H     0.14693   0.13381   0.81867   0.00000  Uiso   1.00
H71    H     0.21893   0.26418   0.58920   0.00000  Uiso   1.00
H72    H     0.02612   0.26897   0.97194   0.00000  Uiso   1.00
H73    H     0.18113   0.86602   0.87057   0.00000  Uiso   1.00
H74    H     0.32173   0.41237   0.37321   0.00000  Uiso   1.00
H75    H     0.91517   0.42243   0.18026   0.00000  Uiso   1.00
H76    H     0.24203   0.57272   0.96653   0.00000  Uiso   1.00
H77    H     0.32406   0.16162   0.11469   0.00000  Uiso   1.00
H78    H     0.40579   0.29351   0.90145   0.00000  Uiso   1.00
H79    H     0.21297   0.29831   0.28419   0.00000  Uiso   1.00
H80    H     0.36798   0.89536   0.18283   0.00000  Uiso   1.00
H81    H     0.47338   0.43619   0.62665   0.00000  Uiso   1.00
H82    H     0.06682   0.44624   0.43371   0.00000  Uiso   1.00
H83    H     0.39368   0.59654   0.21997   0.00000  Uiso   1.00
O84    O     0.44810   0.51059   0.35433   0.00000  Uiso   1.00
O85    O     0.91471   0.52375   0.41317   0.00000  Uiso   1.00
O86    O     0.34354   0.40896   0.13274   0.00000  Uiso   1.00
N87    N     0.34621   0.39985   0.46212   0.00000  Uiso   1.00
N88    N     0.96611   0.40927   0.21665   0.00000  Uiso   1.00
N89    N     0.27167   0.61487   0.01686   0.00000  Uiso   1.00
N90    N     0.42782   0.41267   0.59849   0.00000  Uiso   1.00
N91    N     0.04771   0.42208   0.35302   0.00000  Uiso   1.00
N92    N     0.35328   0.62768   0.15323   0.00000  Uiso   1.00
