data_job_03062
_audit_creation_date              2018-12-19
_audit_creation_method            'Materials Studio'
_symmetry_space_group_name_H-M    'P1'
_symmetry_Int_Tables_number       1
_symmetry_cell_setting            triclinic
loop_
_symmetry_equiv_pos_as_xyz
  x,y,z
_cell_length_a                    29.0434
_cell_length_b                    10.0444
_cell_length_c                    43.4502
_cell_angle_alpha                 90.0000
_cell_angle_beta                  148.1031
_cell_angle_gamma                 90.0000
loop_
_atom_site_label
_atom_site_type_symbol
_atom_site_fract_x
_atom_site_fract_y
_atom_site_fract_z
_atom_site_U_iso_or_equiv
_atom_site_adp_type
_atom_site_occupancy
C1     C     0.66261   0.10756   0.84858   0.00000  Uiso   1.00
C2     C     0.62329   0.12640   0.85820   0.00000  Uiso   1.00
C3     C     0.54931   0.20018   0.82303   0.00000  Uiso   1.00
C4     C     0.52389   0.20520   0.83925   0.00000  Uiso   1.00
C5     C     0.45573   0.24461   0.84666   0.00000  Uiso   1.00
C6     C     0.75680   0.15488   0.90435   0.00000  Uiso   1.00
C7     C     0.79506   0.25259   0.90797   0.00000  Uiso   1.00
C8     C     0.88204   0.28156   0.96304   0.00000  Uiso   1.00
C9     C     0.02116   0.36512   0.04209   0.00000  Uiso   1.00
C10    C     0.66696   0.95761   0.84579   0.00000  Uiso   1.00
C11    C     0.62972   0.88946   0.80018   0.00000  Uiso   1.00
C12    C     0.64108   0.75235   0.80595   0.00000  Uiso   1.00
C13    C     0.64072   0.52962   0.79407   0.00000  Uiso   1.00
C14    C     0.74903   0.98527   0.93993   0.00000  Uiso   1.00
C15    C     0.67024   0.05997   0.90782   0.00000  Uiso   1.00
C16    C     0.64492   0.06487   0.92410   0.00000  Uiso   1.00
C17    C     0.57091   0.13865   0.88896   0.00000  Uiso   1.00
C18    C     0.80374   0.08846   0.95397   0.00000  Uiso   1.00
C19    C     0.89068   0.11728   0.00905   0.00000  Uiso   1.00
C20    C     0.92906   0.21502   0.01275   0.00000  Uiso   1.00
C21    C     0.71390   0.89118   0.89541   0.00000  Uiso   1.00
C22    C     0.72533   0.75416   0.90125   0.00000  Uiso   1.00
C23    C     0.68810   0.68581   0.85566   0.00000  Uiso   1.00
H24    H     0.62607   0.15928   0.80995   0.00000  Uiso   1.00
H25    H     0.51300   0.25158   0.78463   0.00000  Uiso   1.00
H26    H     0.75872   0.30396   0.86956   0.00000  Uiso   1.00
H27    H     0.59340   0.94090   0.76179   0.00000  Uiso   1.00
H28    H     0.40837   0.32466   0.77846   0.00000  Uiso   1.00
H29    H     0.92649   0.43509   0.95754   0.00000  Uiso   1.00
H30    H     0.57787   0.66948   0.73027   0.00000  Uiso   1.00
H31    H     0.78558   0.93355   0.97857   0.00000  Uiso   1.00
H32    H     0.68126   0.01346   0.96250   0.00000  Uiso   1.00
H33    H     0.92698   0.06585   0.04743   0.00000  Uiso   1.00
H34    H     0.76166   0.70279   0.93966   0.00000  Uiso   1.00
H35    H     0.54494   0.13140   0.92283   0.00000  Uiso   1.00
H36    H     0.06306   0.24183   0.10191   0.00000  Uiso   1.00
H37    H     0.71444   0.47622   0.87464   0.00000  Uiso   1.00
O38    O     0.40517   0.28471   0.83705   0.00000  Uiso   1.00
O39    O     0.08493   0.42957   0.07199   0.00000  Uiso   1.00
O40    O     0.62755   0.42512   0.77381   0.00000  Uiso   1.00
N41    N     0.45482   0.26819   0.81464   0.00000  Uiso   1.00
N42    N     0.93922   0.37145   0.98207   0.00000  Uiso   1.00
N43    N     0.61332   0.65567   0.76959   0.00000  Uiso   1.00
N44    N     0.52830   0.16419   0.89232   0.00000  Uiso   1.00
N45    N     0.01271   0.26745   0.05975   0.00000  Uiso   1.00
N46    N     0.68680   0.55168   0.84727   0.00000  Uiso   1.00
C47    C     0.16261   0.60756   0.84858   0.00000  Uiso   1.00
C48    C     0.12329   0.62640   0.85820   0.00000  Uiso   1.00
C49    C     0.04931   0.70018   0.82303   0.00000  Uiso   1.00
C50    C     0.02389   0.70520   0.83925   0.00000  Uiso   1.00
C51    C     0.95573   0.74461   0.84666   0.00000  Uiso   1.00
C52    C     0.25680   0.65488   0.90435   0.00000  Uiso   1.00
C53    C     0.29506   0.75259   0.90797   0.00000  Uiso   1.00
C54    C     0.38204   0.78156   0.96304   0.00000  Uiso   1.00
C55    C     0.52116   0.86512   0.04209   0.00000  Uiso   1.00
C56    C     0.16696   0.45761   0.84579   0.00000  Uiso   1.00
C57    C     0.12972   0.38946   0.80018   0.00000  Uiso   1.00
C58    C     0.14108   0.25235   0.80595   0.00000  Uiso   1.00
C59    C     0.14072   0.02962   0.79407   0.00000  Uiso   1.00
C60    C     0.24903   0.48527   0.93993   0.00000  Uiso   1.00
C61    C     0.17024   0.55997   0.90782   0.00000  Uiso   1.00
C62    C     0.14492   0.56487   0.92410   0.00000  Uiso   1.00
C63    C     0.07091   0.63865   0.88896   0.00000  Uiso   1.00
C64    C     0.30374   0.58846   0.95397   0.00000  Uiso   1.00
C65    C     0.39068   0.61728   0.00905   0.00000  Uiso   1.00
C66    C     0.42906   0.71502   0.01275   0.00000  Uiso   1.00
C67    C     0.21390   0.39118   0.89541   0.00000  Uiso   1.00
C68    C     0.22533   0.25416   0.90125   0.00000  Uiso   1.00
C69    C     0.18810   0.18581   0.85566   0.00000  Uiso   1.00
H70    H     0.12607   0.65928   0.80995   0.00000  Uiso   1.00
H71    H     0.01300   0.75158   0.78463   0.00000  Uiso   1.00
H72    H     0.25872   0.80396   0.86956   0.00000  Uiso   1.00
H73    H     0.09340   0.44090   0.76179   0.00000  Uiso   1.00
H74    H     0.90837   0.82466   0.77846   0.00000  Uiso   1.00
H75    H     0.42649   0.93509   0.95754   0.00000  Uiso   1.00
H76    H     0.07787   0.16948   0.73027   0.00000  Uiso   1.00
H77    H     0.28558   0.43355   0.97857   0.00000  Uiso   1.00
H78    H     0.18126   0.51346   0.96250   0.00000  Uiso   1.00
H79    H     0.42698   0.56585   0.04743   0.00000  Uiso   1.00
H80    H     0.26166   0.20279   0.93966   0.00000  Uiso   1.00
H81    H     0.04494   0.63140   0.92283   0.00000  Uiso   1.00
H82    H     0.56306   0.74183   0.10191   0.00000  Uiso   1.00
H83    H     0.21444   0.97622   0.87464   0.00000  Uiso   1.00
O84    O     0.90517   0.78471   0.83705   0.00000  Uiso   1.00
O85    O     0.58493   0.92957   0.07199   0.00000  Uiso   1.00
O86    O     0.12755   0.92512   0.77381   0.00000  Uiso   1.00
N87    N     0.95482   0.76819   0.81464   0.00000  Uiso   1.00
N88    N     0.43922   0.87145   0.98207   0.00000  Uiso   1.00
N89    N     0.11332   0.15567   0.76959   0.00000  Uiso   1.00
N90    N     0.02830   0.66419   0.89232   0.00000  Uiso   1.00
N91    N     0.51271   0.76745   0.05975   0.00000  Uiso   1.00
N92    N     0.18680   0.05168   0.84727   0.00000  Uiso   1.00
C93    C     0.33739   0.10756   0.65142   0.00000  Uiso   1.00
C94    C     0.37671   0.12640   0.64180   0.00000  Uiso   1.00
C95    C     0.45069   0.20018   0.67697   0.00000  Uiso   1.00
C96    C     0.47611   0.20520   0.66075   0.00000  Uiso   1.00
C97    C     0.54427   0.24461   0.65334   0.00000  Uiso   1.00
C98    C     0.24320   0.15488   0.59565   0.00000  Uiso   1.00
C99    C     0.20494   0.25259   0.59203   0.00000  Uiso   1.00
C100   C     0.11796   0.28156   0.53696   0.00000  Uiso   1.00
C101   C     0.97884   0.36512   0.45791   0.00000  Uiso   1.00
C102   C     0.33304   0.95761   0.65421   0.00000  Uiso   1.00
C103   C     0.37028   0.88946   0.69982   0.00000  Uiso   1.00
C104   C     0.35892   0.75235   0.69405   0.00000  Uiso   1.00
C105   C     0.35928   0.52962   0.70593   0.00000  Uiso   1.00
C106   C     0.25097   0.98527   0.56007   0.00000  Uiso   1.00
C107   C     0.32976   0.05997   0.59218   0.00000  Uiso   1.00
C108   C     0.35508   0.06487   0.57590   0.00000  Uiso   1.00
C109   C     0.42909   0.13865   0.61104   0.00000  Uiso   1.00
C110   C     0.19626   0.08846   0.54603   0.00000  Uiso   1.00
C111   C     0.10932   0.11728   0.49095   0.00000  Uiso   1.00
C112   C     0.07094   0.21502   0.48725   0.00000  Uiso   1.00
C113   C     0.28610   0.89118   0.60459   0.00000  Uiso   1.00
C114   C     0.27467   0.75416   0.59875   0.00000  Uiso   1.00
C115   C     0.31190   0.68581   0.64434   0.00000  Uiso   1.00
H116   H     0.37393   0.15928   0.69005   0.00000  Uiso   1.00
H117   H     0.48700   0.25158   0.71537   0.00000  Uiso   1.00
H118   H     0.24128   0.30396   0.63044   0.00000  Uiso   1.00
H119   H     0.40660   0.94090   0.73821   0.00000  Uiso   1.00
H120   H     0.59163   0.32466   0.72154   0.00000  Uiso   1.00
H121   H     0.07351   0.43509   0.54246   0.00000  Uiso   1.00
H122   H     0.42213   0.66948   0.76973   0.00000  Uiso   1.00
H123   H     0.21442   0.93355   0.52143   0.00000  Uiso   1.00
H124   H     0.31874   0.01346   0.53750   0.00000  Uiso   1.00
H125   H     0.07302   0.06585   0.45257   0.00000  Uiso   1.00
H126   H     0.23834   0.70279   0.56034   0.00000  Uiso   1.00
H127   H     0.45506   0.13140   0.57717   0.00000  Uiso   1.00
H128   H     0.93694   0.24183   0.39809   0.00000  Uiso   1.00
H129   H     0.28556   0.47622   0.62536   0.00000  Uiso   1.00
O130   O     0.59483   0.28471   0.66295   0.00000  Uiso   1.00
O131   O     0.91507   0.42957   0.42801   0.00000  Uiso   1.00
O132   O     0.37245   0.42512   0.72619   0.00000  Uiso   1.00
N133   N     0.54518   0.26819   0.68536   0.00000  Uiso   1.00
N134   N     0.06078   0.37145   0.51793   0.00000  Uiso   1.00
N135   N     0.38668   0.65567   0.73041   0.00000  Uiso   1.00
N136   N     0.47170   0.16419   0.60768   0.00000  Uiso   1.00
N137   N     0.98729   0.26745   0.44025   0.00000  Uiso   1.00
N138   N     0.31320   0.55168   0.65273   0.00000  Uiso   1.00
C139   C     0.83739   0.60756   0.65142   0.00000  Uiso   1.00
C140   C     0.87671   0.62640   0.64180   0.00000  Uiso   1.00
C141   C     0.95069   0.70018   0.67697   0.00000  Uiso   1.00
C142   C     0.97611   0.70520   0.66075   0.00000  Uiso   1.00
C143   C     0.04427   0.74461   0.65334   0.00000  Uiso   1.00
C144   C     0.74320   0.65488   0.59565   0.00000  Uiso   1.00
C145   C     0.70494   0.75259   0.59203   0.00000  Uiso   1.00
C146   C     0.61796   0.78156   0.53696   0.00000  Uiso   1.00
C147   C     0.47884   0.86512   0.45791   0.00000  Uiso   1.00
C148   C     0.83304   0.45761   0.65421   0.00000  Uiso   1.00
C149   C     0.87028   0.38946   0.69982   0.00000  Uiso   1.00
C150   C     0.85892   0.25235   0.69405   0.00000  Uiso   1.00
C151   C     0.85928   0.02962   0.70593   0.00000  Uiso   1.00
C152   C     0.75097   0.48527   0.56007   0.00000  Uiso   1.00
C153   C     0.82976   0.55997   0.59218   0.00000  Uiso   1.00
C154   C     0.85508   0.56487   0.57590   0.00000  Uiso   1.00
C155   C     0.92909   0.63865   0.61104   0.00000  Uiso   1.00
C156   C     0.69626   0.58846   0.54603   0.00000  Uiso   1.00
C157   C     0.60932   0.61728   0.49095   0.00000  Uiso   1.00
C158   C     0.57094   0.71502   0.48725   0.00000  Uiso   1.00
C159   C     0.78610   0.39118   0.60459   0.00000  Uiso   1.00
C160   C     0.77467   0.25416   0.59875   0.00000  Uiso   1.00
C161   C     0.81190   0.18581   0.64434   0.00000  Uiso   1.00
H162   H     0.87393   0.65928   0.69005   0.00000  Uiso   1.00
H163   H     0.98700   0.75158   0.71537   0.00000  Uiso   1.00
H164   H     0.74128   0.80396   0.63044   0.00000  Uiso   1.00
H165   H     0.90660   0.44090   0.73821   0.00000  Uiso   1.00
H166   H     0.09163   0.82466   0.72154   0.00000  Uiso   1.00
H167   H     0.57351   0.93509   0.54246   0.00000  Uiso   1.00
H168   H     0.92213   0.16948   0.76973   0.00000  Uiso   1.00
H169   H     0.71442   0.43355   0.52143   0.00000  Uiso   1.00
H170   H     0.81874   0.51346   0.53750   0.00000  Uiso   1.00
H171   H     0.57302   0.56585   0.45257   0.00000  Uiso   1.00
H172   H     0.73834   0.20279   0.56034   0.00000  Uiso   1.00
H173   H     0.95506   0.63140   0.57717   0.00000  Uiso   1.00
H174   H     0.43694   0.74183   0.39809   0.00000  Uiso   1.00
H175   H     0.78556   0.97622   0.62536   0.00000  Uiso   1.00
O176   O     0.09483   0.78471   0.66295   0.00000  Uiso   1.00
O177   O     0.41507   0.92957   0.42801   0.00000  Uiso   1.00
O178   O     0.87245   0.92512   0.72619   0.00000  Uiso   1.00
N179   N     0.04518   0.76819   0.68536   0.00000  Uiso   1.00
N180   N     0.56078   0.87145   0.51793   0.00000  Uiso   1.00
N181   N     0.88668   0.15567   0.73041   0.00000  Uiso   1.00
N182   N     0.97170   0.66419   0.60768   0.00000  Uiso   1.00
N183   N     0.48729   0.76745   0.44025   0.00000  Uiso   1.00
N184   N     0.81320   0.05168   0.65273   0.00000  Uiso   1.00
C185   C     0.33739   0.89244   0.15142   0.00000  Uiso   1.00
C186   C     0.37671   0.87360   0.14180   0.00000  Uiso   1.00
C187   C     0.45069   0.79982   0.17697   0.00000  Uiso   1.00
C188   C     0.47611   0.79480   0.16075   0.00000  Uiso   1.00
C189   C     0.54427   0.75539   0.15334   0.00000  Uiso   1.00
C190   C     0.24320   0.84512   0.09565   0.00000  Uiso   1.00
C191   C     0.20494   0.74741   0.09203   0.00000  Uiso   1.00
C192   C     0.11796   0.71844   0.03696   0.00000  Uiso   1.00
C193   C     0.97884   0.63488   0.95791   0.00000  Uiso   1.00
C194   C     0.33304   0.04239   0.15421   0.00000  Uiso   1.00
C195   C     0.37028   0.11054   0.19982   0.00000  Uiso   1.00
C196   C     0.35892   0.24765   0.19405   0.00000  Uiso   1.00
C197   C     0.35928   0.47038   0.20593   0.00000  Uiso   1.00
C198   C     0.25097   0.01473   0.06007   0.00000  Uiso   1.00
C199   C     0.32976   0.94003   0.09218   0.00000  Uiso   1.00
C200   C     0.35508   0.93513   0.07590   0.00000  Uiso   1.00
C201   C     0.42909   0.86135   0.11104   0.00000  Uiso   1.00
C202   C     0.19626   0.91154   0.04603   0.00000  Uiso   1.00
C203   C     0.10932   0.88272   0.99095   0.00000  Uiso   1.00
C204   C     0.07094   0.78498   0.98725   0.00000  Uiso   1.00
C205   C     0.28610   0.10882   0.10459   0.00000  Uiso   1.00
C206   C     0.27467   0.24584   0.09875   0.00000  Uiso   1.00
C207   C     0.31190   0.31419   0.14434   0.00000  Uiso   1.00
H208   H     0.37393   0.84072   0.19005   0.00000  Uiso   1.00
H209   H     0.48700   0.74842   0.21537   0.00000  Uiso   1.00
H210   H     0.24128   0.69604   0.13044   0.00000  Uiso   1.00
H211   H     0.40660   0.05910   0.23821   0.00000  Uiso   1.00
H212   H     0.59163   0.67534   0.22154   0.00000  Uiso   1.00
H213   H     0.07351   0.56491   0.04246   0.00000  Uiso   1.00
H214   H     0.42213   0.33052   0.26973   0.00000  Uiso   1.00
H215   H     0.21442   0.06645   0.02143   0.00000  Uiso   1.00
H216   H     0.31874   0.98654   0.03750   0.00000  Uiso   1.00
H217   H     0.07302   0.93415   0.95257   0.00000  Uiso   1.00
H218   H     0.23834   0.29721   0.06034   0.00000  Uiso   1.00
H219   H     0.45506   0.86860   0.07717   0.00000  Uiso   1.00
H220   H     0.93694   0.75817   0.89809   0.00000  Uiso   1.00
H221   H     0.28556   0.52378   0.12536   0.00000  Uiso   1.00
O222   O     0.59483   0.71529   0.16295   0.00000  Uiso   1.00
O223   O     0.91507   0.57043   0.92801   0.00000  Uiso   1.00
O224   O     0.37245   0.57488   0.22619   0.00000  Uiso   1.00
N225   N     0.54518   0.73181   0.18536   0.00000  Uiso   1.00
N226   N     0.06078   0.62855   0.01793   0.00000  Uiso   1.00
N227   N     0.38668   0.34433   0.23041   0.00000  Uiso   1.00
N228   N     0.47170   0.83581   0.10768   0.00000  Uiso   1.00
N229   N     0.98729   0.73255   0.94025   0.00000  Uiso   1.00
N230   N     0.31320   0.44832   0.15273   0.00000  Uiso   1.00
C231   C     0.83739   0.39244   0.15142   0.00000  Uiso   1.00
C232   C     0.87671   0.37360   0.14180   0.00000  Uiso   1.00
C233   C     0.95069   0.29982   0.17697   0.00000  Uiso   1.00
C234   C     0.97611   0.29480   0.16075   0.00000  Uiso   1.00
C235   C     0.04427   0.25539   0.15334   0.00000  Uiso   1.00
C236   C     0.74320   0.34512   0.09565   0.00000  Uiso   1.00
C237   C     0.70494   0.24741   0.09203   0.00000  Uiso   1.00
C238   C     0.61796   0.21844   0.03696   0.00000  Uiso   1.00
C239   C     0.47884   0.13488   0.95791   0.00000  Uiso   1.00
C240   C     0.83304   0.54239   0.15421   0.00000  Uiso   1.00
C241   C     0.87028   0.61054   0.19982   0.00000  Uiso   1.00
C242   C     0.85892   0.74765   0.19405   0.00000  Uiso   1.00
C243   C     0.85928   0.97038   0.20593   0.00000  Uiso   1.00
C244   C     0.75097   0.51473   0.06007   0.00000  Uiso   1.00
C245   C     0.82976   0.44003   0.09218   0.00000  Uiso   1.00
C246   C     0.85508   0.43513   0.07590   0.00000  Uiso   1.00
C247   C     0.92909   0.36135   0.11104   0.00000  Uiso   1.00
C248   C     0.69626   0.41154   0.04603   0.00000  Uiso   1.00
C249   C     0.60932   0.38272   0.99095   0.00000  Uiso   1.00
C250   C     0.57094   0.28498   0.98725   0.00000  Uiso   1.00
C251   C     0.78610   0.60882   0.10459   0.00000  Uiso   1.00
C252   C     0.77467   0.74584   0.09875   0.00000  Uiso   1.00
C253   C     0.81190   0.81419   0.14434   0.00000  Uiso   1.00
H254   H     0.87393   0.34072   0.19005   0.00000  Uiso   1.00
H255   H     0.98700   0.24842   0.21537   0.00000  Uiso   1.00
H256   H     0.74128   0.19604   0.13044   0.00000  Uiso   1.00
H257   H     0.90660   0.55910   0.23821   0.00000  Uiso   1.00
H258   H     0.09163   0.17534   0.22154   0.00000  Uiso   1.00
H259   H     0.57351   0.06491   0.04246   0.00000  Uiso   1.00
H260   H     0.92213   0.83052   0.26973   0.00000  Uiso   1.00
H261   H     0.71442   0.56645   0.02143   0.00000  Uiso   1.00
H262   H     0.81874   0.48654   0.03750   0.00000  Uiso   1.00
H263   H     0.57302   0.43415   0.95257   0.00000  Uiso   1.00
H264   H     0.73834   0.79721   0.06034   0.00000  Uiso   1.00
H265   H     0.95506   0.36860   0.07717   0.00000  Uiso   1.00
H266   H     0.43694   0.25817   0.89809   0.00000  Uiso   1.00
H267   H     0.78556   0.02378   0.12536   0.00000  Uiso   1.00
O268   O     0.09483   0.21529   0.16295   0.00000  Uiso   1.00
O269   O     0.41507   0.07043   0.92801   0.00000  Uiso   1.00
O270   O     0.87245   0.07488   0.22619   0.00000  Uiso   1.00
N271   N     0.04518   0.23181   0.18536   0.00000  Uiso   1.00
N272   N     0.56078   0.12855   0.01793   0.00000  Uiso   1.00
N273   N     0.88668   0.84433   0.23041   0.00000  Uiso   1.00
N274   N     0.97170   0.33581   0.10768   0.00000  Uiso   1.00
N275   N     0.48729   0.23255   0.94025   0.00000  Uiso   1.00
N276   N     0.81320   0.94832   0.15273   0.00000  Uiso   1.00
C277   C     0.66261   0.89244   0.34858   0.00000  Uiso   1.00
C278   C     0.62329   0.87360   0.35820   0.00000  Uiso   1.00
C279   C     0.54931   0.79982   0.32303   0.00000  Uiso   1.00
C280   C     0.52389   0.79480   0.33925   0.00000  Uiso   1.00
C281   C     0.45573   0.75539   0.34666   0.00000  Uiso   1.00
C282   C     0.75680   0.84512   0.40435   0.00000  Uiso   1.00
C283   C     0.79506   0.74741   0.40797   0.00000  Uiso   1.00
C284   C     0.88204   0.71844   0.46304   0.00000  Uiso   1.00
C285   C     0.02116   0.63488   0.54209   0.00000  Uiso   1.00
C286   C     0.66696   0.04239   0.34579   0.00000  Uiso   1.00
C287   C     0.62972   0.11054   0.30018   0.00000  Uiso   1.00
C288   C     0.64108   0.24765   0.30595   0.00000  Uiso   1.00
C289   C     0.64072   0.47038   0.29407   0.00000  Uiso   1.00
C290   C     0.74903   0.01473   0.43993   0.00000  Uiso   1.00
C291   C     0.67024   0.94003   0.40782   0.00000  Uiso   1.00
C292   C     0.64492   0.93513   0.42410   0.00000  Uiso   1.00
C293   C     0.57091   0.86135   0.38896   0.00000  Uiso   1.00
C294   C     0.80374   0.91154   0.45397   0.00000  Uiso   1.00
C295   C     0.89068   0.88272   0.50905   0.00000  Uiso   1.00
C296   C     0.92906   0.78498   0.51275   0.00000  Uiso   1.00
C297   C     0.71390   0.10882   0.39541   0.00000  Uiso   1.00
C298   C     0.72533   0.24584   0.40125   0.00000  Uiso   1.00
C299   C     0.68810   0.31419   0.35566   0.00000  Uiso   1.00
H300   H     0.62607   0.84072   0.30995   0.00000  Uiso   1.00
H301   H     0.51300   0.74842   0.28463   0.00000  Uiso   1.00
H302   H     0.75872   0.69604   0.36956   0.00000  Uiso   1.00
H303   H     0.59340   0.05910   0.26179   0.00000  Uiso   1.00
H304   H     0.40837   0.67534   0.27846   0.00000  Uiso   1.00
H305   H     0.92649   0.56491   0.45754   0.00000  Uiso   1.00
H306   H     0.57787   0.33052   0.23027   0.00000  Uiso   1.00
H307   H     0.78558   0.06645   0.47857   0.00000  Uiso   1.00
H308   H     0.68126   0.98654   0.46250   0.00000  Uiso   1.00
H309   H     0.92698   0.93415   0.54743   0.00000  Uiso   1.00
H310   H     0.76166   0.29721   0.43966   0.00000  Uiso   1.00
H311   H     0.54494   0.86860   0.42283   0.00000  Uiso   1.00
H312   H     0.06306   0.75817   0.60191   0.00000  Uiso   1.00
H313   H     0.71444   0.52378   0.37464   0.00000  Uiso   1.00
O314   O     0.40517   0.71529   0.33705   0.00000  Uiso   1.00
O315   O     0.08493   0.57043   0.57199   0.00000  Uiso   1.00
O316   O     0.62755   0.57488   0.27381   0.00000  Uiso   1.00
N317   N     0.45482   0.73181   0.31464   0.00000  Uiso   1.00
N318   N     0.93922   0.62855   0.48207   0.00000  Uiso   1.00
N319   N     0.61332   0.34433   0.26959   0.00000  Uiso   1.00
N320   N     0.52830   0.83581   0.39232   0.00000  Uiso   1.00
N321   N     0.01271   0.73255   0.55975   0.00000  Uiso   1.00
N322   N     0.68680   0.44832   0.34727   0.00000  Uiso   1.00
C323   C     0.16261   0.39244   0.34858   0.00000  Uiso   1.00
C324   C     0.12329   0.37360   0.35820   0.00000  Uiso   1.00
C325   C     0.04931   0.29982   0.32303   0.00000  Uiso   1.00
C326   C     0.02389   0.29480   0.33925   0.00000  Uiso   1.00
C327   C     0.95573   0.25539   0.34666   0.00000  Uiso   1.00
C328   C     0.25680   0.34512   0.40435   0.00000  Uiso   1.00
C329   C     0.29506   0.24741   0.40797   0.00000  Uiso   1.00
C330   C     0.38204   0.21844   0.46304   0.00000  Uiso   1.00
C331   C     0.52116   0.13488   0.54209   0.00000  Uiso   1.00
C332   C     0.16696   0.54239   0.34579   0.00000  Uiso   1.00
C333   C     0.12972   0.61054   0.30018   0.00000  Uiso   1.00
C334   C     0.14108   0.74765   0.30595   0.00000  Uiso   1.00
C335   C     0.14072   0.97038   0.29407   0.00000  Uiso   1.00
C336   C     0.24903   0.51473   0.43993   0.00000  Uiso   1.00
C337   C     0.17024   0.44003   0.40782   0.00000  Uiso   1.00
C338   C     0.14492   0.43513   0.42410   0.00000  Uiso   1.00
C339   C     0.07091   0.36135   0.38896   0.00000  Uiso   1.00
C340   C     0.30374   0.41154   0.45397   0.00000  Uiso   1.00
C341   C     0.39068   0.38272   0.50905   0.00000  Uiso   1.00
C342   C     0.42906   0.28498   0.51275   0.00000  Uiso   1.00
C343   C     0.21390   0.60882   0.39541   0.00000  Uiso   1.00
C344   C     0.22533   0.74584   0.40125   0.00000  Uiso   1.00
C345   C     0.18810   0.81419   0.35566   0.00000  Uiso   1.00
H346   H     0.12607   0.34072   0.30995   0.00000  Uiso   1.00
H347   H     0.01300   0.24842   0.28463   0.00000  Uiso   1.00
H348   H     0.25872   0.19604   0.36956   0.00000  Uiso   1.00
H349   H     0.09340   0.55910   0.26179   0.00000  Uiso   1.00
H350   H     0.90837   0.17534   0.27846   0.00000  Uiso   1.00
H351   H     0.42649   0.06491   0.45754   0.00000  Uiso   1.00
H352   H     0.07787   0.83052   0.23027   0.00000  Uiso   1.00
H353   H     0.28558   0.56645   0.47857   0.00000  Uiso   1.00
H354   H     0.18126   0.48654   0.46250   0.00000  Uiso   1.00
H355   H     0.42698   0.43415   0.54743   0.00000  Uiso   1.00
H356   H     0.26166   0.79721   0.43966   0.00000  Uiso   1.00
H357   H     0.04494   0.36860   0.42283   0.00000  Uiso   1.00
H358   H     0.56306   0.25817   0.60191   0.00000  Uiso   1.00
H359   H     0.21444   0.02378   0.37464   0.00000  Uiso   1.00
O360   O     0.90517   0.21529   0.33705   0.00000  Uiso   1.00
O361   O     0.58493   0.07043   0.57199   0.00000  Uiso   1.00
O362   O     0.12755   0.07488   0.27381   0.00000  Uiso   1.00
N363   N     0.95482   0.23181   0.31464   0.00000  Uiso   1.00
N364   N     0.43922   0.12855   0.48207   0.00000  Uiso   1.00
N365   N     0.11332   0.84433   0.26959   0.00000  Uiso   1.00
N366   N     0.02830   0.33581   0.39232   0.00000  Uiso   1.00
N367   N     0.51271   0.23255   0.55975   0.00000  Uiso   1.00
N368   N     0.18680   0.94832   0.34727   0.00000  Uiso   1.00
