data_job_02933
_audit_creation_date              2018-12-19
_audit_creation_method            'Materials Studio'
_symmetry_space_group_name_H-M    'P1'
_symmetry_Int_Tables_number       1
_symmetry_cell_setting            triclinic
loop_
_symmetry_equiv_pos_as_xyz
  x,y,z
_cell_length_a                    15.0867
_cell_length_b                    17.1631
_cell_length_c                    18.1425
_cell_angle_alpha                 90.0000
_cell_angle_beta                  90.0000
_cell_angle_gamma                 90.0000
loop_
_atom_site_label
_atom_site_type_symbol
_atom_site_fract_x
_atom_site_fract_y
_atom_site_fract_z
_atom_site_U_iso_or_equiv
_atom_site_adp_type
_atom_site_occupancy
C1     C     0.24824   0.63595   0.04408   0.00000  Uiso   1.00
C2     C     0.34417   0.65186   0.06586   0.00000  Uiso   1.00
C3     C     0.39442   0.60746   0.11424   0.00000  Uiso   1.00
C4     C     0.48088   0.63169   0.12695   0.00000  Uiso   1.00
C5     C     0.62453   0.64634   0.16604   0.00000  Uiso   1.00
C6     C     0.19685   0.70990   0.06266   0.00000  Uiso   1.00
C7     C     0.12323   0.71429   0.10834   0.00000  Uiso   1.00
C8     C     0.08567   0.78738   0.11835   0.00000  Uiso   1.00
C9     C     0.00055   0.89212   0.15243   0.00000  Uiso   1.00
C10    C     0.24768   0.62970   0.96024   0.00000  Uiso   1.00
C11    C     0.21677   0.56667   0.91980   0.00000  Uiso   1.00
C12    C     0.22198   0.57225   0.84358   0.00000  Uiso   1.00
C13    C     0.21578   0.55248   0.71863   0.00000  Uiso   1.00
C14    C     0.31243   0.75795   0.98062   0.00000  Uiso   1.00
C15    C     0.37903   0.71813   0.03139   0.00000  Uiso   1.00
C16    C     0.46544   0.74244   0.04403   0.00000  Uiso   1.00
C17    C     0.51582   0.69808   0.09242   0.00000  Uiso   1.00
C18    C     0.23171   0.77616   0.02820   0.00000  Uiso   1.00
C19    C     0.19425   0.84926   0.03813   0.00000  Uiso   1.00
C20    C     0.12059   0.85376   0.08382   0.00000  Uiso   1.00
C21    C     0.28254   0.69597   0.92577   0.00000  Uiso   1.00
C22    C     0.28779   0.70165   0.84959   0.00000  Uiso   1.00
C23    C     0.25690   0.63864   0.80904   0.00000  Uiso   1.00
H24    H     0.22109   0.58436   0.07092   0.00000  Uiso   1.00
H25    H     0.36742   0.55619   0.14091   0.00000  Uiso   1.00
H26    H     0.09626   0.66300   0.13500   0.00000  Uiso   1.00
H27    H     0.18979   0.51540   0.94649   0.00000  Uiso   1.00
H28    H     0.54501   0.55418   0.20333   0.00000  Uiso   1.00
H29    H     0.97324   0.77939   0.19085   0.00000  Uiso   1.00
H30    H     0.17047   0.46817   0.79335   0.00000  Uiso   1.00
H31    H     0.33957   0.80954   0.95379   0.00000  Uiso   1.00
H32    H     0.49241   0.79372   0.01735   0.00000  Uiso   1.00
H33    H     0.22124   0.90053   0.01145   0.00000  Uiso   1.00
H34    H     0.31478   0.75294   0.82294   0.00000  Uiso   1.00
H35    H     0.64645   0.74698   0.10304   0.00000  Uiso   1.00
H36    H     0.07468   0.97219   0.09057   0.00000  Uiso   1.00
H37    H     0.27191   0.66096   0.69306   0.00000  Uiso   1.00
O38    O     0.69412   0.63612   0.19713   0.00000  Uiso   1.00
O39    O     0.94398   0.93158   0.18076   0.00000  Uiso   1.00
O40    O     0.20274   0.52326   0.65924   0.00000  Uiso   1.00
N41    N     0.54792   0.60172   0.17099   0.00000  Uiso   1.00
N42    N     0.01336   0.81228   0.15934   0.00000  Uiso   1.00
N43    N     0.19772   0.52132   0.78770   0.00000  Uiso   1.00
N44    N     0.60250   0.70546   0.11703   0.00000  Uiso   1.00
N45    N     0.06794   0.91602   0.10538   0.00000  Uiso   1.00
N46    N     0.25231   0.62506   0.73374   0.00000  Uiso   1.00
C47    C     0.25176   0.86405   0.54408   0.00000  Uiso   1.00
C48    C     0.15583   0.84814   0.56586   0.00000  Uiso   1.00
C49    C     0.10558   0.89254   0.61424   0.00000  Uiso   1.00
C50    C     0.01912   0.86831   0.62695   0.00000  Uiso   1.00
C51    C     0.87547   0.85366   0.66604   0.00000  Uiso   1.00
C52    C     0.30315   0.79010   0.56266   0.00000  Uiso   1.00
C53    C     0.37677   0.78571   0.60834   0.00000  Uiso   1.00
C54    C     0.41433   0.71262   0.61835   0.00000  Uiso   1.00
C55    C     0.49945   0.60788   0.65243   0.00000  Uiso   1.00
C56    C     0.25232   0.87030   0.46024   0.00000  Uiso   1.00
C57    C     0.28323   0.93333   0.41980   0.00000  Uiso   1.00
C58    C     0.27802   0.92775   0.34358   0.00000  Uiso   1.00
C59    C     0.28422   0.94752   0.21863   0.00000  Uiso   1.00
C60    C     0.18757   0.74205   0.48062   0.00000  Uiso   1.00
C61    C     0.12097   0.78187   0.53139   0.00000  Uiso   1.00
C62    C     0.03456   0.75756   0.54403   0.00000  Uiso   1.00
C63    C     0.98418   0.80192   0.59242   0.00000  Uiso   1.00
C64    C     0.26829   0.72384   0.52820   0.00000  Uiso   1.00
C65    C     0.30575   0.65074   0.53813   0.00000  Uiso   1.00
C66    C     0.37941   0.64624   0.58382   0.00000  Uiso   1.00
C67    C     0.21746   0.80403   0.42577   0.00000  Uiso   1.00
C68    C     0.21221   0.79835   0.34959   0.00000  Uiso   1.00
C69    C     0.24310   0.86136   0.30904   0.00000  Uiso   1.00
H70    H     0.27891   0.91564   0.57092   0.00000  Uiso   1.00
H71    H     0.13258   0.94381   0.64091   0.00000  Uiso   1.00
H72    H     0.40374   0.83700   0.63500   0.00000  Uiso   1.00
H73    H     0.31021   0.98460   0.44649   0.00000  Uiso   1.00
H74    H     0.95499   0.94582   0.70333   0.00000  Uiso   1.00
H75    H     0.52676   0.72061   0.69085   0.00000  Uiso   1.00
H76    H     0.32953   0.03183   0.29335   0.00000  Uiso   1.00
H77    H     0.16043   0.69046   0.45379   0.00000  Uiso   1.00
H78    H     0.00759   0.70628   0.51735   0.00000  Uiso   1.00
H79    H     0.27876   0.59947   0.51145   0.00000  Uiso   1.00
H80    H     0.18522   0.74706   0.32294   0.00000  Uiso   1.00
H81    H     0.85355   0.75302   0.60304   0.00000  Uiso   1.00
H82    H     0.42532   0.52781   0.59057   0.00000  Uiso   1.00
H83    H     0.22809   0.83904   0.19306   0.00000  Uiso   1.00
O84    O     0.80588   0.86388   0.69713   0.00000  Uiso   1.00
O85    O     0.55602   0.56842   0.68076   0.00000  Uiso   1.00
O86    O     0.29726   0.97674   0.15924   0.00000  Uiso   1.00
N87    N     0.95208   0.89828   0.67099   0.00000  Uiso   1.00
N88    N     0.48664   0.68772   0.65934   0.00000  Uiso   1.00
N89    N     0.30228   0.97868   0.28770   0.00000  Uiso   1.00
N90    N     0.89750   0.79454   0.61703   0.00000  Uiso   1.00
N91    N     0.43206   0.58398   0.60538   0.00000  Uiso   1.00
N92    N     0.24769   0.87494   0.23374   0.00000  Uiso   1.00
C93    C     0.75176   0.63595   0.45592   0.00000  Uiso   1.00
C94    C     0.65583   0.65186   0.43414   0.00000  Uiso   1.00
C95    C     0.60558   0.60746   0.38576   0.00000  Uiso   1.00
C96    C     0.51912   0.63169   0.37305   0.00000  Uiso   1.00
C97    C     0.37547   0.64634   0.33396   0.00000  Uiso   1.00
C98    C     0.80315   0.70990   0.43734   0.00000  Uiso   1.00
C99    C     0.87677   0.71429   0.39166   0.00000  Uiso   1.00
C100   C     0.91433   0.78738   0.38165   0.00000  Uiso   1.00
C101   C     0.99945   0.89212   0.34757   0.00000  Uiso   1.00
C102   C     0.75232   0.62970   0.53976   0.00000  Uiso   1.00
C103   C     0.78323   0.56667   0.58020   0.00000  Uiso   1.00
C104   C     0.77802   0.57225   0.65642   0.00000  Uiso   1.00
C105   C     0.78422   0.55248   0.78137   0.00000  Uiso   1.00
C106   C     0.68757   0.75795   0.51938   0.00000  Uiso   1.00
C107   C     0.62097   0.71813   0.46861   0.00000  Uiso   1.00
C108   C     0.53456   0.74244   0.45597   0.00000  Uiso   1.00
C109   C     0.48418   0.69808   0.40758   0.00000  Uiso   1.00
C110   C     0.76829   0.77616   0.47180   0.00000  Uiso   1.00
C111   C     0.80575   0.84926   0.46187   0.00000  Uiso   1.00
C112   C     0.87941   0.85376   0.41618   0.00000  Uiso   1.00
C113   C     0.71746   0.69597   0.57423   0.00000  Uiso   1.00
C114   C     0.71221   0.70165   0.65041   0.00000  Uiso   1.00
C115   C     0.74310   0.63864   0.69096   0.00000  Uiso   1.00
H116   H     0.77891   0.58436   0.42908   0.00000  Uiso   1.00
H117   H     0.63258   0.55619   0.35909   0.00000  Uiso   1.00
H118   H     0.90374   0.66300   0.36500   0.00000  Uiso   1.00
H119   H     0.81021   0.51540   0.55351   0.00000  Uiso   1.00
H120   H     0.45499   0.55418   0.29667   0.00000  Uiso   1.00
H121   H     0.02676   0.77939   0.30915   0.00000  Uiso   1.00
H122   H     0.82953   0.46817   0.70665   0.00000  Uiso   1.00
H123   H     0.66043   0.80954   0.54621   0.00000  Uiso   1.00
H124   H     0.50759   0.79372   0.48265   0.00000  Uiso   1.00
H125   H     0.77876   0.90053   0.48855   0.00000  Uiso   1.00
H126   H     0.68522   0.75294   0.67706   0.00000  Uiso   1.00
H127   H     0.35355   0.74698   0.39696   0.00000  Uiso   1.00
H128   H     0.92532   0.97219   0.40943   0.00000  Uiso   1.00
H129   H     0.72809   0.66096   0.80694   0.00000  Uiso   1.00
O130   O     0.30588   0.63612   0.30287   0.00000  Uiso   1.00
O131   O     0.05602   0.93158   0.31924   0.00000  Uiso   1.00
O132   O     0.79726   0.52326   0.84076   0.00000  Uiso   1.00
N133   N     0.45208   0.60172   0.32901   0.00000  Uiso   1.00
N134   N     0.98664   0.81228   0.34066   0.00000  Uiso   1.00
N135   N     0.80228   0.52132   0.71230   0.00000  Uiso   1.00
N136   N     0.39750   0.70546   0.38297   0.00000  Uiso   1.00
N137   N     0.93206   0.91602   0.39462   0.00000  Uiso   1.00
N138   N     0.74769   0.62506   0.76626   0.00000  Uiso   1.00
C139   C     0.74824   0.86405   0.95592   0.00000  Uiso   1.00
C140   C     0.84417   0.84814   0.93414   0.00000  Uiso   1.00
C141   C     0.89442   0.89254   0.88576   0.00000  Uiso   1.00
C142   C     0.98088   0.86831   0.87305   0.00000  Uiso   1.00
C143   C     0.12453   0.85366   0.83396   0.00000  Uiso   1.00
C144   C     0.69685   0.79010   0.93734   0.00000  Uiso   1.00
C145   C     0.62323   0.78571   0.89166   0.00000  Uiso   1.00
C146   C     0.58567   0.71262   0.88165   0.00000  Uiso   1.00
C147   C     0.50055   0.60788   0.84757   0.00000  Uiso   1.00
C148   C     0.74768   0.87030   0.03976   0.00000  Uiso   1.00
C149   C     0.71677   0.93333   0.08020   0.00000  Uiso   1.00
C150   C     0.72198   0.92775   0.15642   0.00000  Uiso   1.00
C151   C     0.71578   0.94752   0.28137   0.00000  Uiso   1.00
C152   C     0.81243   0.74205   0.01938   0.00000  Uiso   1.00
C153   C     0.87903   0.78187   0.96861   0.00000  Uiso   1.00
C154   C     0.96544   0.75756   0.95597   0.00000  Uiso   1.00
C155   C     0.01582   0.80192   0.90758   0.00000  Uiso   1.00
C156   C     0.73171   0.72384   0.97180   0.00000  Uiso   1.00
C157   C     0.69425   0.65074   0.96187   0.00000  Uiso   1.00
C158   C     0.62059   0.64624   0.91618   0.00000  Uiso   1.00
C159   C     0.78254   0.80403   0.07423   0.00000  Uiso   1.00
C160   C     0.78779   0.79835   0.15041   0.00000  Uiso   1.00
C161   C     0.75690   0.86136   0.19096   0.00000  Uiso   1.00
H162   H     0.72109   0.91564   0.92908   0.00000  Uiso   1.00
H163   H     0.86742   0.94381   0.85909   0.00000  Uiso   1.00
H164   H     0.59626   0.83700   0.86500   0.00000  Uiso   1.00
H165   H     0.68979   0.98460   0.05351   0.00000  Uiso   1.00
H166   H     0.04501   0.94582   0.79667   0.00000  Uiso   1.00
H167   H     0.47324   0.72061   0.80915   0.00000  Uiso   1.00
H168   H     0.67047   0.03183   0.20665   0.00000  Uiso   1.00
H169   H     0.83957   0.69046   0.04621   0.00000  Uiso   1.00
H170   H     0.99241   0.70628   0.98265   0.00000  Uiso   1.00
H171   H     0.72124   0.59947   0.98855   0.00000  Uiso   1.00
H172   H     0.81478   0.74706   0.17706   0.00000  Uiso   1.00
H173   H     0.14645   0.75302   0.89696   0.00000  Uiso   1.00
H174   H     0.57468   0.52781   0.90943   0.00000  Uiso   1.00
H175   H     0.77191   0.83904   0.30694   0.00000  Uiso   1.00
O176   O     0.19412   0.86388   0.80287   0.00000  Uiso   1.00
O177   O     0.44398   0.56842   0.81924   0.00000  Uiso   1.00
O178   O     0.70274   0.97674   0.34076   0.00000  Uiso   1.00
N179   N     0.04792   0.89828   0.82901   0.00000  Uiso   1.00
N180   N     0.51336   0.68772   0.84066   0.00000  Uiso   1.00
N181   N     0.69772   0.97868   0.21230   0.00000  Uiso   1.00
N182   N     0.10250   0.79454   0.88297   0.00000  Uiso   1.00
N183   N     0.56794   0.58398   0.89462   0.00000  Uiso   1.00
N184   N     0.75231   0.87494   0.26626   0.00000  Uiso   1.00
C185   C     0.75176   0.36405   0.95592   0.00000  Uiso   1.00
C186   C     0.65583   0.34814   0.93414   0.00000  Uiso   1.00
C187   C     0.60558   0.39254   0.88576   0.00000  Uiso   1.00
C188   C     0.51912   0.36831   0.87305   0.00000  Uiso   1.00
C189   C     0.37547   0.35366   0.83396   0.00000  Uiso   1.00
C190   C     0.80315   0.29010   0.93734   0.00000  Uiso   1.00
C191   C     0.87677   0.28571   0.89166   0.00000  Uiso   1.00
C192   C     0.91433   0.21262   0.88165   0.00000  Uiso   1.00
C193   C     0.99945   0.10788   0.84757   0.00000  Uiso   1.00
C194   C     0.75232   0.37030   0.03976   0.00000  Uiso   1.00
C195   C     0.78323   0.43333   0.08020   0.00000  Uiso   1.00
C196   C     0.77802   0.42775   0.15642   0.00000  Uiso   1.00
C197   C     0.78422   0.44752   0.28137   0.00000  Uiso   1.00
C198   C     0.68757   0.24205   0.01938   0.00000  Uiso   1.00
C199   C     0.62097   0.28187   0.96861   0.00000  Uiso   1.00
C200   C     0.53456   0.25756   0.95597   0.00000  Uiso   1.00
C201   C     0.48418   0.30192   0.90758   0.00000  Uiso   1.00
C202   C     0.76829   0.22384   0.97180   0.00000  Uiso   1.00
C203   C     0.80575   0.15074   0.96187   0.00000  Uiso   1.00
C204   C     0.87941   0.14624   0.91618   0.00000  Uiso   1.00
C205   C     0.71746   0.30403   0.07423   0.00000  Uiso   1.00
C206   C     0.71221   0.29835   0.15041   0.00000  Uiso   1.00
C207   C     0.74310   0.36136   0.19096   0.00000  Uiso   1.00
H208   H     0.77891   0.41564   0.92908   0.00000  Uiso   1.00
H209   H     0.63258   0.44381   0.85909   0.00000  Uiso   1.00
H210   H     0.90374   0.33700   0.86500   0.00000  Uiso   1.00
H211   H     0.81021   0.48460   0.05351   0.00000  Uiso   1.00
H212   H     0.45499   0.44582   0.79667   0.00000  Uiso   1.00
H213   H     0.02676   0.22061   0.80915   0.00000  Uiso   1.00
H214   H     0.82953   0.53183   0.20665   0.00000  Uiso   1.00
H215   H     0.66043   0.19046   0.04621   0.00000  Uiso   1.00
H216   H     0.50759   0.20628   0.98265   0.00000  Uiso   1.00
H217   H     0.77876   0.09947   0.98855   0.00000  Uiso   1.00
H218   H     0.68522   0.24706   0.17706   0.00000  Uiso   1.00
H219   H     0.35355   0.25302   0.89696   0.00000  Uiso   1.00
H220   H     0.92532   0.02781   0.90943   0.00000  Uiso   1.00
H221   H     0.72809   0.33904   0.30694   0.00000  Uiso   1.00
O222   O     0.30588   0.36388   0.80287   0.00000  Uiso   1.00
O223   O     0.05602   0.06842   0.81924   0.00000  Uiso   1.00
O224   O     0.79726   0.47674   0.34076   0.00000  Uiso   1.00
N225   N     0.45208   0.39828   0.82901   0.00000  Uiso   1.00
N226   N     0.98664   0.18772   0.84066   0.00000  Uiso   1.00
N227   N     0.80228   0.47868   0.21230   0.00000  Uiso   1.00
N228   N     0.39750   0.29454   0.88297   0.00000  Uiso   1.00
N229   N     0.93206   0.08398   0.89462   0.00000  Uiso   1.00
N230   N     0.74769   0.37494   0.26626   0.00000  Uiso   1.00
C231   C     0.74824   0.13595   0.45592   0.00000  Uiso   1.00
C232   C     0.84417   0.15186   0.43414   0.00000  Uiso   1.00
C233   C     0.89442   0.10746   0.38576   0.00000  Uiso   1.00
C234   C     0.98088   0.13169   0.37305   0.00000  Uiso   1.00
C235   C     0.12453   0.14634   0.33396   0.00000  Uiso   1.00
C236   C     0.69685   0.20990   0.43734   0.00000  Uiso   1.00
C237   C     0.62323   0.21429   0.39166   0.00000  Uiso   1.00
C238   C     0.58567   0.28738   0.38165   0.00000  Uiso   1.00
C239   C     0.50055   0.39212   0.34757   0.00000  Uiso   1.00
C240   C     0.74768   0.12970   0.53976   0.00000  Uiso   1.00
C241   C     0.71677   0.06667   0.58020   0.00000  Uiso   1.00
C242   C     0.72198   0.07225   0.65642   0.00000  Uiso   1.00
C243   C     0.71578   0.05248   0.78137   0.00000  Uiso   1.00
C244   C     0.81243   0.25795   0.51938   0.00000  Uiso   1.00
C245   C     0.87903   0.21813   0.46861   0.00000  Uiso   1.00
C246   C     0.96544   0.24244   0.45597   0.00000  Uiso   1.00
C247   C     0.01582   0.19808   0.40758   0.00000  Uiso   1.00
C248   C     0.73171   0.27616   0.47180   0.00000  Uiso   1.00
C249   C     0.69425   0.34926   0.46187   0.00000  Uiso   1.00
C250   C     0.62059   0.35376   0.41618   0.00000  Uiso   1.00
C251   C     0.78254   0.19597   0.57423   0.00000  Uiso   1.00
C252   C     0.78779   0.20165   0.65041   0.00000  Uiso   1.00
C253   C     0.75690   0.13864   0.69096   0.00000  Uiso   1.00
H254   H     0.72109   0.08436   0.42908   0.00000  Uiso   1.00
H255   H     0.86742   0.05619   0.35909   0.00000  Uiso   1.00
H256   H     0.59626   0.16300   0.36500   0.00000  Uiso   1.00
H257   H     0.68979   0.01540   0.55351   0.00000  Uiso   1.00
H258   H     0.04501   0.05418   0.29667   0.00000  Uiso   1.00
H259   H     0.47324   0.27939   0.30915   0.00000  Uiso   1.00
H260   H     0.67047   0.96817   0.70665   0.00000  Uiso   1.00
H261   H     0.83957   0.30954   0.54621   0.00000  Uiso   1.00
H262   H     0.99241   0.29372   0.48265   0.00000  Uiso   1.00
H263   H     0.72124   0.40053   0.48855   0.00000  Uiso   1.00
H264   H     0.81478   0.25294   0.67706   0.00000  Uiso   1.00
H265   H     0.14645   0.24698   0.39696   0.00000  Uiso   1.00
H266   H     0.57468   0.47219   0.40943   0.00000  Uiso   1.00
H267   H     0.77191   0.16096   0.80694   0.00000  Uiso   1.00
O268   O     0.19412   0.13612   0.30287   0.00000  Uiso   1.00
O269   O     0.44398   0.43158   0.31924   0.00000  Uiso   1.00
O270   O     0.70274   0.02326   0.84076   0.00000  Uiso   1.00
N271   N     0.04792   0.10172   0.32901   0.00000  Uiso   1.00
N272   N     0.51336   0.31228   0.34066   0.00000  Uiso   1.00
N273   N     0.69772   0.02132   0.71230   0.00000  Uiso   1.00
N274   N     0.10250   0.20546   0.38297   0.00000  Uiso   1.00
N275   N     0.56794   0.41602   0.39462   0.00000  Uiso   1.00
N276   N     0.75231   0.12506   0.76626   0.00000  Uiso   1.00
C277   C     0.24824   0.36405   0.54408   0.00000  Uiso   1.00
C278   C     0.34417   0.34814   0.56586   0.00000  Uiso   1.00
C279   C     0.39442   0.39254   0.61424   0.00000  Uiso   1.00
C280   C     0.48088   0.36831   0.62695   0.00000  Uiso   1.00
C281   C     0.62453   0.35366   0.66604   0.00000  Uiso   1.00
C282   C     0.19685   0.29010   0.56266   0.00000  Uiso   1.00
C283   C     0.12323   0.28571   0.60834   0.00000  Uiso   1.00
C284   C     0.08567   0.21262   0.61835   0.00000  Uiso   1.00
C285   C     0.00055   0.10788   0.65243   0.00000  Uiso   1.00
C286   C     0.24768   0.37030   0.46024   0.00000  Uiso   1.00
C287   C     0.21677   0.43333   0.41980   0.00000  Uiso   1.00
C288   C     0.22198   0.42775   0.34358   0.00000  Uiso   1.00
C289   C     0.21578   0.44752   0.21863   0.00000  Uiso   1.00
C290   C     0.31243   0.24205   0.48062   0.00000  Uiso   1.00
C291   C     0.37903   0.28187   0.53139   0.00000  Uiso   1.00
C292   C     0.46544   0.25756   0.54403   0.00000  Uiso   1.00
C293   C     0.51582   0.30192   0.59242   0.00000  Uiso   1.00
C294   C     0.23171   0.22384   0.52820   0.00000  Uiso   1.00
C295   C     0.19425   0.15074   0.53813   0.00000  Uiso   1.00
C296   C     0.12059   0.14624   0.58382   0.00000  Uiso   1.00
C297   C     0.28254   0.30403   0.42577   0.00000  Uiso   1.00
C298   C     0.28779   0.29835   0.34959   0.00000  Uiso   1.00
C299   C     0.25690   0.36136   0.30904   0.00000  Uiso   1.00
H300   H     0.22109   0.41564   0.57092   0.00000  Uiso   1.00
H301   H     0.36742   0.44381   0.64091   0.00000  Uiso   1.00
H302   H     0.09626   0.33700   0.63500   0.00000  Uiso   1.00
H303   H     0.18979   0.48460   0.44649   0.00000  Uiso   1.00
H304   H     0.54501   0.44582   0.70333   0.00000  Uiso   1.00
H305   H     0.97324   0.22061   0.69085   0.00000  Uiso   1.00
H306   H     0.17047   0.53183   0.29335   0.00000  Uiso   1.00
H307   H     0.33957   0.19046   0.45379   0.00000  Uiso   1.00
H308   H     0.49241   0.20628   0.51735   0.00000  Uiso   1.00
H309   H     0.22124   0.09947   0.51145   0.00000  Uiso   1.00
H310   H     0.31478   0.24706   0.32294   0.00000  Uiso   1.00
H311   H     0.64645   0.25302   0.60304   0.00000  Uiso   1.00
H312   H     0.07468   0.02781   0.59057   0.00000  Uiso   1.00
H313   H     0.27191   0.33904   0.19306   0.00000  Uiso   1.00
O314   O     0.69412   0.36388   0.69713   0.00000  Uiso   1.00
O315   O     0.94398   0.06842   0.68076   0.00000  Uiso   1.00
O316   O     0.20274   0.47674   0.15924   0.00000  Uiso   1.00
N317   N     0.54792   0.39828   0.67099   0.00000  Uiso   1.00
N318   N     0.01336   0.18772   0.65934   0.00000  Uiso   1.00
N319   N     0.19772   0.47868   0.28770   0.00000  Uiso   1.00
N320   N     0.60250   0.29454   0.61703   0.00000  Uiso   1.00
N321   N     0.06794   0.08398   0.60538   0.00000  Uiso   1.00
N322   N     0.25231   0.37494   0.23374   0.00000  Uiso   1.00
C323   C     0.25176   0.13595   0.04408   0.00000  Uiso   1.00
C324   C     0.15583   0.15186   0.06586   0.00000  Uiso   1.00
C325   C     0.10558   0.10746   0.11424   0.00000  Uiso   1.00
C326   C     0.01912   0.13169   0.12695   0.00000  Uiso   1.00
C327   C     0.87547   0.14634   0.16604   0.00000  Uiso   1.00
C328   C     0.30315   0.20990   0.06266   0.00000  Uiso   1.00
C329   C     0.37677   0.21429   0.10834   0.00000  Uiso   1.00
C330   C     0.41433   0.28738   0.11835   0.00000  Uiso   1.00
C331   C     0.49945   0.39212   0.15243   0.00000  Uiso   1.00
C332   C     0.25232   0.12970   0.96024   0.00000  Uiso   1.00
C333   C     0.28323   0.06667   0.91980   0.00000  Uiso   1.00
C334   C     0.27802   0.07225   0.84358   0.00000  Uiso   1.00
C335   C     0.28422   0.05248   0.71863   0.00000  Uiso   1.00
C336   C     0.18757   0.25795   0.98062   0.00000  Uiso   1.00
C337   C     0.12097   0.21813   0.03139   0.00000  Uiso   1.00
C338   C     0.03456   0.24244   0.04403   0.00000  Uiso   1.00
C339   C     0.98418   0.19808   0.09242   0.00000  Uiso   1.00
C340   C     0.26829   0.27616   0.02820   0.00000  Uiso   1.00
C341   C     0.30575   0.34926   0.03813   0.00000  Uiso   1.00
C342   C     0.37941   0.35376   0.08382   0.00000  Uiso   1.00
C343   C     0.21746   0.19597   0.92577   0.00000  Uiso   1.00
C344   C     0.21221   0.20165   0.84959   0.00000  Uiso   1.00
C345   C     0.24310   0.13864   0.80904   0.00000  Uiso   1.00
H346   H     0.27891   0.08436   0.07092   0.00000  Uiso   1.00
H347   H     0.13258   0.05619   0.14091   0.00000  Uiso   1.00
H348   H     0.40374   0.16300   0.13500   0.00000  Uiso   1.00
H349   H     0.31021   0.01540   0.94649   0.00000  Uiso   1.00
H350   H     0.95499   0.05418   0.20333   0.00000  Uiso   1.00
H351   H     0.52676   0.27939   0.19085   0.00000  Uiso   1.00
H352   H     0.32953   0.96817   0.79335   0.00000  Uiso   1.00
H353   H     0.16043   0.30954   0.95379   0.00000  Uiso   1.00
H354   H     0.00759   0.29372   0.01735   0.00000  Uiso   1.00
H355   H     0.27876   0.40053   0.01145   0.00000  Uiso   1.00
H356   H     0.18522   0.25294   0.82294   0.00000  Uiso   1.00
H357   H     0.85355   0.24698   0.10304   0.00000  Uiso   1.00
H358   H     0.42532   0.47219   0.09057   0.00000  Uiso   1.00
H359   H     0.22809   0.16096   0.69306   0.00000  Uiso   1.00
O360   O     0.80588   0.13612   0.19713   0.00000  Uiso   1.00
O361   O     0.55602   0.43158   0.18076   0.00000  Uiso   1.00
O362   O     0.29726   0.02326   0.65924   0.00000  Uiso   1.00
N363   N     0.95208   0.10172   0.17099   0.00000  Uiso   1.00
N364   N     0.48664   0.31228   0.15934   0.00000  Uiso   1.00
N365   N     0.30228   0.02132   0.78770   0.00000  Uiso   1.00
N366   N     0.89750   0.20546   0.11703   0.00000  Uiso   1.00
N367   N     0.43206   0.41602   0.10538   0.00000  Uiso   1.00
N368   N     0.24769   0.12506   0.73374   0.00000  Uiso   1.00
