data_job_06673
_audit_creation_date              2018-12-19
_audit_creation_method            'Materials Studio'
_symmetry_space_group_name_H-M    'P1'
_symmetry_Int_Tables_number       1
_symmetry_cell_setting            triclinic
loop_
_symmetry_equiv_pos_as_xyz
  x,y,z
_cell_length_a                    17.1916
_cell_length_b                    21.5493
_cell_length_c                    23.5306
_cell_angle_alpha                 115.5128
_cell_angle_beta                  73.5165
_cell_angle_gamma                 98.9826
loop_
_atom_site_label
_atom_site_type_symbol
_atom_site_fract_x
_atom_site_fract_y
_atom_site_fract_z
_atom_site_U_iso_or_equiv
_atom_site_adp_type
_atom_site_occupancy
C1     C     0.33523   0.98351   0.69703   0.00000  Uiso   1.00
C2     C     0.24734   0.96280   0.72117   0.00000  Uiso   1.00
C3     C     0.21442   0.95750   0.78008   0.00000  Uiso   1.00
C4     C     0.13275   0.93778   0.79316   0.00000  Uiso   1.00
C5     C     0.00344   0.90771   0.83737   0.00000  Uiso   1.00
C6     C     0.36734   0.92495   0.63170   0.00000  Uiso   1.00
C7     C     0.43533   0.88783   0.61538   0.00000  Uiso   1.00
C8     C     0.45468   0.83625   0.55313   0.00000  Uiso   1.00
C9     C     0.51171   0.74744   0.45842   0.00000  Uiso   1.00
C10    C     0.33172   0.04524   0.68235   0.00000  Uiso   1.00
C11    C     0.36977   0.10925   0.70860   0.00000  Uiso   1.00
C12    C     0.35915   0.15895   0.68899   0.00000  Uiso   1.00
C13    C     0.36087   0.25692   0.67292   0.00000  Uiso   1.00
C14    C     0.24872   0.95793   0.61551   0.00000  Uiso   1.00
C15    C     0.20035   0.94891   0.67689   0.00000  Uiso   1.00
C16    C     0.11871   0.92920   0.68988   0.00000  Uiso   1.00
C17    C     0.08568   0.92387   0.74880   0.00000  Uiso   1.00
C18    C     0.32036   0.91105   0.58742   0.00000  Uiso   1.00
C19    C     0.33962   0.85953   0.52518   0.00000  Uiso   1.00
C20    C     0.40761   0.82233   0.50877   0.00000  Uiso   1.00
C21    C     0.28473   0.03135   0.63807   0.00000  Uiso   1.00
C22    C     0.27405   0.08095   0.61841   0.00000  Uiso   1.00
C23    C     0.31208   0.14503   0.64463   0.00000  Uiso   1.00
H24    H     0.37181   0.99432   0.73150   0.00000  Uiso   1.00
H25    H     0.25081   0.96825   0.81434   0.00000  Uiso   1.00
H26    H     0.47168   0.89859   0.64965   0.00000  Uiso   1.00
H27    H     0.40613   0.11999   0.74287   0.00000  Uiso   1.00
H28    H     0.09594   0.93319   0.88663   0.00000  Uiso   1.00
H29    H     0.56168   0.78633   0.53939   0.00000  Uiso   1.00
H30    H     0.42345   0.25319   0.73595   0.00000  Uiso   1.00
H31    H     0.21214   0.94711   0.58103   0.00000  Uiso   1.00
H32    H     0.08236   0.91845   0.65561   0.00000  Uiso   1.00
H33    H     0.30324   0.84879   0.49093   0.00000  Uiso   1.00
H34    H     0.23769   0.07018   0.58414   0.00000  Uiso   1.00
H35    H     0.95922   0.89277   0.75780   0.00000  Uiso   1.00
H36    H     0.42497   0.74591   0.41055   0.00000  Uiso   1.00
H37    H     0.28674   0.21276   0.60712   0.00000  Uiso   1.00
O38    O     0.94510   0.89496   0.87398   0.00000  Uiso   1.00
O39    O     0.55615   0.70229   0.41841   0.00000  Uiso   1.00
O40    O     0.37479   0.31479   0.67629   0.00000  Uiso   1.00
N41    N     0.08157   0.92763   0.84608   0.00000  Uiso   1.00
N42    N     0.51700   0.79031   0.52143   0.00000  Uiso   1.00
N43    N     0.38779   0.22678   0.70519   0.00000  Uiso   1.00
N44    N     0.00800   0.90588   0.77676   0.00000  Uiso   1.00
N45    N     0.44344   0.76856   0.45211   0.00000  Uiso   1.00
N46    N     0.31422   0.20503   0.63587   0.00000  Uiso   1.00
C47    C     0.92682   0.06676   0.11103   0.00000  Uiso   1.00
C48    C     0.84421   0.04601   0.14516   0.00000  Uiso   1.00
C49    C     0.78073   0.01243   0.11632   0.00000  Uiso   1.00
C50    C     0.71007   0.99800   0.15585   0.00000  Uiso   1.00
C51    C     0.58284   0.96300   0.19882   0.00000  Uiso   1.00
C52    C     0.93797   0.14413   0.14869   0.00000  Uiso   1.00
C53    C     0.95332   0.19303   0.12280   0.00000  Uiso   1.00
C54    C     0.96159   0.26119   0.16529   0.00000  Uiso   1.00
C55    C     0.97996   0.37851   0.21372   0.00000  Uiso   1.00
C56    C     0.98962   0.03351   0.12249   0.00000  Uiso   1.00
C57    C     0.04843   0.98943   0.07459   0.00000  Uiso   1.00
C58    C     0.10020   0.96447   0.09503   0.00000  Uiso   1.00
C59    C     0.19878   0.91005   0.10280   0.00000  Uiso   1.00
C60    C     0.91420   0.10085   0.23252   0.00000  Uiso   1.00
C61    C     0.83736   0.06453   0.21115   0.00000  Uiso   1.00
C62    C     0.76678   0.05015   0.25073   0.00000  Uiso   1.00
C63    C     0.70320   0.01655   0.22195   0.00000  Uiso   1.00
C64    C     0.93111   0.16265   0.21467   0.00000  Uiso   1.00
C65    C     0.93936   0.23075   0.25721   0.00000  Uiso   1.00
C66    C     0.95472   0.27975   0.23140   0.00000  Uiso   1.00
C67    C     0.98277   0.05203   0.18848   0.00000  Uiso   1.00
C68    C     0.03447   0.02715   0.20900   0.00000  Uiso   1.00
C69    C     0.09334   0.98303   0.16114   0.00000  Uiso   1.00
H70    H     0.93215   0.05235   0.05966   0.00000  Uiso   1.00
H71    H     0.78606   0.99811   0.06525   0.00000  Uiso   1.00
H72    H     0.95863   0.17868   0.07173   0.00000  Uiso   1.00
H73    H     0.05372   0.97511   0.02353   0.00000  Uiso   1.00
H74    H     0.62105   0.94617   0.10056   0.00000  Uiso   1.00
H75    H     0.98495   0.32691   0.11422   0.00000  Uiso   1.00
H76    H     0.18547   0.89764   0.01257   0.00000  Uiso   1.00
H77    H     0.90887   0.11527   0.28389   0.00000  Uiso   1.00
H78    H     0.76149   0.06449   0.30180   0.00000  Uiso   1.00
H79    H     0.93406   0.24506   0.30827   0.00000  Uiso   1.00
H80    H     0.02915   0.04149   0.26007   0.00000  Uiso   1.00
H81    H     0.60111   0.00005   0.29255   0.00000  Uiso   1.00
H82    H     0.96502   0.38079   0.30621   0.00000  Uiso   1.00
H83    H     0.16553   0.95152   0.20456   0.00000  Uiso   1.00
O84    O     0.51454   0.93858   0.20429   0.00000  Uiso   1.00
O85    O     0.99198   0.43810   0.22220   0.00000  Uiso   1.00
O86    O     0.25505   0.87490   0.08885   0.00000  Uiso   1.00
N87    N     0.63659   0.96581   0.14329   0.00000  Uiso   1.00
N88    N     0.97680   0.32178   0.15606   0.00000  Uiso   1.00
N89    N     0.16428   0.92046   0.06103   0.00000  Uiso   1.00
N90    N     0.62586   0.99480   0.24660   0.00000  Uiso   1.00
N91    N     0.96607   0.35077   0.25936   0.00000  Uiso   1.00
N92    N     0.15355   0.94945   0.16434   0.00000  Uiso   1.00
C93    C     0.87630   0.59075   0.86957   0.00000  Uiso   1.00
C94    C     0.83314   0.63800   0.85631   0.00000  Uiso   1.00
C95    C     0.85445   0.70658   0.86852   0.00000  Uiso   1.00
C96    C     0.80731   0.74095   0.85298   0.00000  Uiso   1.00
C97    C     0.75032   0.81935   0.83649   0.00000  Uiso   1.00
C98    C     0.81159   0.56344   0.91364   0.00000  Uiso   1.00
C99    C     0.81479   0.56933   0.97404   0.00000  Uiso   1.00
C100   C     0.74951   0.54093   0.00676   0.00000  Uiso   1.00
C101   C     0.65909   0.50355   0.07925   0.00000  Uiso   1.00
C102   C     0.90082   0.52907   0.80500   0.00000  Uiso   1.00
C103   C     0.97904   0.50604   0.77406   0.00000  Uiso   1.00
C104   C     0.98888   0.44868   0.71532   0.00000  Uiso   1.00
C105   C     0.03700   0.35792   0.61912   0.00000  Uiso   1.00
C106   C     0.75469   0.52983   0.82027   0.00000  Uiso   1.00
C107   C     0.76709   0.60490   0.82953   0.00000  Uiso   1.00
C108   C     0.71990   0.63917   0.81396   0.00000  Uiso   1.00
C109   C     0.74114   0.70780   0.82615   0.00000  Uiso   1.00
C110   C     0.74554   0.53035   0.88686   0.00000  Uiso   1.00
C111   C     0.68024   0.50193   0.91949   0.00000  Uiso   1.00
C112   C     0.68334   0.50778   0.97993   0.00000  Uiso   1.00
C113   C     0.83477   0.49597   0.77821   0.00000  Uiso   1.00
C114   C     0.84449   0.43864   0.71951   0.00000  Uiso   1.00
C115   C     0.92271   0.41553   0.68849   0.00000  Uiso   1.00
H116   H     0.92772   0.61651   0.89043   0.00000  Uiso   1.00
H117   H     0.90557   0.73217   0.88925   0.00000  Uiso   1.00
H118   H     0.86591   0.59494   0.99475   0.00000  Uiso   1.00
H119   H     0.03014   0.53166   0.79480   0.00000  Uiso   1.00
H120   H     0.85186   0.84581   0.87616   0.00000  Uiso   1.00
H121   H     0.76826   0.55644   0.09860   0.00000  Uiso   1.00
H122   H     0.11456   0.42299   0.67697   0.00000  Uiso   1.00
H123   H     0.70326   0.50406   0.79942   0.00000  Uiso   1.00
H124   H     0.66879   0.61355   0.79324   0.00000  Uiso   1.00
H125   H     0.62914   0.47632   0.89875   0.00000  Uiso   1.00
H126   H     0.79336   0.41304   0.69880   0.00000  Uiso   1.00
H127   H     0.65968   0.74954   0.79823   0.00000  Uiso   1.00
H128   H     0.57609   0.46016   0.02068   0.00000  Uiso   1.00
H129   H     0.92238   0.32672   0.59905   0.00000  Uiso   1.00
O130   O     0.73713   0.87174   0.83480   0.00000  Uiso   1.00
O131   O     0.62746   0.49207   0.12663   0.00000  Uiso   1.00
O132   O     0.08180   0.31701   0.57346   0.00000  Uiso   1.00
N133   N     0.81137   0.80813   0.85865   0.00000  Uiso   1.00
N134   N     0.73321   0.53758   0.06663   0.00000  Uiso   1.00
N135   N     0.05696   0.41282   0.67245   0.00000  Uiso   1.00
N136   N     0.70796   0.75632   0.81672   0.00000  Uiso   1.00
N137   N     0.62980   0.48578   0.02470   0.00000  Uiso   1.00
N138   N     0.95355   0.36101   0.63052   0.00000  Uiso   1.00
C139   C     0.39820   0.58245   0.78550   0.00000  Uiso   1.00
C140   C     0.33774   0.63923   0.81352   0.00000  Uiso   1.00
C141   C     0.35619   0.70591   0.81783   0.00000  Uiso   1.00
C142   C     0.29230   0.75016   0.84502   0.00000  Uiso   1.00
C143   C     0.21051   0.84162   0.88514   0.00000  Uiso   1.00
C144   C     0.36627   0.52265   0.73188   0.00000  Uiso   1.00
C145   C     0.40871   0.49130   0.66755   0.00000  Uiso   1.00
C146   C     0.36883   0.43740   0.62602   0.00000  Uiso   1.00
C147   C     0.33135   0.34782   0.53941   0.00000  Uiso   1.00
C148   C     0.39035   0.55807   0.83892   0.00000  Uiso   1.00
C149   C     0.45304   0.55648   0.86459   0.00000  Uiso   1.00
C150   C     0.43345   0.53239   0.91317   0.00000  Uiso   1.00
C151   C     0.43336   0.49781   0.99275   0.00000  Uiso   1.00
C152   C     0.25194   0.54246   0.82611   0.00000  Uiso   1.00
C153   C     0.25830   0.61751   0.83558   0.00000  Uiso   1.00
C154   C     0.19437   0.66167   0.86277   0.00000  Uiso   1.00
C155   C     0.21272   0.72841   0.86712   0.00000  Uiso   1.00
C156   C     0.28683   0.50093   0.75394   0.00000  Uiso   1.00
C157   C     0.24688   0.44706   0.71249   0.00000  Uiso   1.00
C158   C     0.28925   0.41564   0.64812   0.00000  Uiso   1.00
C159   C     0.31091   0.53635   0.86099   0.00000  Uiso   1.00
C160   C     0.29122   0.51225   0.90953   0.00000  Uiso   1.00
C161   C     0.35387   0.51063   0.93527   0.00000  Uiso   1.00
H162   H     0.46005   0.59936   0.76832   0.00000  Uiso   1.00
H163   H     0.41768   0.72270   0.80074   0.00000  Uiso   1.00
H164   H     0.47019   0.50811   0.65049   0.00000  Uiso   1.00
H165   H     0.51451   0.57329   0.84750   0.00000  Uiso   1.00
H166   H     0.33566   0.84986   0.84641   0.00000  Uiso   1.00
H167   H     0.44639   0.39738   0.52960   0.00000  Uiso   1.00
H168   H     0.53987   0.53482   0.94502   0.00000  Uiso   1.00
H169   H     0.19008   0.52555   0.84329   0.00000  Uiso   1.00
H170   H     0.13289   0.64485   0.87984   0.00000  Uiso   1.00
H171   H     0.18541   0.43026   0.72958   0.00000  Uiso   1.00
H172   H     0.22973   0.49544   0.92659   0.00000  Uiso   1.00
H173   H     0.10452   0.78667   0.91060   0.00000  Uiso   1.00
H174   H     0.21525   0.33419   0.59379   0.00000  Uiso   1.00
H175   H     0.30873   0.47164   0.00922   0.00000  Uiso   1.00
O176   O     0.18733   0.89807   0.90117   0.00000  Uiso   1.00
O177   O     0.33262   0.30442   0.48554   0.00000  Uiso   1.00
O178   O     0.45525   0.48475   0.03056   0.00000  Uiso   1.00
N179   N     0.28911   0.81862   0.85651   0.00000  Uiso   1.00
N180   N     0.39263   0.39558   0.56031   0.00000  Uiso   1.00
N181   N     0.48003   0.52407   0.94869   0.00000  Uiso   1.00
N182   N     0.16474   0.78462   0.89105   0.00000  Uiso   1.00
N183   N     0.26826   0.36158   0.59485   0.00000  Uiso   1.00
N184   N     0.35566   0.49007   0.98323   0.00000  Uiso   1.00
C185   C     0.41982   0.12466   0.19744   0.00000  Uiso   1.00
C186   C     0.39604   0.08762   0.13276   0.00000  Uiso   1.00
C187   C     0.44762   0.05112   0.07336   0.00000  Uiso   1.00
C188   C     0.41418   0.02093   0.01985   0.00000  Uiso   1.00
C189   C     0.38973   0.96245   0.91854   0.00000  Uiso   1.00
C190   C     0.36304   0.09486   0.24314   0.00000  Uiso   1.00
C191   C     0.38687   0.06446   0.27657   0.00000  Uiso   1.00
C192   C     0.32565   0.04037   0.31599   0.00000  Uiso   1.00
C193   C     0.24996   0.99318   0.38610   0.00000  Uiso   1.00
C194   C     0.39682   0.19924   0.22367   0.00000  Uiso   1.00
C195   C     0.44906   0.25660   0.24074   0.00000  Uiso   1.00
C196   C     0.41628   0.32039   0.26378   0.00000  Uiso   1.00
C197   C     0.39305   0.43526   0.30365   0.00000  Uiso   1.00
C198   C     0.26871   0.13595   0.20802   0.00000  Uiso   1.00
C199   C     0.31396   0.09375   0.13851   0.00000  Uiso   1.00
C200   C     0.28043   0.06361   0.08507   0.00000  Uiso   1.00
C201   C     0.33196   0.02707   0.02560   0.00000  Uiso   1.00
C202   C     0.28096   0.10099   0.24889   0.00000  Uiso   1.00
C203   C     0.21969   0.07695   0.28828   0.00000  Uiso   1.00
C204   C     0.24342   0.04651   0.32175   0.00000  Uiso   1.00
C205   C     0.31475   0.20537   0.22942   0.00000  Uiso   1.00
C206   C     0.28188   0.26909   0.25244   0.00000  Uiso   1.00
C207   C     0.33405   0.32653   0.26954   0.00000  Uiso   1.00
H208   H     0.48372   0.11989   0.19297   0.00000  Uiso   1.00
H209   H     0.51113   0.04638   0.06893   0.00000  Uiso   1.00
H210   H     0.45039   0.05973   0.27211   0.00000  Uiso   1.00
H211   H     0.51257   0.25183   0.23628   0.00000  Uiso   1.00
H212   H     0.50532   0.96757   0.93395   0.00000  Uiso   1.00
H213   H     0.37725   0.99573   0.36239   0.00000  Uiso   1.00
H214   H     0.50837   0.40082   0.28684   0.00000  Uiso   1.00
H215   H     0.20481   0.14073   0.21250   0.00000  Uiso   1.00
H216   H     0.21692   0.06836   0.08953   0.00000  Uiso   1.00
H217   H     0.15618   0.08171   0.29272   0.00000  Uiso   1.00
H218   H     0.21836   0.27381   0.25689   0.00000  Uiso   1.00
H219   H     0.26653   0.98541   0.95068   0.00000  Uiso   1.00
H220   H     0.13845   0.01357   0.37912   0.00000  Uiso   1.00
H221   H     0.26957   0.41866   0.30357   0.00000  Uiso   1.00
O222   O     0.39892   0.92849   0.86108   0.00000  Uiso   1.00
O223   O     0.23089   0.96545   0.42318   0.00000  Uiso   1.00
O224   O     0.40292   0.49692   0.32405   0.00000  Uiso   1.00
N225   N     0.44747   0.98171   0.95476   0.00000  Uiso   1.00
N226   N     0.32772   0.00803   0.35532   0.00000  Uiso   1.00
N227   N     0.45030   0.38676   0.28470   0.00000  Uiso   1.00
N228   N     0.31897   0.99131   0.96376   0.00000  Uiso   1.00
N229   N     0.19923   0.01763   0.36432   0.00000  Uiso   1.00
N230   N     0.32181   0.39636   0.29370   0.00000  Uiso   1.00
C231   C     0.87510   0.91438   0.56701   0.00000  Uiso   1.00
C232   C     0.79752   0.87218   0.57981   0.00000  Uiso   1.00
C233   C     0.74721   0.88163   0.64037   0.00000  Uiso   1.00
C234   C     0.67909   0.83769   0.64182   0.00000  Uiso   1.00
C235   C     0.56122   0.78003   0.67038   0.00000  Uiso   1.00
C236   C     0.86394   0.94306   0.52095   0.00000  Uiso   1.00
C237   C     0.86949   0.01209   0.53201   0.00000  Uiso   1.00
C238   C     0.85730   0.02782   0.48390   0.00000  Uiso   1.00
C239   C     0.84260   0.08019   0.42105   0.00000  Uiso   1.00
C240   C     0.94224   0.86291   0.52822   0.00000  Uiso   1.00
C241   C     0.01363   0.86457   0.54539   0.00000  Uiso   1.00
C242   C     0.06737   0.81283   0.50339   0.00000  Uiso   1.00
C243   C     0.17425   0.74076   0.45184   0.00000  Uiso   1.00
C244   C     0.84360   0.81955   0.46188   0.00000  Uiso   1.00
C245   C     0.78042   0.82068   0.52271   0.00000  Uiso   1.00
C246   C     0.71236   0.77672   0.52406   0.00000  Uiso   1.00
C247   C     0.66196   0.78609   0.58462   0.00000  Uiso   1.00
C248   C     0.84684   0.89156   0.46385   0.00000  Uiso   1.00
C249   C     0.83464   0.90718   0.41570   0.00000  Uiso   1.00
C250   C     0.84016   0.97622   0.42669   0.00000  Uiso   1.00
C251   C     0.92513   0.81141   0.47112   0.00000  Uiso   1.00
C252   C     0.97878   0.75966   0.42908   0.00000  Uiso   1.00
C253   C     0.05024   0.76123   0.44619   0.00000  Uiso   1.00
H254   H     0.88841   0.95448   0.61146   0.00000  Uiso   1.00
H255   H     0.76046   0.92149   0.68455   0.00000  Uiso   1.00
H256   H     0.88273   0.05194   0.57620   0.00000  Uiso   1.00
H257   H     0.02685   0.90443   0.58958   0.00000  Uiso   1.00
H258   H     0.61104   0.86223   0.74040   0.00000  Uiso   1.00
H259   H     0.86888   0.13727   0.51193   0.00000  Uiso   1.00
H260   H     0.17278   0.82624   0.54014   0.00000  Uiso   1.00
H261   H     0.83028   0.77946   0.41743   0.00000  Uiso   1.00
H262   H     0.69914   0.73686   0.47987   0.00000  Uiso   1.00
H263   H     0.82141   0.86731   0.37152   0.00000  Uiso   1.00
H264   H     0.96552   0.71981   0.38490   0.00000  Uiso   1.00
H265   H     0.56127   0.71238   0.57428   0.00000  Uiso   1.00
H266   H     0.81911   0.98743   0.34581   0.00000  Uiso   1.00
H267   H     0.12301   0.67639   0.37402   0.00000  Uiso   1.00
O268   O     0.50092   0.76246   0.70191   0.00000  Uiso   1.00
O269   O     0.83921   0.12331   0.40217   0.00000  Uiso   1.00
O270   O     0.23792   0.71524   0.43919   0.00000  Uiso   1.00
N271   N     0.61734   0.83280   0.69273   0.00000  Uiso   1.00
N272   N     0.85839   0.08995   0.47913   0.00000  Uiso   1.00
N273   N     0.14252   0.79917   0.50550   0.00000  Uiso   1.00
N274   N     0.59055   0.75217   0.60334   0.00000  Uiso   1.00
N275   N     0.83161   0.00932   0.38974   0.00000  Uiso   1.00
N276   N     0.11574   0.71854   0.41611   0.00000  Uiso   1.00
C277   C     0.56587   0.82823   0.27233   0.00000  Uiso   1.00
C278   C     0.64423   0.79913   0.22215   0.00000  Uiso   1.00
C279   C     0.67880   0.81317   0.16781   0.00000  Uiso   1.00
C280   C     0.75065   0.78147   0.12785   0.00000  Uiso   1.00
C281   C     0.86689   0.74304   0.04784   0.00000  Uiso   1.00
C282   C     0.58797   0.86363   0.33774   0.00000  Uiso   1.00
C283   C     0.57523   0.93190   0.38058   0.00000  Uiso   1.00
C284   C     0.59971   0.95449   0.43793   0.00000  Uiso   1.00
C285   C     0.62855   0.01618   0.53739   0.00000  Uiso   1.00
C286   C     0.51073   0.76623   0.27470   0.00000  Uiso   1.00
C287   C     0.43302   0.75261   0.26455   0.00000  Uiso   1.00
C288   C     0.39245   0.69320   0.26883   0.00000  Uiso   1.00
C289   C     0.30135   0.60366   0.27041   0.00000  Uiso   1.00
C290   C     0.63200   0.74696   0.29801   0.00000  Uiso   1.00
C291   C     0.68015   0.75500   0.23611   0.00000  Uiso   1.00
C292   C     0.75197   0.72326   0.19622   0.00000  Uiso   1.00
C293   C     0.78664   0.73725   0.14182   0.00000  Uiso   1.00
C294   C     0.62389   0.81950   0.35169   0.00000  Uiso   1.00
C295   C     0.64840   0.84199   0.40900   0.00000  Uiso   1.00
C296   C     0.63570   0.91027   0.45191   0.00000  Uiso   1.00
C297   C     0.54664   0.72209   0.28865   0.00000  Uiso   1.00
C298   C     0.50619   0.66270   0.29296   0.00000  Uiso   1.00
C299   C     0.42844   0.64899   0.28281   0.00000  Uiso   1.00
H300   H     0.53790   0.86259   0.26147   0.00000  Uiso   1.00
H301   H     0.65099   0.84734   0.15703   0.00000  Uiso   1.00
H302   H     0.54742   0.96604   0.36977   0.00000  Uiso   1.00
H303   H     0.40524   0.78678   0.25375   0.00000  Uiso   1.00
H304   H     0.79222   0.81098   0.04740   0.00000  Uiso   1.00
H305   H     0.57382   0.06127   0.49600   0.00000  Uiso   1.00
H306   H     0.27400   0.68326   0.25134   0.00000  Uiso   1.00
H307   H     0.65997   0.71260   0.30888   0.00000  Uiso   1.00
H308   H     0.77975   0.68911   0.20703   0.00000  Uiso   1.00
H309   H     0.67619   0.80782   0.41978   0.00000  Uiso   1.00
H310   H     0.53401   0.62855   0.30376   0.00000  Uiso   1.00
H311   H     0.89673   0.68255   0.08799   0.00000  Uiso   1.00
H312   H     0.67833   0.93285   0.53658   0.00000  Uiso   1.00
H313   H     0.37851   0.55483   0.29193   0.00000  Uiso   1.00
O314   O     0.92108   0.73404   0.99985   0.00000  Uiso   1.00
O315   O     0.63454   0.06241   0.58840   0.00000  Uiso   1.00
O316   O     0.24118   0.56646   0.26741   0.00000  Uiso   1.00
N317   N     0.80037   0.78396   0.07092   0.00000  Uiso   1.00
N318   N     0.59619   0.01798   0.49033   0.00000  Uiso   1.00
N319   N     0.31587   0.66458   0.26161   0.00000  Uiso   1.00
N320   N     0.85660   0.71486   0.09276   0.00000  Uiso   1.00
N321   N     0.65243   0.94887   0.51217   0.00000  Uiso   1.00
N322   N     0.37211   0.59547   0.28345   0.00000  Uiso   1.00
C323   C     0.95581   0.47155   0.50596   0.00000  Uiso   1.00
C324   C     0.99632   0.51699   0.56096   0.00000  Uiso   1.00
C325   C     0.95643   0.55286   0.62525   0.00000  Uiso   1.00
C326   C     0.00440   0.59153   0.66817   0.00000  Uiso   1.00
C327   C     0.05441   0.66164   0.75672   0.00000  Uiso   1.00
C328   C     0.99208   0.40101   0.47679   0.00000  Uiso   1.00
C329   C     0.94861   0.33937   0.47030   0.00000  Uiso   1.00
C330   C     0.99302   0.28041   0.44236   0.00000  Uiso   1.00
C331   C     0.03643   0.17045   0.40019   0.00000  Uiso   1.00
C332   C     0.98603   0.50002   0.45403   0.00000  Uiso   1.00
C333   C     0.93747   0.52161   0.42839   0.00000  Uiso   1.00
C334   C     0.97678   0.54599   0.38127   0.00000  Uiso   1.00
C335   C     0.01080   0.58977   0.30377   0.00000  Uiso   1.00
C336   C     0.11195   0.47644   0.46786   0.00000  Uiso   1.00
C337   C     0.08113   0.51964   0.54026   0.00000  Uiso   1.00
C338   C     0.12918   0.55827   0.58309   0.00000  Uiso   1.00
C339   C     0.08936   0.59419   0.64744   0.00000  Uiso   1.00
C340   C     0.07689   0.40366   0.45609   0.00000  Uiso   1.00
C341   C     0.12137   0.34477   0.42815   0.00000  Uiso   1.00
C342   C     0.07798   0.28306   0.42162   0.00000  Uiso   1.00
C343   C     0.07084   0.50267   0.43333   0.00000  Uiso   1.00
C344   C     0.11023   0.52702   0.38624   0.00000  Uiso   1.00
C345   C     0.06175   0.54865   0.36054   0.00000  Uiso   1.00
H346   H     0.88978   0.46948   0.52207   0.00000  Uiso   1.00
H347   H     0.89079   0.55079   0.64125   0.00000  Uiso   1.00
H348   H     0.88298   0.33733   0.48631   0.00000  Uiso   1.00
H349   H     0.87185   0.51955   0.44442   0.00000  Uiso   1.00
H350   H     0.92932   0.64208   0.76425   0.00000  Uiso   1.00
H351   H     0.91285   0.19198   0.43755   0.00000  Uiso   1.00
H352   H     0.88936   0.57623   0.34920   0.00000  Uiso   1.00
H353   H     0.17798   0.47851   0.45175   0.00000  Uiso   1.00
H354   H     0.19481   0.56031   0.56707   0.00000  Uiso   1.00
H355   H     0.18700   0.34685   0.41213   0.00000  Uiso   1.00
H356   H     0.17586   0.52907   0.37024   0.00000  Uiso   1.00
H357   H     0.17607   0.64981   0.70405   0.00000  Uiso   1.00
H358   H     0.15959   0.19971   0.37734   0.00000  Uiso   1.00
H359   H     0.13611   0.58395   0.28899   0.00000  Uiso   1.00
O360   O     0.05856   0.69957   0.81128   0.00000  Uiso   1.00
O361   O     0.03695   0.10907   0.38265   0.00000  Uiso   1.00
O362   O     0.00614   0.61319   0.26674   0.00000  Uiso   1.00
N363   N     0.98508   0.63268   0.73425   0.00000  Uiso   1.00
N364   N     0.96968   0.21187   0.42882   0.00000  Uiso   1.00
N365   N     0.94772   0.57109   0.34620   0.00000  Uiso   1.00
N366   N     0.11785   0.63684   0.70186   0.00000  Uiso   1.00
N367   N     0.10245   0.21603   0.39642   0.00000  Uiso   1.00
N368   N     0.08050   0.57525   0.31380   0.00000  Uiso   1.00
C369   C     0.74882   0.15169   0.87844   0.00000  Uiso   1.00
C370   C     0.82357   0.15077   0.90070   0.00000  Uiso   1.00
C371   C     0.85112   0.09376   0.90105   0.00000  Uiso   1.00
C372   C     0.92068   0.10351   0.92323   0.00000  Uiso   1.00
C373   C     0.03061   0.09226   0.95457   0.00000  Uiso   1.00
C374   C     0.77858   0.17889   0.82558   0.00000  Uiso   1.00
C375   C     0.76829   0.14553   0.76276   0.00000  Uiso   1.00
C376   C     0.79997   0.17897   0.72171   0.00000  Uiso   1.00
C377   C     0.84000   0.21140   0.63643   0.00000  Uiso   1.00
C378   C     0.69540   0.20677   0.93559   0.00000  Uiso   1.00
C379   C     0.61516   0.19685   0.96527   0.00000  Uiso   1.00
C380   C     0.57680   0.25377   0.01683   0.00000  Uiso   1.00
C381   C     0.48768   0.32948   0.10237   0.00000  Uiso   1.00
C382   C     0.82337   0.27040   0.91721   0.00000  Uiso   1.00
C383   C     0.86406   0.21524   0.92176   0.00000  Uiso   1.00
C384   C     0.93360   0.22509   0.94395   0.00000  Uiso   1.00
C385   C     0.96124   0.16811   0.94433   0.00000  Uiso   1.00
C386   C     0.81907   0.24336   0.84664   0.00000  Uiso   1.00
C387   C     0.85077   0.27686   0.80567   0.00000  Uiso   1.00
C388   C     0.84053   0.24356   0.74281   0.00000  Uiso   1.00
C389   C     0.73589   0.27124   0.95666   0.00000  Uiso   1.00
C390   C     0.69764   0.32819   0.00818   0.00000  Uiso   1.00
C391   C     0.61736   0.31836   0.03793   0.00000  Uiso   1.00
H392   H     0.71730   0.10150   0.86203   0.00000  Uiso   1.00
H393   H     0.81977   0.04387   0.88474   0.00000  Uiso   1.00
H394   H     0.73694   0.09564   0.74648   0.00000  Uiso   1.00
H395   H     0.58385   0.14695   0.94896   0.00000  Uiso   1.00
H396   H     0.95125   0.00840   0.91918   0.00000  Uiso   1.00
H397   H     0.77659   0.11758   0.62766   0.00000  Uiso   1.00
H398   H     0.45374   0.22578   0.05462   0.00000  Uiso   1.00
H399   H     0.85489   0.32060   0.93361   0.00000  Uiso   1.00
H400   H     0.96492   0.27499   0.96025   0.00000  Uiso   1.00
H401   H     0.88209   0.32676   0.82198   0.00000  Uiso   1.00
H402   H     0.72900   0.37807   0.02446   0.00000  Uiso   1.00
H403   H     0.06906   0.19599   0.98046   0.00000  Uiso   1.00
H404   H     0.89439   0.30516   0.68894   0.00000  Uiso   1.00
H405   H     0.57156   0.41337   0.11590   0.00000  Uiso   1.00
O406   O     0.08007   0.06824   0.96603   0.00000  Uiso   1.00
O407   O     0.85090   0.21147   0.58357   0.00000  Uiso   1.00
O408   O     0.42734   0.35343   0.14374   0.00000  Uiso   1.00
N409   N     0.96387   0.05882   0.92996   0.00000  Uiso   1.00
N410   N     0.80058   0.16088   0.65740   0.00000  Uiso   1.00
N411   N     0.49874   0.26205   0.05656   0.00000  Uiso   1.00
N412   N     0.02726   0.15975   0.96293   0.00000  Uiso   1.00
N413   N     0.86397   0.26182   0.69037   0.00000  Uiso   1.00
N414   N     0.56214   0.36298   0.08954   0.00000  Uiso   1.00
C415   C     0.24697   0.18760   0.92362   0.00000  Uiso   1.00
C416   C     0.33432   0.16465   0.89432   0.00000  Uiso   1.00
C417   C     0.35873   0.09751   0.86848   0.00000  Uiso   1.00
C418   C     0.44146   0.08717   0.84405   0.00000  Uiso   1.00
C419   C     0.56854   0.04320   0.79837   0.00000  Uiso   1.00
C420   C     0.24455   0.24164   0.99230   0.00000  Uiso   1.00
C421   C     0.19346   0.23924   0.04884   0.00000  Uiso   1.00
C422   C     0.20062   0.29371   0.10689   0.00000  Uiso   1.00
C423   C     0.18828   0.36930   0.21333   0.00000  Uiso   1.00
C424   C     0.23299   0.22572   0.88600   0.00000  Uiso   1.00
C425   C     0.17218   0.20994   0.85318   0.00000  Uiso   1.00
C426   C     0.16960   0.25102   0.82174   0.00000  Uiso   1.00
C427   C     0.13932   0.30188   0.76312   0.00000  Uiso   1.00
C428   C     0.35049   0.28861   0.92617   0.00000  Uiso   1.00
C429   C     0.39055   0.21952   0.89571   0.00000  Uiso   1.00
C430   C     0.47326   0.20927   0.87131   0.00000  Uiso   1.00
C431   C     0.49779   0.14213   0.84544   0.00000  Uiso   1.00
C432   C     0.30077   0.29651   0.99369   0.00000  Uiso   1.00
C433   C     0.30800   0.35100   0.05167   0.00000  Uiso   1.00
C434   C     0.25695   0.34868   0.10828   0.00000  Uiso   1.00
C435   C     0.28922   0.28059   0.88738   0.00000  Uiso   1.00
C436   C     0.28673   0.32170   0.85600   0.00000  Uiso   1.00
C437   C     0.22593   0.30599   0.82313   0.00000  Uiso   1.00
H438   H     0.20319   0.14488   0.92255   0.00000  Uiso   1.00
H439   H     0.31519   0.05507   0.86743   0.00000  Uiso   1.00
H440   H     0.14995   0.19678   0.04775   0.00000  Uiso   1.00
H441   H     0.12868   0.16748   0.85211   0.00000  Uiso   1.00
H442   H     0.46417   0.97969   0.80695   0.00000  Uiso   1.00
H443   H     0.11572   0.27850   0.18718   0.00000  Uiso   1.00
H444   H     0.07087   0.21673   0.77463   0.00000  Uiso   1.00
H445   H     0.39427   0.33133   0.92726   0.00000  Uiso   1.00
H446   H     0.51676   0.25174   0.87239   0.00000  Uiso   1.00
H447   H     0.35152   0.39345   0.05272   0.00000  Uiso   1.00
H448   H     0.33025   0.36416   0.85708   0.00000  Uiso   1.00
H449   H     0.62777   0.13932   0.81098   0.00000  Uiso   1.00
H450   H     0.27932   0.43813   0.19121   0.00000  Uiso   1.00
H451   H     0.23447   0.37636   0.77866   0.00000  Uiso   1.00
O452   O     0.62310   0.00379   0.77280   0.00000  Uiso   1.00
O453   O     0.16594   0.39582   0.27165   0.00000  Uiso   1.00
O454   O     0.10710   0.31478   0.73040   0.00000  Uiso   1.00
N455   N     0.48586   0.02818   0.81541   0.00000  Uiso   1.00
N456   N     0.16009   0.30754   0.17091   0.00000  Uiso   1.00
N457   N     0.11814   0.24980   0.78523   0.00000  Uiso   1.00
N458   N     0.57389   0.11407   0.81758   0.00000  Uiso   1.00
N459   N     0.24812   0.39344   0.17308   0.00000  Uiso   1.00
N460   N     0.20618   0.33570   0.78740   0.00000  Uiso   1.00
C461   C     0.57496   0.44960   0.42078   0.00000  Uiso   1.00
C462   C     0.59859   0.49457   0.48454   0.00000  Uiso   1.00
C463   C     0.55055   0.54319   0.53867   0.00000  Uiso   1.00
C464   C     0.58318   0.57904   0.59224   0.00000  Uiso   1.00
C465   C     0.60804   0.65078   0.69132   0.00000  Uiso   1.00
C466   C     0.64087   0.46318   0.36795   0.00000  Uiso   1.00
C467   C     0.62836   0.48540   0.32405   0.00000  Uiso   1.00
C468   C     0.69658   0.49481   0.27947   0.00000  Uiso   1.00
C469   C     0.78707   0.51777   0.19752   0.00000  Uiso   1.00
C470   C     0.58369   0.37543   0.40908   0.00000  Uiso   1.00
C471   C     0.52312   0.32385   0.39975   0.00000  Uiso   1.00
C472   C     0.54321   0.25938   0.38978   0.00000  Uiso   1.00
C473   C     0.54492   0.14609   0.37169   0.00000  Uiso   1.00
C474   C     0.71835   0.42681   0.41965   0.00000  Uiso   1.00
C475   C     0.67647   0.48220   0.48392   0.00000  Uiso   1.00
C476   C     0.70919   0.51798   0.53743   0.00000  Uiso   1.00
C477   C     0.66120   0.56663   0.59163   0.00000  Uiso   1.00
C478   C     0.71874   0.45081   0.36733   0.00000  Uiso   1.00
C479   C     0.78700   0.46019   0.32281   0.00000  Uiso   1.00
C480   C     0.77460   0.48241   0.27886   0.00000  Uiso   1.00
C481   C     0.66157   0.36305   0.40847   0.00000  Uiso   1.00
C482   C     0.68176   0.29864   0.39851   0.00000  Uiso   1.00
C483   C     0.62123   0.24698   0.38917   0.00000  Uiso   1.00
H484   H     0.51433   0.45924   0.42125   0.00000  Uiso   1.00
H485   H     0.49028   0.55276   0.53912   0.00000  Uiso   1.00
H486   H     0.56808   0.49496   0.32453   0.00000  Uiso   1.00
H487   H     0.46286   0.33345   0.40022   0.00000  Uiso   1.00
H488   H     0.49798   0.65100   0.66953   0.00000  Uiso   1.00
H489   H     0.66202   0.52912   0.21704   0.00000  Uiso   1.00
H490   H     0.44013   0.18853   0.37664   0.00000  Uiso   1.00
H491   H     0.77898   0.41718   0.41918   0.00000  Uiso   1.00
H492   H     0.76946   0.50839   0.53694   0.00000  Uiso   1.00
H493   H     0.84726   0.45060   0.32235   0.00000  Uiso   1.00
H494   H     0.74203   0.28908   0.39804   0.00000  Uiso   1.00
H495   H     0.72457   0.61499   0.66776   0.00000  Uiso   1.00
H496   H     0.88861   0.49311   0.21527   0.00000  Uiso   1.00
H497   H     0.66672   0.15252   0.37487   0.00000  Uiso   1.00
O498   O     0.60024   0.69377   0.74614   0.00000  Uiso   1.00
O499   O     0.81546   0.53386   0.15249   0.00000  Uiso   1.00
O500   O     0.52434   0.08702   0.36189   0.00000  Uiso   1.00
N501   N     0.55261   0.63000   0.65295   0.00000  Uiso   1.00
N502   N     0.70598   0.51606   0.22991   0.00000  Uiso   1.00
N503   N     0.49854   0.19763   0.37911   0.00000  Uiso   1.00
N504   N     0.67453   0.61062   0.65200   0.00000  Uiso   1.00
N505   N     0.82791   0.49668   0.22896   0.00000  Uiso   1.00
N506   N     0.62046   0.17826   0.37816   0.00000  Uiso   1.00
C507   C     0.15474   0.68468   0.04615   0.00000  Uiso   1.00
C508   C     0.24128   0.70870   0.05268   0.00000  Uiso   1.00
C509   C     0.30445   0.71967   0.00560   0.00000  Uiso   1.00
C510   C     0.37910   0.74161   0.02095   0.00000  Uiso   1.00
C511   C     0.51180   0.77726   0.02192   0.00000  Uiso   1.00
C512   C     0.13700   0.61968   0.05901   0.00000  Uiso   1.00
C513   C     0.11250   0.55583   0.01723   0.00000  Uiso   1.00
C514   C     0.09936   0.50284   0.03792   0.00000  Uiso   1.00
C515   C     0.07012   0.40031   0.04872   0.00000  Uiso   1.00
C516   C     0.09982   0.73897   0.10282   0.00000  Uiso   1.00
C517   C     0.04402   0.77539   0.09789   0.00000  Uiso   1.00
C518   C     0.99956   0.82282   0.15547   0.00000  Uiso   1.00
C519   C     0.91259   0.90550   0.23431   0.00000  Uiso   1.00
C520   C     0.17497   0.70412   0.15716   0.00000  Uiso   1.00
C521   C     0.25226   0.71925   0.11298   0.00000  Uiso   1.00
C522   C     0.32684   0.74118   0.12842   0.00000  Uiso   1.00
C523   C     0.39011   0.75219   0.08136   0.00000  Uiso   1.00
C524   C     0.14799   0.63024   0.11930   0.00000  Uiso   1.00
C525   C     0.13488   0.57734   0.14006   0.00000  Uiso   1.00
C526   C     0.11037   0.51341   0.09833   0.00000  Uiso   1.00
C527   C     0.11081   0.74953   0.16312   0.00000  Uiso   1.00
C528   C     0.06642   0.79690   0.22072   0.00000  Uiso   1.00
C529   C     0.01057   0.83340   0.21588   0.00000  Uiso   1.00
H530   H     0.14618   0.67645   0.99920   0.00000  Uiso   1.00
H531   H     0.29592   0.71149   0.95893   0.00000  Uiso   1.00
H532   H     0.10399   0.54767   0.97058   0.00000  Uiso   1.00
H533   H     0.03554   0.76721   0.05122   0.00000  Uiso   1.00
H534   H     0.46679   0.75496   0.94087   0.00000  Uiso   1.00
H535   H     0.06206   0.40955   0.96543   0.00000  Uiso   1.00
H536   H     0.91771   0.87248   0.13549   0.00000  Uiso   1.00
H537   H     0.18353   0.71234   0.20411   0.00000  Uiso   1.00
H538   H     0.33532   0.74935   0.17509   0.00000  Uiso   1.00
H539   H     0.14339   0.58553   0.18673   0.00000  Uiso   1.00
H540   H     0.07494   0.80506   0.26737   0.00000  Uiso   1.00
H541   H     0.49877   0.78569   0.11631   0.00000  Uiso   1.00
H542   H     0.09403   0.44028   0.14086   0.00000  Uiso   1.00
H543   H     0.94969   0.90321   0.31093   0.00000  Uiso   1.00
O544   O     0.58197   0.79400   0.00580   0.00000  Uiso   1.00
O545   O     0.05096   0.34084   0.03801   0.00000  Uiso   1.00
O546   O     0.86158   0.94820   0.26113   0.00000  Uiso   1.00
N547   N     0.45348   0.75713   0.98615   0.00000  Uiso   1.00
N548   N     0.07510   0.43419   0.00910   0.00000  Uiso   1.00
N549   N     0.94012   0.86698   0.16810   0.00000  Uiso   1.00
N550   N     0.47069   0.77366   0.08055   0.00000  Uiso   1.00
N551   N     0.09230   0.45072   0.10350   0.00000  Uiso   1.00
N552   N     0.95733   0.88351   0.26250   0.00000  Uiso   1.00
