data_job_02047
_audit_creation_date              2018-12-19
_audit_creation_method            'Materials Studio'
_symmetry_space_group_name_H-M    'P1'
_symmetry_Int_Tables_number       1
_symmetry_cell_setting            triclinic
loop_
_symmetry_equiv_pos_as_xyz
  x,y,z
_cell_length_a                    32.8805
_cell_length_b                    7.1271
_cell_length_c                    12.1632
_cell_angle_alpha                 90.0000
_cell_angle_beta                  93.9451
_cell_angle_gamma                 90.0000
loop_
_atom_site_label
_atom_site_type_symbol
_atom_site_fract_x
_atom_site_fract_y
_atom_site_fract_z
_atom_site_U_iso_or_equiv
_atom_site_adp_type
_atom_site_occupancy
C1     C     0.56616   0.87435   0.24075   0.00000  Uiso   1.00
C2     C     0.60560   0.80833   0.19418   0.00000  Uiso   1.00
C3     C     0.62953   0.91269   0.12713   0.00000  Uiso   1.00
C4     C     0.66447   0.82713   0.09313   0.00000  Uiso   1.00
C5     C     0.72409   0.75247   0.01591   0.00000  Uiso   1.00
C6     C     0.53373   0.73097   0.20295   0.00000  Uiso   1.00
C7     C     0.49722   0.77030   0.14328   0.00000  Uiso   1.00
C8     C     0.47165   0.61961   0.11668   0.00000  Uiso   1.00
C9     C     0.41967   0.42487   0.05314   0.00000  Uiso   1.00
C10    C     0.57250   0.85243   0.36546   0.00000  Uiso   1.00
C11    C     0.56858   0.99387   0.44244   0.00000  Uiso   1.00
C12    C     0.57564   0.94542   0.55267   0.00000  Uiso   1.00
C13    C     0.58387   0.93927   0.74145   0.00000  Uiso   1.00
C14    C     0.58565   0.53680   0.29962   0.00000  Uiso   1.00
C15    C     0.61619   0.62498   0.22616   0.00000  Uiso   1.00
C16    C     0.65109   0.53924   0.19226   0.00000  Uiso   1.00
C17    C     0.67507   0.64346   0.12517   0.00000  Uiso   1.00
C18    C     0.54431   0.54763   0.23492   0.00000  Uiso   1.00
C19    C     0.51878   0.39684   0.20841   0.00000  Uiso   1.00
C20    C     0.48225   0.43593   0.14871   0.00000  Uiso   1.00
C21    C     0.58308   0.66908   0.39744   0.00000  Uiso   1.00
C22    C     0.59015   0.62041   0.50757   0.00000  Uiso   1.00
C23    C     0.58625   0.76175   0.58470   0.00000  Uiso   1.00
H24    H     0.55792   0.01708   0.21585   0.00000  Uiso   1.00
H25    H     0.62133   0.05457   0.10239   0.00000  Uiso   1.00
H26    H     0.48904   0.91220   0.11855   0.00000  Uiso   1.00
H27    H     0.56039   0.13573   0.41766   0.00000  Uiso   1.00
H28    H     0.69630   0.01525   0.99066   0.00000  Uiso   1.00
H29    H     0.41734   0.71506   0.02477   0.00000  Uiso   1.00
H30    H     0.56781   0.18643   0.65551   0.00000  Uiso   1.00
H31    H     0.59389   0.39405   0.32452   0.00000  Uiso   1.00
H32    H     0.65928   0.39735   0.21702   0.00000  Uiso   1.00
H33    H     0.52698   0.25498   0.23318   0.00000  Uiso   1.00
H34    H     0.59834   0.47851   0.53229   0.00000  Uiso   1.00
H35    H     0.72709   0.48183   0.08369   0.00000  Uiso   1.00
H36    H     0.44814   0.18164   0.11781   0.00000  Uiso   1.00
H37    H     0.59861   0.65300   0.74854   0.00000  Uiso   1.00
O38    O     0.75405   0.76193   0.96447   0.00000  Uiso   1.00
O39    O     0.38808   0.36810   0.00924   0.00000  Uiso   1.00
O40    O     0.58548   0.98652   0.83675   0.00000  Uiso   1.00
N41    N     0.69457   0.88927   0.02733   0.00000  Uiso   1.00
N42    N     0.43377   0.60861   0.05921   0.00000  Uiso   1.00
N43    N     0.57443   0.04928   0.64889   0.00000  Uiso   1.00
N44    N     0.71115   0.60224   0.07739   0.00000  Uiso   1.00
N45    N     0.45035   0.32158   0.10926   0.00000  Uiso   1.00
N46    N     0.59101   0.76225   0.69895   0.00000  Uiso   1.00
C47    C     0.06616   0.37435   0.24075   0.00000  Uiso   1.00
C48    C     0.10560   0.30833   0.19418   0.00000  Uiso   1.00
C49    C     0.12953   0.41269   0.12713   0.00000  Uiso   1.00
C50    C     0.16447   0.32713   0.09313   0.00000  Uiso   1.00
C51    C     0.22409   0.25247   0.01591   0.00000  Uiso   1.00
C52    C     0.03373   0.23097   0.20295   0.00000  Uiso   1.00
C53    C     0.99722   0.27030   0.14328   0.00000  Uiso   1.00
C54    C     0.97165   0.11961   0.11668   0.00000  Uiso   1.00
C55    C     0.91967   0.92487   0.05314   0.00000  Uiso   1.00
C56    C     0.07250   0.35243   0.36546   0.00000  Uiso   1.00
C57    C     0.06858   0.49387   0.44244   0.00000  Uiso   1.00
C58    C     0.07564   0.44542   0.55267   0.00000  Uiso   1.00
C59    C     0.08387   0.43927   0.74145   0.00000  Uiso   1.00
C60    C     0.08565   0.03680   0.29962   0.00000  Uiso   1.00
C61    C     0.11619   0.12498   0.22616   0.00000  Uiso   1.00
C62    C     0.15109   0.03924   0.19226   0.00000  Uiso   1.00
C63    C     0.17507   0.14346   0.12517   0.00000  Uiso   1.00
C64    C     0.04431   0.04763   0.23492   0.00000  Uiso   1.00
C65    C     0.01878   0.89684   0.20841   0.00000  Uiso   1.00
C66    C     0.98225   0.93593   0.14871   0.00000  Uiso   1.00
C67    C     0.08308   0.16908   0.39744   0.00000  Uiso   1.00
C68    C     0.09015   0.12041   0.50757   0.00000  Uiso   1.00
C69    C     0.08625   0.26175   0.58470   0.00000  Uiso   1.00
H70    H     0.05792   0.51708   0.21585   0.00000  Uiso   1.00
H71    H     0.12133   0.55457   0.10239   0.00000  Uiso   1.00
H72    H     0.98904   0.41220   0.11855   0.00000  Uiso   1.00
H73    H     0.06039   0.63573   0.41766   0.00000  Uiso   1.00
H74    H     0.19630   0.51525   0.99066   0.00000  Uiso   1.00
H75    H     0.91734   0.21506   0.02477   0.00000  Uiso   1.00
H76    H     0.06781   0.68643   0.65551   0.00000  Uiso   1.00
H77    H     0.09389   0.89405   0.32452   0.00000  Uiso   1.00
H78    H     0.15928   0.89735   0.21702   0.00000  Uiso   1.00
H79    H     0.02698   0.75498   0.23318   0.00000  Uiso   1.00
H80    H     0.09834   0.97851   0.53229   0.00000  Uiso   1.00
H81    H     0.22709   0.98183   0.08369   0.00000  Uiso   1.00
H82    H     0.94814   0.68164   0.11781   0.00000  Uiso   1.00
H83    H     0.09861   0.15300   0.74854   0.00000  Uiso   1.00
O84    O     0.25405   0.26193   0.96447   0.00000  Uiso   1.00
O85    O     0.88808   0.86810   0.00924   0.00000  Uiso   1.00
O86    O     0.08548   0.48652   0.83675   0.00000  Uiso   1.00
N87    N     0.19457   0.38927   0.02733   0.00000  Uiso   1.00
N88    N     0.93377   0.10861   0.05921   0.00000  Uiso   1.00
N89    N     0.07443   0.54928   0.64889   0.00000  Uiso   1.00
N90    N     0.21115   0.10224   0.07739   0.00000  Uiso   1.00
N91    N     0.95035   0.82158   0.10926   0.00000  Uiso   1.00
N92    N     0.09101   0.26225   0.69895   0.00000  Uiso   1.00
C93    C     0.43384   0.87435   0.75925   0.00000  Uiso   1.00
C94    C     0.39440   0.80833   0.80582   0.00000  Uiso   1.00
C95    C     0.37047   0.91269   0.87287   0.00000  Uiso   1.00
C96    C     0.33553   0.82713   0.90687   0.00000  Uiso   1.00
C97    C     0.27591   0.75247   0.98409   0.00000  Uiso   1.00
C98    C     0.46627   0.73097   0.79705   0.00000  Uiso   1.00
C99    C     0.50278   0.77030   0.85672   0.00000  Uiso   1.00
C100   C     0.52835   0.61961   0.88332   0.00000  Uiso   1.00
C101   C     0.58033   0.42487   0.94686   0.00000  Uiso   1.00
C102   C     0.42750   0.85243   0.63454   0.00000  Uiso   1.00
C103   C     0.43142   0.99387   0.55756   0.00000  Uiso   1.00
C104   C     0.42436   0.94542   0.44733   0.00000  Uiso   1.00
C105   C     0.41613   0.93927   0.25855   0.00000  Uiso   1.00
C106   C     0.41435   0.53680   0.70038   0.00000  Uiso   1.00
C107   C     0.38381   0.62498   0.77384   0.00000  Uiso   1.00
C108   C     0.34891   0.53924   0.80774   0.00000  Uiso   1.00
C109   C     0.32493   0.64346   0.87483   0.00000  Uiso   1.00
C110   C     0.45569   0.54763   0.76508   0.00000  Uiso   1.00
C111   C     0.48122   0.39684   0.79159   0.00000  Uiso   1.00
C112   C     0.51775   0.43593   0.85129   0.00000  Uiso   1.00
C113   C     0.41692   0.66908   0.60256   0.00000  Uiso   1.00
C114   C     0.40985   0.62041   0.49243   0.00000  Uiso   1.00
C115   C     0.41375   0.76175   0.41530   0.00000  Uiso   1.00
H116   H     0.44208   0.01708   0.78415   0.00000  Uiso   1.00
H117   H     0.37867   0.05457   0.89761   0.00000  Uiso   1.00
H118   H     0.51096   0.91220   0.88145   0.00000  Uiso   1.00
H119   H     0.43961   0.13573   0.58234   0.00000  Uiso   1.00
H120   H     0.30370   0.01525   0.00934   0.00000  Uiso   1.00
H121   H     0.58266   0.71506   0.97523   0.00000  Uiso   1.00
H122   H     0.43219   0.18643   0.34449   0.00000  Uiso   1.00
H123   H     0.40611   0.39405   0.67548   0.00000  Uiso   1.00
H124   H     0.34072   0.39735   0.78298   0.00000  Uiso   1.00
H125   H     0.47302   0.25498   0.76682   0.00000  Uiso   1.00
H126   H     0.40166   0.47851   0.46771   0.00000  Uiso   1.00
H127   H     0.27291   0.48183   0.91631   0.00000  Uiso   1.00
H128   H     0.55186   0.18164   0.88219   0.00000  Uiso   1.00
H129   H     0.40139   0.65300   0.25146   0.00000  Uiso   1.00
O130   O     0.24595   0.76193   0.03553   0.00000  Uiso   1.00
O131   O     0.61192   0.36810   0.99076   0.00000  Uiso   1.00
O132   O     0.41452   0.98652   0.16325   0.00000  Uiso   1.00
N133   N     0.30543   0.88927   0.97267   0.00000  Uiso   1.00
N134   N     0.56623   0.60861   0.94079   0.00000  Uiso   1.00
N135   N     0.42557   0.04928   0.35111   0.00000  Uiso   1.00
N136   N     0.28885   0.60224   0.92261   0.00000  Uiso   1.00
N137   N     0.54965   0.32158   0.89074   0.00000  Uiso   1.00
N138   N     0.40899   0.76225   0.30105   0.00000  Uiso   1.00
C139   C     0.93384   0.37435   0.75925   0.00000  Uiso   1.00
C140   C     0.89440   0.30833   0.80582   0.00000  Uiso   1.00
C141   C     0.87047   0.41269   0.87287   0.00000  Uiso   1.00
C142   C     0.83553   0.32713   0.90687   0.00000  Uiso   1.00
C143   C     0.77591   0.25247   0.98409   0.00000  Uiso   1.00
C144   C     0.96627   0.23097   0.79705   0.00000  Uiso   1.00
C145   C     0.00278   0.27030   0.85672   0.00000  Uiso   1.00
C146   C     0.02835   0.11961   0.88332   0.00000  Uiso   1.00
C147   C     0.08033   0.92487   0.94686   0.00000  Uiso   1.00
C148   C     0.92750   0.35243   0.63454   0.00000  Uiso   1.00
C149   C     0.93142   0.49387   0.55756   0.00000  Uiso   1.00
C150   C     0.92436   0.44542   0.44733   0.00000  Uiso   1.00
C151   C     0.91613   0.43927   0.25855   0.00000  Uiso   1.00
C152   C     0.91435   0.03680   0.70038   0.00000  Uiso   1.00
C153   C     0.88381   0.12498   0.77384   0.00000  Uiso   1.00
C154   C     0.84891   0.03924   0.80774   0.00000  Uiso   1.00
C155   C     0.82493   0.14346   0.87483   0.00000  Uiso   1.00
C156   C     0.95569   0.04763   0.76508   0.00000  Uiso   1.00
C157   C     0.98122   0.89684   0.79159   0.00000  Uiso   1.00
C158   C     0.01775   0.93593   0.85129   0.00000  Uiso   1.00
C159   C     0.91692   0.16908   0.60256   0.00000  Uiso   1.00
C160   C     0.90985   0.12041   0.49243   0.00000  Uiso   1.00
C161   C     0.91375   0.26175   0.41530   0.00000  Uiso   1.00
H162   H     0.94208   0.51708   0.78415   0.00000  Uiso   1.00
H163   H     0.87867   0.55457   0.89761   0.00000  Uiso   1.00
H164   H     0.01096   0.41220   0.88145   0.00000  Uiso   1.00
H165   H     0.93961   0.63573   0.58234   0.00000  Uiso   1.00
H166   H     0.80370   0.51525   0.00934   0.00000  Uiso   1.00
H167   H     0.08266   0.21506   0.97523   0.00000  Uiso   1.00
H168   H     0.93219   0.68643   0.34449   0.00000  Uiso   1.00
H169   H     0.90611   0.89405   0.67548   0.00000  Uiso   1.00
H170   H     0.84072   0.89735   0.78298   0.00000  Uiso   1.00
H171   H     0.97302   0.75498   0.76682   0.00000  Uiso   1.00
H172   H     0.90166   0.97851   0.46771   0.00000  Uiso   1.00
H173   H     0.77291   0.98183   0.91631   0.00000  Uiso   1.00
H174   H     0.05186   0.68164   0.88219   0.00000  Uiso   1.00
H175   H     0.90139   0.15300   0.25146   0.00000  Uiso   1.00
O176   O     0.74595   0.26193   0.03553   0.00000  Uiso   1.00
O177   O     0.11192   0.86810   0.99076   0.00000  Uiso   1.00
O178   O     0.91452   0.48652   0.16325   0.00000  Uiso   1.00
N179   N     0.80543   0.38927   0.97267   0.00000  Uiso   1.00
N180   N     0.06623   0.10861   0.94079   0.00000  Uiso   1.00
N181   N     0.92557   0.54928   0.35111   0.00000  Uiso   1.00
N182   N     0.78885   0.10224   0.92261   0.00000  Uiso   1.00
N183   N     0.04965   0.82158   0.89074   0.00000  Uiso   1.00
N184   N     0.90899   0.26225   0.30105   0.00000  Uiso   1.00
