data_job_05257
_audit_creation_date              2018-12-19
_audit_creation_method            'Materials Studio'
_symmetry_space_group_name_H-M    'P1'
_symmetry_Int_Tables_number       1
_symmetry_cell_setting            triclinic
loop_
_symmetry_equiv_pos_as_xyz
  x,y,z
_cell_length_a                    15.7321
_cell_length_b                    15.7321
_cell_length_c                    19.0249
_cell_angle_alpha                 90.0000
_cell_angle_beta                  90.0000
_cell_angle_gamma                 90.0000
loop_
_atom_site_label
_atom_site_type_symbol
_atom_site_fract_x
_atom_site_fract_y
_atom_site_fract_z
_atom_site_U_iso_or_equiv
_atom_site_adp_type
_atom_site_occupancy
C1     C     0.91910   0.23847   0.02000   0.00000  Uiso   1.00
C2     C     0.95679   0.20177   0.95268   0.00000  Uiso   1.00
C3     C     0.03802   0.16851   0.94546   0.00000  Uiso   1.00
C4     C     0.06047   0.13807   0.87952   0.00000  Uiso   1.00
C5     C     0.12764   0.08070   0.78359   0.00000  Uiso   1.00
C6     C     0.89107   0.32867   0.00200   0.00000  Uiso   1.00
C7     C     0.91703   0.40211   0.03626   0.00000  Uiso   1.00
C8     C     0.88415   0.47850   0.01184   0.00000  Uiso   1.00
C9     C     0.84924   0.61814   0.99252   0.00000  Uiso   1.00
C10    C     0.83777   0.18848   0.03388   0.00000  Uiso   1.00
C11    C     0.81892   0.14405   0.09494   0.00000  Uiso   1.00
C12    C     0.74115   0.10243   0.09737   0.00000  Uiso   1.00
C13    C     0.62350   0.02440   0.12755   0.00000  Uiso   1.00
C14    C     0.81451   0.24357   0.91575   0.00000  Uiso   1.00
C15    C     0.89998   0.20454   0.89606   0.00000  Uiso   1.00
C16    C     0.92230   0.17415   0.83011   0.00000  Uiso   1.00
C17    C     0.00356   0.14084   0.82279   0.00000  Uiso   1.00
C18    C     0.83426   0.33145   0.94538   0.00000  Uiso   1.00
C19    C     0.80132   0.40775   0.92092   0.00000  Uiso   1.00
C20    C     0.82723   0.48127   0.95512   0.00000  Uiso   1.00
C21    C     0.78096   0.19125   0.97726   0.00000  Uiso   1.00
C22    C     0.70321   0.14969   0.97960   0.00000  Uiso   1.00
C23    C     0.68424   0.10520   0.04065   0.00000  Uiso   1.00
H24    H     0.96333   0.23632   0.06409   0.00000  Uiso   1.00
H25    H     0.08197   0.16638   0.98929   0.00000  Uiso   1.00
H26    H     0.96099   0.39994   0.08008   0.00000  Uiso   1.00
H27    H     0.86290   0.14193   0.13875   0.00000  Uiso   1.00
H28    H     0.18846   0.09009   0.88138   0.00000  Uiso   1.00
H29    H     0.93336   0.58256   0.07283   0.00000  Uiso   1.00
H30    H     0.72650   0.03848   0.19656   0.00000  Uiso   1.00
H31    H     0.77028   0.24573   0.87167   0.00000  Uiso   1.00
H32    H     0.87833   0.17630   0.78630   0.00000  Uiso   1.00
H33    H     0.75736   0.40986   0.87710   0.00000  Uiso   1.00
H34    H     0.65926   0.15185   0.93577   0.00000  Uiso   1.00
H35    H     0.02318   0.09814   0.71663   0.00000  Uiso   1.00
H36    H     0.76807   0.59062   0.90809   0.00000  Uiso   1.00
H37    H     0.56122   0.04654   0.03181   0.00000  Uiso   1.00
O38    O     0.18039   0.04830   0.74632   0.00000  Uiso   1.00
O39    O     0.84569   0.69440   0.99751   0.00000  Uiso   1.00
O40    O     0.57430   0.98058   0.15983   0.00000  Uiso   1.00
N41    N     0.13473   0.10150   0.85432   0.00000  Uiso   1.00
N42    N     0.89623   0.56193   0.03332   0.00000  Uiso   1.00
N43    N     0.70283   0.05328   0.14900   0.00000  Uiso   1.00
N44    N     0.04579   0.10583   0.76567   0.00000  Uiso   1.00
N45    N     0.80730   0.56626   0.94466   0.00000  Uiso   1.00
N46    N     0.61389   0.05761   0.06034   0.00000  Uiso   1.00
C47    C     0.08090   0.76153   0.52000   0.00000  Uiso   1.00
C48    C     0.04321   0.79823   0.45268   0.00000  Uiso   1.00
C49    C     0.96198   0.83149   0.44546   0.00000  Uiso   1.00
C50    C     0.93953   0.86193   0.37952   0.00000  Uiso   1.00
C51    C     0.87236   0.91930   0.28359   0.00000  Uiso   1.00
C52    C     0.10893   0.67133   0.50200   0.00000  Uiso   1.00
C53    C     0.08297   0.59789   0.53626   0.00000  Uiso   1.00
C54    C     0.11585   0.52150   0.51184   0.00000  Uiso   1.00
C55    C     0.15076   0.38186   0.49252   0.00000  Uiso   1.00
C56    C     0.16223   0.81152   0.53388   0.00000  Uiso   1.00
C57    C     0.18108   0.85595   0.59494   0.00000  Uiso   1.00
C58    C     0.25885   0.89757   0.59737   0.00000  Uiso   1.00
C59    C     0.37650   0.97560   0.62755   0.00000  Uiso   1.00
C60    C     0.18549   0.75643   0.41575   0.00000  Uiso   1.00
C61    C     0.10002   0.79546   0.39606   0.00000  Uiso   1.00
C62    C     0.07770   0.82585   0.33011   0.00000  Uiso   1.00
C63    C     0.99644   0.85916   0.32279   0.00000  Uiso   1.00
C64    C     0.16574   0.66855   0.44538   0.00000  Uiso   1.00
C65    C     0.19868   0.59225   0.42092   0.00000  Uiso   1.00
C66    C     0.17277   0.51873   0.45512   0.00000  Uiso   1.00
C67    C     0.21904   0.80875   0.47726   0.00000  Uiso   1.00
C68    C     0.29679   0.85031   0.47960   0.00000  Uiso   1.00
C69    C     0.31576   0.89480   0.54065   0.00000  Uiso   1.00
H70    H     0.03667   0.76368   0.56409   0.00000  Uiso   1.00
H71    H     0.91803   0.83362   0.48929   0.00000  Uiso   1.00
H72    H     0.03901   0.60006   0.58008   0.00000  Uiso   1.00
H73    H     0.13710   0.85807   0.63875   0.00000  Uiso   1.00
H74    H     0.81154   0.90991   0.38138   0.00000  Uiso   1.00
H75    H     0.06664   0.41744   0.57283   0.00000  Uiso   1.00
H76    H     0.27350   0.96152   0.69656   0.00000  Uiso   1.00
H77    H     0.22972   0.75427   0.37167   0.00000  Uiso   1.00
H78    H     0.12167   0.82370   0.28630   0.00000  Uiso   1.00
H79    H     0.24264   0.59014   0.37710   0.00000  Uiso   1.00
H80    H     0.34074   0.84815   0.43577   0.00000  Uiso   1.00
H81    H     0.97682   0.90186   0.21663   0.00000  Uiso   1.00
H82    H     0.23193   0.40938   0.40809   0.00000  Uiso   1.00
H83    H     0.43878   0.95346   0.53181   0.00000  Uiso   1.00
O84    O     0.81961   0.95170   0.24632   0.00000  Uiso   1.00
O85    O     0.15431   0.30560   0.49751   0.00000  Uiso   1.00
O86    O     0.42570   0.01942   0.65983   0.00000  Uiso   1.00
N87    N     0.86527   0.89850   0.35432   0.00000  Uiso   1.00
N88    N     0.10377   0.43807   0.53332   0.00000  Uiso   1.00
N89    N     0.29717   0.94672   0.64900   0.00000  Uiso   1.00
N90    N     0.95421   0.89417   0.26567   0.00000  Uiso   1.00
N91    N     0.19270   0.43374   0.44466   0.00000  Uiso   1.00
N92    N     0.38611   0.94239   0.56034   0.00000  Uiso   1.00
C93    C     0.26153   0.41910   0.77000   0.00000  Uiso   1.00
C94    C     0.29823   0.45679   0.70268   0.00000  Uiso   1.00
C95    C     0.33149   0.53802   0.69546   0.00000  Uiso   1.00
C96    C     0.36193   0.56047   0.62952   0.00000  Uiso   1.00
C97    C     0.41930   0.62764   0.53359   0.00000  Uiso   1.00
C98    C     0.17133   0.39107   0.75200   0.00000  Uiso   1.00
C99    C     0.09789   0.41703   0.78626   0.00000  Uiso   1.00
C100   C     0.02150   0.38415   0.76184   0.00000  Uiso   1.00
C101   C     0.88186   0.34924   0.74252   0.00000  Uiso   1.00
C102   C     0.31152   0.33777   0.78388   0.00000  Uiso   1.00
C103   C     0.35595   0.31892   0.84494   0.00000  Uiso   1.00
C104   C     0.39757   0.24115   0.84737   0.00000  Uiso   1.00
C105   C     0.47560   0.12350   0.87755   0.00000  Uiso   1.00
C106   C     0.25643   0.31451   0.66575   0.00000  Uiso   1.00
C107   C     0.29546   0.39998   0.64606   0.00000  Uiso   1.00
C108   C     0.32585   0.42230   0.58011   0.00000  Uiso   1.00
C109   C     0.35916   0.50356   0.57279   0.00000  Uiso   1.00
C110   C     0.16855   0.33426   0.69538   0.00000  Uiso   1.00
C111   C     0.09225   0.30132   0.67092   0.00000  Uiso   1.00
C112   C     0.01873   0.32723   0.70512   0.00000  Uiso   1.00
C113   C     0.30875   0.28096   0.72726   0.00000  Uiso   1.00
C114   C     0.35031   0.20321   0.72960   0.00000  Uiso   1.00
C115   C     0.39480   0.18424   0.79065   0.00000  Uiso   1.00
H116   H     0.26368   0.46333   0.81409   0.00000  Uiso   1.00
H117   H     0.33362   0.58197   0.73929   0.00000  Uiso   1.00
H118   H     0.10006   0.46099   0.83008   0.00000  Uiso   1.00
H119   H     0.35807   0.36290   0.88875   0.00000  Uiso   1.00
H120   H     0.40991   0.68846   0.63138   0.00000  Uiso   1.00
H121   H     0.91744   0.43336   0.82283   0.00000  Uiso   1.00
H122   H     0.46152   0.22650   0.94656   0.00000  Uiso   1.00
H123   H     0.25427   0.27028   0.62167   0.00000  Uiso   1.00
H124   H     0.32370   0.37833   0.53630   0.00000  Uiso   1.00
H125   H     0.09014   0.25736   0.62710   0.00000  Uiso   1.00
H126   H     0.34815   0.15926   0.68577   0.00000  Uiso   1.00
H127   H     0.40186   0.52318   0.46663   0.00000  Uiso   1.00
H128   H     0.90938   0.26807   0.65809   0.00000  Uiso   1.00
H129   H     0.45346   0.06122   0.78181   0.00000  Uiso   1.00
O130   O     0.45170   0.68039   0.49632   0.00000  Uiso   1.00
O131   O     0.80560   0.34569   0.74751   0.00000  Uiso   1.00
O132   O     0.51942   0.07430   0.90983   0.00000  Uiso   1.00
N133   N     0.39850   0.63473   0.60432   0.00000  Uiso   1.00
N134   N     0.93807   0.39623   0.78332   0.00000  Uiso   1.00
N135   N     0.44672   0.20283   0.89900   0.00000  Uiso   1.00
N136   N     0.39417   0.54579   0.51567   0.00000  Uiso   1.00
N137   N     0.93374   0.30730   0.69466   0.00000  Uiso   1.00
N138   N     0.44239   0.11389   0.81034   0.00000  Uiso   1.00
C139   C     0.73847   0.58090   0.27000   0.00000  Uiso   1.00
C140   C     0.70177   0.54321   0.20268   0.00000  Uiso   1.00
C141   C     0.66851   0.46198   0.19546   0.00000  Uiso   1.00
C142   C     0.63807   0.43953   0.12952   0.00000  Uiso   1.00
C143   C     0.58070   0.37236   0.03359   0.00000  Uiso   1.00
C144   C     0.82867   0.60893   0.25200   0.00000  Uiso   1.00
C145   C     0.90211   0.58297   0.28626   0.00000  Uiso   1.00
C146   C     0.97850   0.61585   0.26184   0.00000  Uiso   1.00
C147   C     0.11814   0.65076   0.24252   0.00000  Uiso   1.00
C148   C     0.68848   0.66223   0.28388   0.00000  Uiso   1.00
C149   C     0.64405   0.68108   0.34494   0.00000  Uiso   1.00
C150   C     0.60243   0.75885   0.34737   0.00000  Uiso   1.00
C151   C     0.52440   0.87650   0.37755   0.00000  Uiso   1.00
C152   C     0.74357   0.68549   0.16575   0.00000  Uiso   1.00
C153   C     0.70454   0.60002   0.14606   0.00000  Uiso   1.00
C154   C     0.67415   0.57770   0.08011   0.00000  Uiso   1.00
C155   C     0.64084   0.49644   0.07279   0.00000  Uiso   1.00
C156   C     0.83145   0.66574   0.19538   0.00000  Uiso   1.00
C157   C     0.90775   0.69868   0.17092   0.00000  Uiso   1.00
C158   C     0.98127   0.67277   0.20512   0.00000  Uiso   1.00
C159   C     0.69125   0.71904   0.22726   0.00000  Uiso   1.00
C160   C     0.64969   0.79679   0.22960   0.00000  Uiso   1.00
C161   C     0.60520   0.81576   0.29065   0.00000  Uiso   1.00
H162   H     0.73632   0.53667   0.31409   0.00000  Uiso   1.00
H163   H     0.66638   0.41803   0.23929   0.00000  Uiso   1.00
H164   H     0.89994   0.53901   0.33008   0.00000  Uiso   1.00
H165   H     0.64193   0.63710   0.38875   0.00000  Uiso   1.00
H166   H     0.59009   0.31154   0.13138   0.00000  Uiso   1.00
H167   H     0.08256   0.56664   0.32283   0.00000  Uiso   1.00
H168   H     0.53848   0.77350   0.44656   0.00000  Uiso   1.00
H169   H     0.74573   0.72972   0.12167   0.00000  Uiso   1.00
H170   H     0.67630   0.62167   0.03630   0.00000  Uiso   1.00
H171   H     0.90986   0.74264   0.12710   0.00000  Uiso   1.00
H172   H     0.65185   0.84074   0.18577   0.00000  Uiso   1.00
H173   H     0.59814   0.47682   0.96663   0.00000  Uiso   1.00
H174   H     0.09062   0.73193   0.15809   0.00000  Uiso   1.00
H175   H     0.54654   0.93878   0.28181   0.00000  Uiso   1.00
O176   O     0.54830   0.31961   0.99632   0.00000  Uiso   1.00
O177   O     0.19440   0.65431   0.24751   0.00000  Uiso   1.00
O178   O     0.48058   0.92570   0.40983   0.00000  Uiso   1.00
N179   N     0.60150   0.36527   0.10432   0.00000  Uiso   1.00
N180   N     0.06193   0.60377   0.28332   0.00000  Uiso   1.00
N181   N     0.55328   0.79717   0.39900   0.00000  Uiso   1.00
N182   N     0.60583   0.45421   0.01567   0.00000  Uiso   1.00
N183   N     0.06626   0.69270   0.19466   0.00000  Uiso   1.00
N184   N     0.55761   0.88611   0.31034   0.00000  Uiso   1.00
C185   C     0.58090   0.73847   0.73000   0.00000  Uiso   1.00
C186   C     0.54321   0.70177   0.79732   0.00000  Uiso   1.00
C187   C     0.46198   0.66851   0.80454   0.00000  Uiso   1.00
C188   C     0.43953   0.63807   0.87048   0.00000  Uiso   1.00
C189   C     0.37236   0.58070   0.96641   0.00000  Uiso   1.00
C190   C     0.60893   0.82867   0.74800   0.00000  Uiso   1.00
C191   C     0.58297   0.90211   0.71374   0.00000  Uiso   1.00
C192   C     0.61585   0.97850   0.73816   0.00000  Uiso   1.00
C193   C     0.65076   0.11814   0.75748   0.00000  Uiso   1.00
C194   C     0.66223   0.68848   0.71612   0.00000  Uiso   1.00
C195   C     0.68108   0.64405   0.65506   0.00000  Uiso   1.00
C196   C     0.75885   0.60243   0.65263   0.00000  Uiso   1.00
C197   C     0.87650   0.52440   0.62245   0.00000  Uiso   1.00
C198   C     0.68549   0.74357   0.83425   0.00000  Uiso   1.00
C199   C     0.60002   0.70454   0.85394   0.00000  Uiso   1.00
C200   C     0.57770   0.67415   0.91989   0.00000  Uiso   1.00
C201   C     0.49644   0.64084   0.92721   0.00000  Uiso   1.00
C202   C     0.66574   0.83145   0.80462   0.00000  Uiso   1.00
C203   C     0.69868   0.90775   0.82908   0.00000  Uiso   1.00
C204   C     0.67277   0.98127   0.79488   0.00000  Uiso   1.00
C205   C     0.71904   0.69125   0.77274   0.00000  Uiso   1.00
C206   C     0.79679   0.64969   0.77040   0.00000  Uiso   1.00
C207   C     0.81576   0.60520   0.70935   0.00000  Uiso   1.00
H208   H     0.53667   0.73632   0.68591   0.00000  Uiso   1.00
H209   H     0.41803   0.66638   0.76071   0.00000  Uiso   1.00
H210   H     0.53901   0.89994   0.66992   0.00000  Uiso   1.00
H211   H     0.63710   0.64193   0.61125   0.00000  Uiso   1.00
H212   H     0.31154   0.59009   0.86862   0.00000  Uiso   1.00
H213   H     0.56664   0.08256   0.67717   0.00000  Uiso   1.00
H214   H     0.77350   0.53848   0.55344   0.00000  Uiso   1.00
H215   H     0.72972   0.74573   0.87833   0.00000  Uiso   1.00
H216   H     0.62167   0.67630   0.96370   0.00000  Uiso   1.00
H217   H     0.74264   0.90986   0.87290   0.00000  Uiso   1.00
H218   H     0.84074   0.65185   0.81423   0.00000  Uiso   1.00
H219   H     0.47682   0.59814   0.03337   0.00000  Uiso   1.00
H220   H     0.73193   0.09062   0.84191   0.00000  Uiso   1.00
H221   H     0.93878   0.54654   0.71819   0.00000  Uiso   1.00
O222   O     0.31961   0.54830   0.00368   0.00000  Uiso   1.00
O223   O     0.65431   0.19440   0.75249   0.00000  Uiso   1.00
O224   O     0.92570   0.48058   0.59017   0.00000  Uiso   1.00
N225   N     0.36527   0.60150   0.89568   0.00000  Uiso   1.00
N226   N     0.60377   0.06193   0.71668   0.00000  Uiso   1.00
N227   N     0.79717   0.55328   0.60100   0.00000  Uiso   1.00
N228   N     0.45421   0.60583   0.98433   0.00000  Uiso   1.00
N229   N     0.69270   0.06626   0.80534   0.00000  Uiso   1.00
N230   N     0.88611   0.55761   0.68966   0.00000  Uiso   1.00
C231   C     0.41910   0.26153   0.23000   0.00000  Uiso   1.00
C232   C     0.45679   0.29823   0.29732   0.00000  Uiso   1.00
C233   C     0.53802   0.33149   0.30454   0.00000  Uiso   1.00
C234   C     0.56047   0.36193   0.37048   0.00000  Uiso   1.00
C235   C     0.62764   0.41930   0.46641   0.00000  Uiso   1.00
C236   C     0.39107   0.17133   0.24800   0.00000  Uiso   1.00
C237   C     0.41703   0.09789   0.21374   0.00000  Uiso   1.00
C238   C     0.38415   0.02150   0.23816   0.00000  Uiso   1.00
C239   C     0.34924   0.88186   0.25748   0.00000  Uiso   1.00
C240   C     0.33777   0.31152   0.21612   0.00000  Uiso   1.00
C241   C     0.31892   0.35595   0.15506   0.00000  Uiso   1.00
C242   C     0.24115   0.39757   0.15263   0.00000  Uiso   1.00
C243   C     0.12350   0.47560   0.12245   0.00000  Uiso   1.00
C244   C     0.31451   0.25643   0.33425   0.00000  Uiso   1.00
C245   C     0.39998   0.29546   0.35394   0.00000  Uiso   1.00
C246   C     0.42230   0.32585   0.41989   0.00000  Uiso   1.00
C247   C     0.50356   0.35916   0.42721   0.00000  Uiso   1.00
C248   C     0.33426   0.16855   0.30462   0.00000  Uiso   1.00
C249   C     0.30132   0.09225   0.32908   0.00000  Uiso   1.00
C250   C     0.32723   0.01873   0.29488   0.00000  Uiso   1.00
C251   C     0.28096   0.30875   0.27274   0.00000  Uiso   1.00
C252   C     0.20321   0.35031   0.27040   0.00000  Uiso   1.00
C253   C     0.18424   0.39480   0.20935   0.00000  Uiso   1.00
H254   H     0.46333   0.26368   0.18591   0.00000  Uiso   1.00
H255   H     0.58197   0.33362   0.26071   0.00000  Uiso   1.00
H256   H     0.46099   0.10006   0.16992   0.00000  Uiso   1.00
H257   H     0.36290   0.35807   0.11125   0.00000  Uiso   1.00
H258   H     0.68846   0.40991   0.36862   0.00000  Uiso   1.00
H259   H     0.43336   0.91744   0.17717   0.00000  Uiso   1.00
H260   H     0.22650   0.46152   0.05344   0.00000  Uiso   1.00
H261   H     0.27028   0.25427   0.37833   0.00000  Uiso   1.00
H262   H     0.37833   0.32370   0.46370   0.00000  Uiso   1.00
H263   H     0.25736   0.09014   0.37290   0.00000  Uiso   1.00
H264   H     0.15926   0.34815   0.31423   0.00000  Uiso   1.00
H265   H     0.52318   0.40186   0.53337   0.00000  Uiso   1.00
H266   H     0.26807   0.90938   0.34191   0.00000  Uiso   1.00
H267   H     0.06122   0.45346   0.21819   0.00000  Uiso   1.00
O268   O     0.68039   0.45170   0.50368   0.00000  Uiso   1.00
O269   O     0.34569   0.80560   0.25249   0.00000  Uiso   1.00
O270   O     0.07430   0.51942   0.09017   0.00000  Uiso   1.00
N271   N     0.63473   0.39850   0.39568   0.00000  Uiso   1.00
N272   N     0.39623   0.93807   0.21668   0.00000  Uiso   1.00
N273   N     0.20283   0.44672   0.10100   0.00000  Uiso   1.00
N274   N     0.54579   0.39417   0.48433   0.00000  Uiso   1.00
N275   N     0.30730   0.93374   0.30534   0.00000  Uiso   1.00
N276   N     0.11389   0.44239   0.18966   0.00000  Uiso   1.00
C277   C     0.23847   0.91910   0.98000   0.00000  Uiso   1.00
C278   C     0.20177   0.95679   0.04732   0.00000  Uiso   1.00
C279   C     0.16851   0.03802   0.05454   0.00000  Uiso   1.00
C280   C     0.13807   0.06047   0.12048   0.00000  Uiso   1.00
C281   C     0.08070   0.12764   0.21641   0.00000  Uiso   1.00
C282   C     0.32867   0.89107   0.99800   0.00000  Uiso   1.00
C283   C     0.40211   0.91703   0.96374   0.00000  Uiso   1.00
C284   C     0.47850   0.88415   0.98816   0.00000  Uiso   1.00
C285   C     0.61814   0.84924   0.00748   0.00000  Uiso   1.00
C286   C     0.18848   0.83777   0.96612   0.00000  Uiso   1.00
C287   C     0.14405   0.81892   0.90506   0.00000  Uiso   1.00
C288   C     0.10243   0.74115   0.90263   0.00000  Uiso   1.00
C289   C     0.02440   0.62350   0.87245   0.00000  Uiso   1.00
C290   C     0.24357   0.81451   0.08425   0.00000  Uiso   1.00
C291   C     0.20454   0.89998   0.10394   0.00000  Uiso   1.00
C292   C     0.17415   0.92230   0.16989   0.00000  Uiso   1.00
C293   C     0.14084   0.00356   0.17721   0.00000  Uiso   1.00
C294   C     0.33145   0.83426   0.05462   0.00000  Uiso   1.00
C295   C     0.40775   0.80132   0.07908   0.00000  Uiso   1.00
C296   C     0.48127   0.82723   0.04488   0.00000  Uiso   1.00
C297   C     0.19125   0.78096   0.02274   0.00000  Uiso   1.00
C298   C     0.14969   0.70321   0.02040   0.00000  Uiso   1.00
C299   C     0.10520   0.68424   0.95935   0.00000  Uiso   1.00
H300   H     0.23632   0.96333   0.93591   0.00000  Uiso   1.00
H301   H     0.16638   0.08197   0.01071   0.00000  Uiso   1.00
H302   H     0.39994   0.96099   0.91992   0.00000  Uiso   1.00
H303   H     0.14193   0.86290   0.86125   0.00000  Uiso   1.00
H304   H     0.09009   0.18846   0.11862   0.00000  Uiso   1.00
H305   H     0.58256   0.93336   0.92717   0.00000  Uiso   1.00
H306   H     0.03848   0.72650   0.80344   0.00000  Uiso   1.00
H307   H     0.24573   0.77028   0.12833   0.00000  Uiso   1.00
H308   H     0.17630   0.87833   0.21370   0.00000  Uiso   1.00
H309   H     0.40986   0.75736   0.12290   0.00000  Uiso   1.00
H310   H     0.15185   0.65926   0.06423   0.00000  Uiso   1.00
H311   H     0.09814   0.02318   0.28337   0.00000  Uiso   1.00
H312   H     0.59062   0.76807   0.09191   0.00000  Uiso   1.00
H313   H     0.04654   0.56122   0.96819   0.00000  Uiso   1.00
O314   O     0.04830   0.18039   0.25368   0.00000  Uiso   1.00
O315   O     0.69440   0.84569   0.00249   0.00000  Uiso   1.00
O316   O     0.98058   0.57430   0.84017   0.00000  Uiso   1.00
N317   N     0.10150   0.13473   0.14568   0.00000  Uiso   1.00
N318   N     0.56193   0.89623   0.96668   0.00000  Uiso   1.00
N319   N     0.05328   0.70283   0.85100   0.00000  Uiso   1.00
N320   N     0.10583   0.04579   0.23433   0.00000  Uiso   1.00
N321   N     0.56626   0.80730   0.05534   0.00000  Uiso   1.00
N322   N     0.05761   0.61389   0.93966   0.00000  Uiso   1.00
C323   C     0.76153   0.08090   0.48000   0.00000  Uiso   1.00
C324   C     0.79823   0.04321   0.54732   0.00000  Uiso   1.00
C325   C     0.83149   0.96198   0.55454   0.00000  Uiso   1.00
C326   C     0.86193   0.93953   0.62048   0.00000  Uiso   1.00
C327   C     0.91930   0.87236   0.71641   0.00000  Uiso   1.00
C328   C     0.67133   0.10893   0.49800   0.00000  Uiso   1.00
C329   C     0.59789   0.08297   0.46374   0.00000  Uiso   1.00
C330   C     0.52150   0.11585   0.48816   0.00000  Uiso   1.00
C331   C     0.38186   0.15076   0.50748   0.00000  Uiso   1.00
C332   C     0.81152   0.16223   0.46612   0.00000  Uiso   1.00
C333   C     0.85595   0.18108   0.40506   0.00000  Uiso   1.00
C334   C     0.89757   0.25885   0.40263   0.00000  Uiso   1.00
C335   C     0.97560   0.37650   0.37245   0.00000  Uiso   1.00
C336   C     0.75643   0.18549   0.58425   0.00000  Uiso   1.00
C337   C     0.79546   0.10002   0.60394   0.00000  Uiso   1.00
C338   C     0.82585   0.07770   0.66989   0.00000  Uiso   1.00
C339   C     0.85916   0.99644   0.67721   0.00000  Uiso   1.00
C340   C     0.66855   0.16574   0.55462   0.00000  Uiso   1.00
C341   C     0.59225   0.19868   0.57908   0.00000  Uiso   1.00
C342   C     0.51873   0.17277   0.54488   0.00000  Uiso   1.00
C343   C     0.80875   0.21904   0.52274   0.00000  Uiso   1.00
C344   C     0.85031   0.29679   0.52040   0.00000  Uiso   1.00
C345   C     0.89480   0.31576   0.45935   0.00000  Uiso   1.00
H346   H     0.76368   0.03667   0.43591   0.00000  Uiso   1.00
H347   H     0.83362   0.91803   0.51071   0.00000  Uiso   1.00
H348   H     0.60006   0.03901   0.41992   0.00000  Uiso   1.00
H349   H     0.85807   0.13710   0.36125   0.00000  Uiso   1.00
H350   H     0.90991   0.81154   0.61862   0.00000  Uiso   1.00
H351   H     0.41744   0.06664   0.42717   0.00000  Uiso   1.00
H352   H     0.96152   0.27350   0.30344   0.00000  Uiso   1.00
H353   H     0.75427   0.22972   0.62833   0.00000  Uiso   1.00
H354   H     0.82370   0.12167   0.71370   0.00000  Uiso   1.00
H355   H     0.59014   0.24264   0.62290   0.00000  Uiso   1.00
H356   H     0.84815   0.34074   0.56423   0.00000  Uiso   1.00
H357   H     0.90186   0.97682   0.78337   0.00000  Uiso   1.00
H358   H     0.40938   0.23193   0.59191   0.00000  Uiso   1.00
H359   H     0.95346   0.43878   0.46819   0.00000  Uiso   1.00
O360   O     0.95170   0.81961   0.75368   0.00000  Uiso   1.00
O361   O     0.30560   0.15431   0.50249   0.00000  Uiso   1.00
O362   O     0.01942   0.42570   0.34017   0.00000  Uiso   1.00
N363   N     0.89850   0.86527   0.64568   0.00000  Uiso   1.00
N364   N     0.43807   0.10377   0.46668   0.00000  Uiso   1.00
N365   N     0.94672   0.29717   0.35100   0.00000  Uiso   1.00
N366   N     0.89417   0.95421   0.73433   0.00000  Uiso   1.00
N367   N     0.43374   0.19270   0.55534   0.00000  Uiso   1.00
N368   N     0.94239   0.38611   0.43966   0.00000  Uiso   1.00
