data_job_01284
_audit_creation_date              2018-12-19
_audit_creation_method            'Materials Studio'
_symmetry_space_group_name_H-M    'P1'
_symmetry_Int_Tables_number       1
_symmetry_cell_setting            triclinic
loop_
_symmetry_equiv_pos_as_xyz
  x,y,z
_cell_length_a                    12.1575
_cell_length_b                    28.4042
_cell_length_c                    9.6291
_cell_angle_alpha                 90.0000
_cell_angle_beta                  76.2712
_cell_angle_gamma                 90.0000
loop_
_atom_site_label
_atom_site_type_symbol
_atom_site_fract_x
_atom_site_fract_y
_atom_site_fract_z
_atom_site_U_iso_or_equiv
_atom_site_adp_type
_atom_site_occupancy
C1     C     0.12287   0.69516   0.47756   0.00000  Uiso   1.00
C2     C     0.02065   0.69751   0.41168   0.00000  Uiso   1.00
C3     C     0.95439   0.73701   0.40734   0.00000  Uiso   1.00
C4     C     0.86463   0.73195   0.34233   0.00000  Uiso   1.00
C5     C     0.70931   0.74214   0.24900   0.00000  Uiso   1.00
C6     C     0.09803   0.65570   0.58799   0.00000  Uiso   1.00
C7     C     0.09686   0.66006   0.73190   0.00000  Uiso   1.00
C8     C     0.07226   0.61981   0.81530   0.00000  Uiso   1.00
C9     C     0.03716   0.56509   0.99568   0.00000  Uiso   1.00
C10    C     0.22142   0.67796   0.35919   0.00000  Uiso   1.00
C11    C     0.32400   0.70102   0.31072   0.00000  Uiso   1.00
C12    C     0.40329   0.67949   0.20150   0.00000  Uiso   1.00
C13    C     0.55976   0.65933   0.02662   0.00000  Uiso   1.00
C14    C     0.08128   0.61591   0.36981   0.00000  Uiso   1.00
C15    C     0.99806   0.65446   0.35316   0.00000  Uiso   1.00
C16    C     0.90838   0.64934   0.28813   0.00000  Uiso   1.00
C17    C     0.84201   0.68883   0.28370   0.00000  Uiso   1.00
C18    C     0.07545   0.61266   0.52948   0.00000  Uiso   1.00
C19    C     0.05085   0.57239   0.61268   0.00000  Uiso   1.00
C20    C     0.04963   0.57669   0.75667   0.00000  Uiso   1.00
C21    C     0.19883   0.63491   0.30066   0.00000  Uiso   1.00
C22    C     0.27798   0.61334   0.19150   0.00000  Uiso   1.00
C23    C     0.38066   0.63637   0.14288   0.00000  Uiso   1.00
H24    H     0.14045   0.72867   0.52313   0.00000  Uiso   1.00
H25    H     0.97189   0.77032   0.45266   0.00000  Uiso   1.00
H26    H     0.11435   0.69338   0.77715   0.00000  Uiso   1.00
H27    H     0.34145   0.73433   0.35604   0.00000  Uiso   1.00
H28    H     0.77503   0.79751   0.34876   0.00000  Uiso   1.00
H29    H     0.07544   0.63527   0.03296   0.00000  Uiso   1.00
H30    H     0.55433   0.72163   0.14497   0.00000  Uiso   1.00
H31    H     0.06370   0.58240   0.32425   0.00000  Uiso   1.00
H32    H     0.89092   0.61602   0.24285   0.00000  Uiso   1.00
H33    H     0.03338   0.53909   0.56735   0.00000  Uiso   1.00
H34    H     0.26048   0.58004   0.14624   0.00000  Uiso   1.00
H35    H     0.70931   0.67228   0.17848   0.00000  Uiso   1.00
H36    H     0.00973   0.51004   0.86269   0.00000  Uiso   1.00
H37    H     0.48860   0.59640   0.97468   0.00000  Uiso   1.00
O38    O     0.62987   0.75965   0.21371   0.00000  Uiso   1.00
O39    O     0.02403   0.54680   0.11135   0.00000  Uiso   1.00
O40    O     0.65230   0.66010   0.94631   0.00000  Uiso   1.00
N41    N     0.78329   0.76342   0.31983   0.00000  Uiso   1.00
N42    N     0.06414   0.61175   0.95952   0.00000  Uiso   1.00
N43    N     0.51186   0.69247   0.12935   0.00000  Uiso   1.00
N44    N     0.74792   0.69604   0.22820   0.00000  Uiso   1.00
N45    N     0.02878   0.54436   0.86790   0.00000  Uiso   1.00
N46    N     0.47650   0.62509   0.03772   0.00000  Uiso   1.00
C47    C     0.87713   0.19516   0.02244   0.00000  Uiso   1.00
C48    C     0.97935   0.19751   0.08832   0.00000  Uiso   1.00
C49    C     0.04561   0.23701   0.09266   0.00000  Uiso   1.00
C50    C     0.13537   0.23195   0.15767   0.00000  Uiso   1.00
C51    C     0.29069   0.24214   0.25100   0.00000  Uiso   1.00
C52    C     0.90197   0.15570   0.91201   0.00000  Uiso   1.00
C53    C     0.90314   0.16006   0.76810   0.00000  Uiso   1.00
C54    C     0.92774   0.11981   0.68470   0.00000  Uiso   1.00
C55    C     0.96284   0.06509   0.50432   0.00000  Uiso   1.00
C56    C     0.77858   0.17796   0.14081   0.00000  Uiso   1.00
C57    C     0.67600   0.20102   0.18928   0.00000  Uiso   1.00
C58    C     0.59671   0.17949   0.29850   0.00000  Uiso   1.00
C59    C     0.44024   0.15933   0.47338   0.00000  Uiso   1.00
C60    C     0.91872   0.11591   0.13019   0.00000  Uiso   1.00
C61    C     0.00194   0.15446   0.14684   0.00000  Uiso   1.00
C62    C     0.09162   0.14934   0.21187   0.00000  Uiso   1.00
C63    C     0.15799   0.18883   0.21630   0.00000  Uiso   1.00
C64    C     0.92455   0.11266   0.97052   0.00000  Uiso   1.00
C65    C     0.94915   0.07239   0.88732   0.00000  Uiso   1.00
C66    C     0.95037   0.07669   0.74333   0.00000  Uiso   1.00
C67    C     0.80117   0.13491   0.19934   0.00000  Uiso   1.00
C68    C     0.72202   0.11334   0.30850   0.00000  Uiso   1.00
C69    C     0.61934   0.13637   0.35712   0.00000  Uiso   1.00
H70    H     0.85955   0.22867   0.97687   0.00000  Uiso   1.00
H71    H     0.02811   0.27032   0.04734   0.00000  Uiso   1.00
H72    H     0.88565   0.19338   0.72285   0.00000  Uiso   1.00
H73    H     0.65855   0.23433   0.14396   0.00000  Uiso   1.00
H74    H     0.22497   0.29751   0.15124   0.00000  Uiso   1.00
H75    H     0.92456   0.13527   0.46704   0.00000  Uiso   1.00
H76    H     0.44567   0.22163   0.35503   0.00000  Uiso   1.00
H77    H     0.93630   0.08240   0.17575   0.00000  Uiso   1.00
H78    H     0.10908   0.11602   0.25715   0.00000  Uiso   1.00
H79    H     0.96662   0.03909   0.93265   0.00000  Uiso   1.00
H80    H     0.73952   0.08004   0.35376   0.00000  Uiso   1.00
H81    H     0.29069   0.17228   0.32152   0.00000  Uiso   1.00
H82    H     0.99027   0.01004   0.63731   0.00000  Uiso   1.00
H83    H     0.51140   0.09640   0.52532   0.00000  Uiso   1.00
O84    O     0.37013   0.25965   0.28629   0.00000  Uiso   1.00
O85    O     0.97597   0.04680   0.38865   0.00000  Uiso   1.00
O86    O     0.34770   0.16010   0.55369   0.00000  Uiso   1.00
N87    N     0.21671   0.26342   0.18017   0.00000  Uiso   1.00
N88    N     0.93586   0.11175   0.54048   0.00000  Uiso   1.00
N89    N     0.48814   0.19247   0.37065   0.00000  Uiso   1.00
N90    N     0.25208   0.19604   0.27180   0.00000  Uiso   1.00
N91    N     0.97122   0.04436   0.63210   0.00000  Uiso   1.00
N92    N     0.52350   0.12509   0.46228   0.00000  Uiso   1.00
C93    C     0.87713   0.30484   0.52244   0.00000  Uiso   1.00
C94    C     0.97935   0.30249   0.58832   0.00000  Uiso   1.00
C95    C     0.04561   0.26299   0.59266   0.00000  Uiso   1.00
C96    C     0.13537   0.26805   0.65767   0.00000  Uiso   1.00
C97    C     0.29069   0.25786   0.75100   0.00000  Uiso   1.00
C98    C     0.90197   0.34430   0.41201   0.00000  Uiso   1.00
C99    C     0.90314   0.33994   0.26810   0.00000  Uiso   1.00
C100   C     0.92774   0.38019   0.18470   0.00000  Uiso   1.00
C101   C     0.96284   0.43491   0.00432   0.00000  Uiso   1.00
C102   C     0.77858   0.32204   0.64081   0.00000  Uiso   1.00
C103   C     0.67600   0.29898   0.68928   0.00000  Uiso   1.00
C104   C     0.59671   0.32051   0.79850   0.00000  Uiso   1.00
C105   C     0.44024   0.34067   0.97338   0.00000  Uiso   1.00
C106   C     0.91872   0.38409   0.63019   0.00000  Uiso   1.00
C107   C     0.00194   0.34554   0.64684   0.00000  Uiso   1.00
C108   C     0.09162   0.35066   0.71187   0.00000  Uiso   1.00
C109   C     0.15799   0.31117   0.71630   0.00000  Uiso   1.00
C110   C     0.92455   0.38734   0.47052   0.00000  Uiso   1.00
C111   C     0.94915   0.42761   0.38732   0.00000  Uiso   1.00
C112   C     0.95037   0.42331   0.24333   0.00000  Uiso   1.00
C113   C     0.80117   0.36509   0.69934   0.00000  Uiso   1.00
C114   C     0.72202   0.38666   0.80850   0.00000  Uiso   1.00
C115   C     0.61934   0.36363   0.85712   0.00000  Uiso   1.00
H116   H     0.85955   0.27133   0.47687   0.00000  Uiso   1.00
H117   H     0.02811   0.22968   0.54734   0.00000  Uiso   1.00
H118   H     0.88565   0.30662   0.22285   0.00000  Uiso   1.00
H119   H     0.65855   0.26567   0.64396   0.00000  Uiso   1.00
H120   H     0.22497   0.20249   0.65124   0.00000  Uiso   1.00
H121   H     0.92456   0.36473   0.96704   0.00000  Uiso   1.00
H122   H     0.44567   0.27837   0.85503   0.00000  Uiso   1.00
H123   H     0.93630   0.41760   0.67575   0.00000  Uiso   1.00
H124   H     0.10908   0.38398   0.75715   0.00000  Uiso   1.00
H125   H     0.96662   0.46091   0.43265   0.00000  Uiso   1.00
H126   H     0.73952   0.41996   0.85376   0.00000  Uiso   1.00
H127   H     0.29069   0.32772   0.82152   0.00000  Uiso   1.00
H128   H     0.99027   0.48996   0.13731   0.00000  Uiso   1.00
H129   H     0.51140   0.40360   0.02532   0.00000  Uiso   1.00
O130   O     0.37013   0.24035   0.78629   0.00000  Uiso   1.00
O131   O     0.97597   0.45320   0.88865   0.00000  Uiso   1.00
O132   O     0.34770   0.33990   0.05369   0.00000  Uiso   1.00
N133   N     0.21671   0.23658   0.68017   0.00000  Uiso   1.00
N134   N     0.93586   0.38825   0.04048   0.00000  Uiso   1.00
N135   N     0.48814   0.30753   0.87065   0.00000  Uiso   1.00
N136   N     0.25208   0.30396   0.77180   0.00000  Uiso   1.00
N137   N     0.97122   0.45564   0.13210   0.00000  Uiso   1.00
N138   N     0.52350   0.37491   0.96228   0.00000  Uiso   1.00
C139   C     0.12287   0.80484   0.97756   0.00000  Uiso   1.00
C140   C     0.02065   0.80249   0.91168   0.00000  Uiso   1.00
C141   C     0.95439   0.76299   0.90734   0.00000  Uiso   1.00
C142   C     0.86463   0.76805   0.84233   0.00000  Uiso   1.00
C143   C     0.70931   0.75786   0.74900   0.00000  Uiso   1.00
C144   C     0.09803   0.84430   0.08799   0.00000  Uiso   1.00
C145   C     0.09686   0.83994   0.23190   0.00000  Uiso   1.00
C146   C     0.07226   0.88019   0.31530   0.00000  Uiso   1.00
C147   C     0.03716   0.93491   0.49568   0.00000  Uiso   1.00
C148   C     0.22142   0.82204   0.85919   0.00000  Uiso   1.00
C149   C     0.32400   0.79898   0.81072   0.00000  Uiso   1.00
C150   C     0.40329   0.82051   0.70150   0.00000  Uiso   1.00
C151   C     0.55976   0.84067   0.52662   0.00000  Uiso   1.00
C152   C     0.08128   0.88409   0.86981   0.00000  Uiso   1.00
C153   C     0.99806   0.84554   0.85316   0.00000  Uiso   1.00
C154   C     0.90838   0.85066   0.78813   0.00000  Uiso   1.00
C155   C     0.84201   0.81117   0.78370   0.00000  Uiso   1.00
C156   C     0.07545   0.88734   0.02948   0.00000  Uiso   1.00
C157   C     0.05085   0.92761   0.11268   0.00000  Uiso   1.00
C158   C     0.04963   0.92331   0.25667   0.00000  Uiso   1.00
C159   C     0.19883   0.86509   0.80066   0.00000  Uiso   1.00
C160   C     0.27798   0.88666   0.69150   0.00000  Uiso   1.00
C161   C     0.38066   0.86363   0.64288   0.00000  Uiso   1.00
H162   H     0.14045   0.77133   0.02313   0.00000  Uiso   1.00
H163   H     0.97189   0.72968   0.95266   0.00000  Uiso   1.00
H164   H     0.11435   0.80662   0.27715   0.00000  Uiso   1.00
H165   H     0.34145   0.76567   0.85604   0.00000  Uiso   1.00
H166   H     0.77503   0.70249   0.84876   0.00000  Uiso   1.00
H167   H     0.07544   0.86473   0.53296   0.00000  Uiso   1.00
H168   H     0.55433   0.77837   0.64497   0.00000  Uiso   1.00
H169   H     0.06370   0.91760   0.82425   0.00000  Uiso   1.00
H170   H     0.89092   0.88398   0.74285   0.00000  Uiso   1.00
H171   H     0.03338   0.96091   0.06735   0.00000  Uiso   1.00
H172   H     0.26048   0.91996   0.64624   0.00000  Uiso   1.00
H173   H     0.70931   0.82772   0.67848   0.00000  Uiso   1.00
H174   H     0.00973   0.98996   0.36269   0.00000  Uiso   1.00
H175   H     0.48860   0.90360   0.47468   0.00000  Uiso   1.00
O176   O     0.62987   0.74035   0.71371   0.00000  Uiso   1.00
O177   O     0.02403   0.95320   0.61135   0.00000  Uiso   1.00
O178   O     0.65230   0.83990   0.44631   0.00000  Uiso   1.00
N179   N     0.78329   0.73658   0.81983   0.00000  Uiso   1.00
N180   N     0.06414   0.88825   0.45952   0.00000  Uiso   1.00
N181   N     0.51186   0.80753   0.62935   0.00000  Uiso   1.00
N182   N     0.74792   0.80396   0.72820   0.00000  Uiso   1.00
N183   N     0.02878   0.95564   0.36790   0.00000  Uiso   1.00
N184   N     0.47650   0.87491   0.53772   0.00000  Uiso   1.00
