data_job_05544
_audit_creation_date              2018-12-19
_audit_creation_method            'Materials Studio'
_symmetry_space_group_name_H-M    'P1'
_symmetry_Int_Tables_number       1
_symmetry_cell_setting            triclinic
loop_
_symmetry_equiv_pos_as_xyz
  x,y,z
_cell_length_a                    22.6526
_cell_length_b                    7.6857
_cell_length_c                    32.2832
_cell_angle_alpha                 90.0000
_cell_angle_beta                  90.0000
_cell_angle_gamma                 90.0000
loop_
_atom_site_label
_atom_site_type_symbol
_atom_site_fract_x
_atom_site_fract_y
_atom_site_fract_z
_atom_site_U_iso_or_equiv
_atom_site_adp_type
_atom_site_occupancy
C1     C     0.56211   0.98422   0.57580   0.00000  Uiso   1.00
C2     C     0.57549   0.82727   0.54847   0.00000  Uiso   1.00
C3     C     0.58521   0.83151   0.50604   0.00000  Uiso   1.00
C4     C     0.59676   0.67384   0.48668   0.00000  Uiso   1.00
C5     C     0.61724   0.45389   0.44085   0.00000  Uiso   1.00
C6     C     0.50389   0.94377   0.59748   0.00000  Uiso   1.00
C7     C     0.45341   0.04600   0.59625   0.00000  Uiso   1.00
C8     C     0.40469   0.98641   0.61815   0.00000  Uiso   1.00
C9     C     0.31403   0.94740   0.64842   0.00000  Uiso   1.00
C10    C     0.60913   0.98454   0.60960   0.00000  Uiso   1.00
C11    C     0.64714   0.12106   0.61857   0.00000  Uiso   1.00
C12    C     0.68702   0.09581   0.65068   0.00000  Uiso   1.00
C13    C     0.75977   0.12010   0.69977   0.00000  Uiso   1.00
C14    C     0.56532   0.69665   0.61687   0.00000  Uiso   1.00
C15    C     0.57724   0.67108   0.57078   0.00000  Uiso   1.00
C16    C     0.58877   0.51336   0.55148   0.00000  Uiso   1.00
C17    C     0.59851   0.51737   0.50902   0.00000  Uiso   1.00
C18    C     0.50563   0.78759   0.61978   0.00000  Uiso   1.00
C19    C     0.45697   0.72784   0.64169   0.00000  Uiso   1.00
C20    C     0.40644   0.82993   0.64049   0.00000  Uiso   1.00
C21    C     0.61088   0.82835   0.63190   0.00000  Uiso   1.00
C22    C     0.65070   0.80289   0.66400   0.00000  Uiso   1.00
C23    C     0.68877   0.93933   0.67302   0.00000  Uiso   1.00
H24    H     0.56074   0.10582   0.55844   0.00000  Uiso   1.00
H25    H     0.58385   0.95242   0.48879   0.00000  Uiso   1.00
H26    H     0.45208   0.16687   0.57899   0.00000  Uiso   1.00
H27    H     0.64578   0.24191   0.60130   0.00000  Uiso   1.00
H28    H     0.61022   0.71345   0.42141   0.00000  Uiso   1.00
H29    H     0.33237   0.16566   0.61162   0.00000  Uiso   1.00
H30    H     0.74083   0.32391   0.65866   0.00000  Uiso   1.00
H31    H     0.56668   0.57505   0.63423   0.00000  Uiso   1.00
H32    H     0.59012   0.39250   0.56874   0.00000  Uiso   1.00
H33    H     0.45834   0.60696   0.65895   0.00000  Uiso   1.00
H34    H     0.65204   0.68200   0.68126   0.00000  Uiso   1.00
H35    H     0.61531   0.25900   0.48630   0.00000  Uiso   1.00
H36    H     0.33746   0.71123   0.67651   0.00000  Uiso   1.00
H37    H     0.74591   0.86946   0.72356   0.00000  Uiso   1.00
O38    O     0.62805   0.37571   0.40940   0.00000  Uiso   1.00
O39    O     0.26353   0.96903   0.65896   0.00000  Uiso   1.00
O40    O     0.79942   0.17663   0.72068   0.00000  Uiso   1.00
N41    N     0.60821   0.63155   0.44567   0.00000  Uiso   1.00
N42    N     0.34844   0.05433   0.62350   0.00000  Uiso   1.00
N43    N     0.73030   0.20229   0.66749   0.00000  Uiso   1.00
N44    N     0.61095   0.38701   0.48059   0.00000  Uiso   1.00
N45    N     0.35118   0.80980   0.65842   0.00000  Uiso   1.00
N46    N     0.73304   0.95776   0.70241   0.00000  Uiso   1.00
C47    C     0.61117   0.01947   0.92506   0.00000  Uiso   1.00
C48    C     0.62406   0.17733   0.95221   0.00000  Uiso   1.00
C49    C     0.63444   0.17398   0.99456   0.00000  Uiso   1.00
C50    C     0.64537   0.33239   0.01376   0.00000  Uiso   1.00
C51    C     0.66528   0.55378   0.05933   0.00000  Uiso   1.00
C52    C     0.55240   0.05679   0.90380   0.00000  Uiso   1.00
C53    C     0.50255   0.95207   0.90545   0.00000  Uiso   1.00
C54    C     0.45315   0.00900   0.88389   0.00000  Uiso   1.00
C55    C     0.36183   0.04318   0.85427   0.00000  Uiso   1.00
C56    C     0.65768   0.02118   0.89091   0.00000  Uiso   1.00
C57    C     0.69633   0.88650   0.88172   0.00000  Uiso   1.00
C58    C     0.73557   0.91343   0.84931   0.00000  Uiso   1.00
C59    C     0.80770   0.89232   0.79969   0.00000  Uiso   1.00
C60    C     0.61211   0.30676   0.88383   0.00000  Uiso   1.00
C61    C     0.62457   0.33337   0.92981   0.00000  Uiso   1.00
C62    C     0.63548   0.49183   0.94895   0.00000  Uiso   1.00
C63    C     0.64588   0.48872   0.99133   0.00000  Uiso   1.00
C64    C     0.55291   0.21283   0.88140   0.00000  Uiso   1.00
C65    C     0.50358   0.26992   0.85983   0.00000  Uiso   1.00
C66    C     0.45366   0.16533   0.86145   0.00000  Uiso   1.00
C67    C     0.65819   0.17722   0.86852   0.00000  Uiso   1.00
C68    C     0.69737   0.20436   0.83611   0.00000  Uiso   1.00
C69    C     0.73608   0.06976   0.82687   0.00000  Uiso   1.00
H70    H     0.61077   0.89798   0.94249   0.00000  Uiso   1.00
H71    H     0.63404   0.05319   0.01189   0.00000  Uiso   1.00
H72    H     0.50217   0.83131   0.92278   0.00000  Uiso   1.00
H73    H     0.69593   0.76576   0.89906   0.00000  Uiso   1.00
H74    H     0.66005   0.29409   0.07895   0.00000  Uiso   1.00
H75    H     0.38199   0.82622   0.89105   0.00000  Uiso   1.00
H76    H     0.79056   0.68798   0.84104   0.00000  Uiso   1.00
H77    H     0.61250   0.42825   0.86639   0.00000  Uiso   1.00
H78    H     0.63587   0.61257   0.93161   0.00000  Uiso   1.00
H79    H     0.50399   0.39068   0.84250   0.00000  Uiso   1.00
H80    H     0.69775   0.32513   0.81879   0.00000  Uiso   1.00
H81    H     0.66153   0.74810   0.01379   0.00000  Uiso   1.00
H82    H     0.38347   0.28022   0.82589   0.00000  Uiso   1.00
H83    H     0.79204   0.14200   0.77588   0.00000  Uiso   1.00
O84    O     0.67611   0.63278   0.09065   0.00000  Uiso   1.00
O85    O     0.31131   0.01892   0.84413   0.00000  Uiso   1.00
O86    O     0.84735   0.83758   0.77851   0.00000  Uiso   1.00
N87    N     0.65720   0.37565   0.05466   0.00000  Uiso   1.00
N88    N     0.39723   0.93822   0.87900   0.00000  Uiso   1.00
N89    N     0.77920   0.80897   0.83223   0.00000  Uiso   1.00
N90    N     0.65800   0.61995   0.01960   0.00000  Uiso   1.00
N91    N     0.39803   0.18252   0.84394   0.00000  Uiso   1.00
N92    N     0.78000   0.05327   0.79717   0.00000  Uiso   1.00
C93    C     0.43789   0.01578   0.07580   0.00000  Uiso   1.00
C94    C     0.42451   0.17273   0.04847   0.00000  Uiso   1.00
C95    C     0.41479   0.16849   0.00604   0.00000  Uiso   1.00
C96    C     0.40324   0.32616   0.98668   0.00000  Uiso   1.00
C97    C     0.38276   0.54611   0.94085   0.00000  Uiso   1.00
C98    C     0.49611   0.05623   0.09748   0.00000  Uiso   1.00
C99    C     0.54659   0.95400   0.09625   0.00000  Uiso   1.00
C100   C     0.59531   0.01359   0.11815   0.00000  Uiso   1.00
C101   C     0.68597   0.05260   0.14842   0.00000  Uiso   1.00
C102   C     0.39087   0.01546   0.10960   0.00000  Uiso   1.00
C103   C     0.35286   0.87894   0.11857   0.00000  Uiso   1.00
C104   C     0.31298   0.90419   0.15068   0.00000  Uiso   1.00
C105   C     0.24023   0.87990   0.19977   0.00000  Uiso   1.00
C106   C     0.43468   0.30335   0.11687   0.00000  Uiso   1.00
C107   C     0.42276   0.32892   0.07078   0.00000  Uiso   1.00
C108   C     0.41123   0.48664   0.05148   0.00000  Uiso   1.00
C109   C     0.40149   0.48263   0.00902   0.00000  Uiso   1.00
C110   C     0.49437   0.21241   0.11978   0.00000  Uiso   1.00
C111   C     0.54303   0.27216   0.14169   0.00000  Uiso   1.00
C112   C     0.59356   0.17007   0.14049   0.00000  Uiso   1.00
C113   C     0.38912   0.17165   0.13190   0.00000  Uiso   1.00
C114   C     0.34930   0.19711   0.16400   0.00000  Uiso   1.00
C115   C     0.31123   0.06067   0.17302   0.00000  Uiso   1.00
H116   H     0.43926   0.89418   0.05844   0.00000  Uiso   1.00
H117   H     0.41615   0.04758   0.98879   0.00000  Uiso   1.00
H118   H     0.54792   0.83313   0.07899   0.00000  Uiso   1.00
H119   H     0.35422   0.75809   0.10130   0.00000  Uiso   1.00
H120   H     0.38978   0.28655   0.92141   0.00000  Uiso   1.00
H121   H     0.66763   0.83434   0.11162   0.00000  Uiso   1.00
H122   H     0.25917   0.67609   0.15866   0.00000  Uiso   1.00
H123   H     0.43332   0.42495   0.13423   0.00000  Uiso   1.00
H124   H     0.40988   0.60750   0.06874   0.00000  Uiso   1.00
H125   H     0.54166   0.39304   0.15895   0.00000  Uiso   1.00
H126   H     0.34796   0.31800   0.18126   0.00000  Uiso   1.00
H127   H     0.38469   0.74100   0.98630   0.00000  Uiso   1.00
H128   H     0.66254   0.28877   0.17651   0.00000  Uiso   1.00
H129   H     0.25409   0.13054   0.22356   0.00000  Uiso   1.00
O130   O     0.37195   0.62429   0.90940   0.00000  Uiso   1.00
O131   O     0.73647   0.03097   0.15896   0.00000  Uiso   1.00
O132   O     0.20058   0.82337   0.22068   0.00000  Uiso   1.00
N133   N     0.39179   0.36845   0.94567   0.00000  Uiso   1.00
N134   N     0.65156   0.94567   0.12350   0.00000  Uiso   1.00
N135   N     0.26970   0.79771   0.16749   0.00000  Uiso   1.00
N136   N     0.38905   0.61299   0.98059   0.00000  Uiso   1.00
N137   N     0.64882   0.19020   0.15842   0.00000  Uiso   1.00
N138   N     0.26696   0.04224   0.20241   0.00000  Uiso   1.00
C139   C     0.38883   0.98053   0.42506   0.00000  Uiso   1.00
C140   C     0.37594   0.82267   0.45221   0.00000  Uiso   1.00
C141   C     0.36556   0.82602   0.49456   0.00000  Uiso   1.00
C142   C     0.35463   0.66761   0.51376   0.00000  Uiso   1.00
C143   C     0.33472   0.44622   0.55933   0.00000  Uiso   1.00
C144   C     0.44760   0.94321   0.40380   0.00000  Uiso   1.00
C145   C     0.49745   0.04793   0.40545   0.00000  Uiso   1.00
C146   C     0.54685   0.99100   0.38389   0.00000  Uiso   1.00
C147   C     0.63817   0.95682   0.35427   0.00000  Uiso   1.00
C148   C     0.34232   0.97882   0.39091   0.00000  Uiso   1.00
C149   C     0.30367   0.11350   0.38172   0.00000  Uiso   1.00
C150   C     0.26443   0.08657   0.34931   0.00000  Uiso   1.00
C151   C     0.19230   0.10768   0.29969   0.00000  Uiso   1.00
C152   C     0.38789   0.69324   0.38383   0.00000  Uiso   1.00
C153   C     0.37543   0.66663   0.42981   0.00000  Uiso   1.00
C154   C     0.36452   0.50817   0.44895   0.00000  Uiso   1.00
C155   C     0.35412   0.51128   0.49133   0.00000  Uiso   1.00
C156   C     0.44709   0.78717   0.38140   0.00000  Uiso   1.00
C157   C     0.49642   0.73008   0.35983   0.00000  Uiso   1.00
C158   C     0.54634   0.83467   0.36145   0.00000  Uiso   1.00
C159   C     0.34181   0.82278   0.36852   0.00000  Uiso   1.00
C160   C     0.30263   0.79564   0.33611   0.00000  Uiso   1.00
C161   C     0.26392   0.93024   0.32687   0.00000  Uiso   1.00
H162   H     0.38923   0.10202   0.44249   0.00000  Uiso   1.00
H163   H     0.36596   0.94681   0.51189   0.00000  Uiso   1.00
H164   H     0.49783   0.16869   0.42278   0.00000  Uiso   1.00
H165   H     0.30407   0.23424   0.39906   0.00000  Uiso   1.00
H166   H     0.33995   0.70591   0.57895   0.00000  Uiso   1.00
H167   H     0.61801   0.17378   0.39105   0.00000  Uiso   1.00
H168   H     0.20944   0.31202   0.34104   0.00000  Uiso   1.00
H169   H     0.38750   0.57175   0.36639   0.00000  Uiso   1.00
H170   H     0.36413   0.38743   0.43161   0.00000  Uiso   1.00
H171   H     0.49601   0.60932   0.34250   0.00000  Uiso   1.00
H172   H     0.30225   0.67487   0.31879   0.00000  Uiso   1.00
H173   H     0.33847   0.25190   0.51379   0.00000  Uiso   1.00
H174   H     0.61653   0.71978   0.32589   0.00000  Uiso   1.00
H175   H     0.20796   0.85800   0.27588   0.00000  Uiso   1.00
O176   O     0.32389   0.36722   0.59065   0.00000  Uiso   1.00
O177   O     0.68869   0.98108   0.34413   0.00000  Uiso   1.00
O178   O     0.15265   0.16242   0.27851   0.00000  Uiso   1.00
N179   N     0.34280   0.62435   0.55466   0.00000  Uiso   1.00
N180   N     0.60277   0.06178   0.37900   0.00000  Uiso   1.00
N181   N     0.22080   0.19103   0.33223   0.00000  Uiso   1.00
N182   N     0.34200   0.38005   0.51960   0.00000  Uiso   1.00
N183   N     0.60197   0.81748   0.34394   0.00000  Uiso   1.00
N184   N     0.22000   0.94673   0.29717   0.00000  Uiso   1.00
C185   C     0.06211   0.51578   0.57580   0.00000  Uiso   1.00
C186   C     0.07549   0.67273   0.54847   0.00000  Uiso   1.00
C187   C     0.08521   0.66849   0.50604   0.00000  Uiso   1.00
C188   C     0.09676   0.82616   0.48668   0.00000  Uiso   1.00
C189   C     0.11724   0.04611   0.44085   0.00000  Uiso   1.00
C190   C     0.00389   0.55623   0.59748   0.00000  Uiso   1.00
C191   C     0.95341   0.45400   0.59625   0.00000  Uiso   1.00
C192   C     0.90469   0.51359   0.61815   0.00000  Uiso   1.00
C193   C     0.81403   0.55260   0.64842   0.00000  Uiso   1.00
C194   C     0.10913   0.51546   0.60960   0.00000  Uiso   1.00
C195   C     0.14714   0.37894   0.61857   0.00000  Uiso   1.00
C196   C     0.18702   0.40419   0.65068   0.00000  Uiso   1.00
C197   C     0.25977   0.37990   0.69977   0.00000  Uiso   1.00
C198   C     0.06532   0.80335   0.61687   0.00000  Uiso   1.00
C199   C     0.07724   0.82892   0.57078   0.00000  Uiso   1.00
C200   C     0.08877   0.98664   0.55148   0.00000  Uiso   1.00
C201   C     0.09851   0.98263   0.50902   0.00000  Uiso   1.00
C202   C     0.00563   0.71241   0.61978   0.00000  Uiso   1.00
C203   C     0.95697   0.77216   0.64169   0.00000  Uiso   1.00
C204   C     0.90644   0.67007   0.64049   0.00000  Uiso   1.00
C205   C     0.11088   0.67165   0.63190   0.00000  Uiso   1.00
C206   C     0.15070   0.69711   0.66400   0.00000  Uiso   1.00
C207   C     0.18877   0.56067   0.67302   0.00000  Uiso   1.00
H208   H     0.06074   0.39418   0.55844   0.00000  Uiso   1.00
H209   H     0.08385   0.54758   0.48879   0.00000  Uiso   1.00
H210   H     0.95208   0.33313   0.57899   0.00000  Uiso   1.00
H211   H     0.14578   0.25809   0.60130   0.00000  Uiso   1.00
H212   H     0.11022   0.78655   0.42141   0.00000  Uiso   1.00
H213   H     0.83237   0.33434   0.61162   0.00000  Uiso   1.00
H214   H     0.24083   0.17609   0.65866   0.00000  Uiso   1.00
H215   H     0.06668   0.92495   0.63423   0.00000  Uiso   1.00
H216   H     0.09012   0.10750   0.56874   0.00000  Uiso   1.00
H217   H     0.95834   0.89304   0.65895   0.00000  Uiso   1.00
H218   H     0.15204   0.81800   0.68126   0.00000  Uiso   1.00
H219   H     0.11531   0.24100   0.48630   0.00000  Uiso   1.00
H220   H     0.83746   0.78877   0.67651   0.00000  Uiso   1.00
H221   H     0.24591   0.63054   0.72356   0.00000  Uiso   1.00
O222   O     0.12805   0.12429   0.40940   0.00000  Uiso   1.00
O223   O     0.76353   0.53097   0.65896   0.00000  Uiso   1.00
O224   O     0.29942   0.32337   0.72068   0.00000  Uiso   1.00
N225   N     0.10821   0.86845   0.44567   0.00000  Uiso   1.00
N226   N     0.84844   0.44567   0.62350   0.00000  Uiso   1.00
N227   N     0.23030   0.29771   0.66749   0.00000  Uiso   1.00
N228   N     0.11095   0.11299   0.48059   0.00000  Uiso   1.00
N229   N     0.85118   0.69020   0.65842   0.00000  Uiso   1.00
N230   N     0.23304   0.54224   0.70241   0.00000  Uiso   1.00
C231   C     0.11117   0.48053   0.92506   0.00000  Uiso   1.00
C232   C     0.12406   0.32267   0.95221   0.00000  Uiso   1.00
C233   C     0.13444   0.32602   0.99456   0.00000  Uiso   1.00
C234   C     0.14537   0.16761   0.01376   0.00000  Uiso   1.00
C235   C     0.16528   0.94622   0.05933   0.00000  Uiso   1.00
C236   C     0.05240   0.44321   0.90380   0.00000  Uiso   1.00
C237   C     0.00255   0.54793   0.90545   0.00000  Uiso   1.00
C238   C     0.95315   0.49100   0.88389   0.00000  Uiso   1.00
C239   C     0.86183   0.45682   0.85427   0.00000  Uiso   1.00
C240   C     0.15768   0.47882   0.89091   0.00000  Uiso   1.00
C241   C     0.19633   0.61350   0.88172   0.00000  Uiso   1.00
C242   C     0.23557   0.58657   0.84931   0.00000  Uiso   1.00
C243   C     0.30770   0.60768   0.79969   0.00000  Uiso   1.00
C244   C     0.11211   0.19324   0.88383   0.00000  Uiso   1.00
C245   C     0.12457   0.16663   0.92981   0.00000  Uiso   1.00
C246   C     0.13548   0.00817   0.94895   0.00000  Uiso   1.00
C247   C     0.14588   0.01128   0.99133   0.00000  Uiso   1.00
C248   C     0.05291   0.28717   0.88140   0.00000  Uiso   1.00
C249   C     0.00358   0.23008   0.85983   0.00000  Uiso   1.00
C250   C     0.95366   0.33467   0.86145   0.00000  Uiso   1.00
C251   C     0.15819   0.32278   0.86852   0.00000  Uiso   1.00
C252   C     0.19737   0.29564   0.83611   0.00000  Uiso   1.00
C253   C     0.23608   0.43024   0.82687   0.00000  Uiso   1.00
H254   H     0.11077   0.60202   0.94249   0.00000  Uiso   1.00
H255   H     0.13404   0.44681   0.01189   0.00000  Uiso   1.00
H256   H     0.00217   0.66869   0.92278   0.00000  Uiso   1.00
H257   H     0.19593   0.73424   0.89906   0.00000  Uiso   1.00
H258   H     0.16005   0.20591   0.07895   0.00000  Uiso   1.00
H259   H     0.88199   0.67378   0.89105   0.00000  Uiso   1.00
H260   H     0.29056   0.81202   0.84104   0.00000  Uiso   1.00
H261   H     0.11250   0.07175   0.86639   0.00000  Uiso   1.00
H262   H     0.13587   0.88743   0.93161   0.00000  Uiso   1.00
H263   H     0.00399   0.10932   0.84250   0.00000  Uiso   1.00
H264   H     0.19775   0.17487   0.81879   0.00000  Uiso   1.00
H265   H     0.16153   0.75190   0.01379   0.00000  Uiso   1.00
H266   H     0.88347   0.21978   0.82589   0.00000  Uiso   1.00
H267   H     0.29204   0.35800   0.77588   0.00000  Uiso   1.00
O268   O     0.17611   0.86722   0.09065   0.00000  Uiso   1.00
O269   O     0.81131   0.48108   0.84413   0.00000  Uiso   1.00
O270   O     0.34735   0.66242   0.77851   0.00000  Uiso   1.00
N271   N     0.15720   0.12435   0.05466   0.00000  Uiso   1.00
N272   N     0.89723   0.56178   0.87900   0.00000  Uiso   1.00
N273   N     0.27920   0.69103   0.83223   0.00000  Uiso   1.00
N274   N     0.15800   0.88005   0.01960   0.00000  Uiso   1.00
N275   N     0.89803   0.31748   0.84394   0.00000  Uiso   1.00
N276   N     0.28000   0.44673   0.79717   0.00000  Uiso   1.00
C277   C     0.93789   0.48422   0.07580   0.00000  Uiso   1.00
C278   C     0.92451   0.32727   0.04847   0.00000  Uiso   1.00
C279   C     0.91479   0.33151   0.00604   0.00000  Uiso   1.00
C280   C     0.90324   0.17384   0.98668   0.00000  Uiso   1.00
C281   C     0.88276   0.95389   0.94085   0.00000  Uiso   1.00
C282   C     0.99611   0.44377   0.09748   0.00000  Uiso   1.00
C283   C     0.04659   0.54600   0.09625   0.00000  Uiso   1.00
C284   C     0.09531   0.48641   0.11815   0.00000  Uiso   1.00
C285   C     0.18597   0.44740   0.14842   0.00000  Uiso   1.00
C286   C     0.89087   0.48454   0.10960   0.00000  Uiso   1.00
C287   C     0.85286   0.62106   0.11857   0.00000  Uiso   1.00
C288   C     0.81298   0.59581   0.15068   0.00000  Uiso   1.00
C289   C     0.74023   0.62010   0.19977   0.00000  Uiso   1.00
C290   C     0.93468   0.19665   0.11687   0.00000  Uiso   1.00
C291   C     0.92276   0.17108   0.07078   0.00000  Uiso   1.00
C292   C     0.91123   0.01336   0.05148   0.00000  Uiso   1.00
C293   C     0.90149   0.01737   0.00902   0.00000  Uiso   1.00
C294   C     0.99437   0.28759   0.11978   0.00000  Uiso   1.00
C295   C     0.04303   0.22784   0.14169   0.00000  Uiso   1.00
C296   C     0.09356   0.32993   0.14049   0.00000  Uiso   1.00
C297   C     0.88912   0.32835   0.13190   0.00000  Uiso   1.00
C298   C     0.84930   0.30289   0.16400   0.00000  Uiso   1.00
C299   C     0.81123   0.43933   0.17302   0.00000  Uiso   1.00
H300   H     0.93926   0.60582   0.05844   0.00000  Uiso   1.00
H301   H     0.91615   0.45242   0.98879   0.00000  Uiso   1.00
H302   H     0.04792   0.66687   0.07899   0.00000  Uiso   1.00
H303   H     0.85422   0.74191   0.10130   0.00000  Uiso   1.00
H304   H     0.88978   0.21345   0.92141   0.00000  Uiso   1.00
H305   H     0.16763   0.66566   0.11162   0.00000  Uiso   1.00
H306   H     0.75917   0.82391   0.15866   0.00000  Uiso   1.00
H307   H     0.93332   0.07505   0.13423   0.00000  Uiso   1.00
H308   H     0.90988   0.89250   0.06874   0.00000  Uiso   1.00
H309   H     0.04166   0.10696   0.15895   0.00000  Uiso   1.00
H310   H     0.84796   0.18200   0.18126   0.00000  Uiso   1.00
H311   H     0.88469   0.75900   0.98630   0.00000  Uiso   1.00
H312   H     0.16254   0.21123   0.17651   0.00000  Uiso   1.00
H313   H     0.75409   0.36946   0.22356   0.00000  Uiso   1.00
O314   O     0.87195   0.87571   0.90940   0.00000  Uiso   1.00
O315   O     0.23647   0.46903   0.15896   0.00000  Uiso   1.00
O316   O     0.70058   0.67663   0.22068   0.00000  Uiso   1.00
N317   N     0.89179   0.13155   0.94567   0.00000  Uiso   1.00
N318   N     0.15156   0.55433   0.12350   0.00000  Uiso   1.00
N319   N     0.76970   0.70229   0.16749   0.00000  Uiso   1.00
N320   N     0.88905   0.88701   0.98059   0.00000  Uiso   1.00
N321   N     0.14882   0.30980   0.15842   0.00000  Uiso   1.00
N322   N     0.76696   0.45776   0.20241   0.00000  Uiso   1.00
C323   C     0.88883   0.51947   0.42506   0.00000  Uiso   1.00
C324   C     0.87594   0.67733   0.45221   0.00000  Uiso   1.00
C325   C     0.86556   0.67398   0.49456   0.00000  Uiso   1.00
C326   C     0.85463   0.83239   0.51376   0.00000  Uiso   1.00
C327   C     0.83472   0.05378   0.55933   0.00000  Uiso   1.00
C328   C     0.94760   0.55679   0.40380   0.00000  Uiso   1.00
C329   C     0.99745   0.45207   0.40545   0.00000  Uiso   1.00
C330   C     0.04685   0.50900   0.38389   0.00000  Uiso   1.00
C331   C     0.13817   0.54318   0.35427   0.00000  Uiso   1.00
C332   C     0.84232   0.52118   0.39091   0.00000  Uiso   1.00
C333   C     0.80367   0.38650   0.38172   0.00000  Uiso   1.00
C334   C     0.76443   0.41343   0.34931   0.00000  Uiso   1.00
C335   C     0.69230   0.39232   0.29969   0.00000  Uiso   1.00
C336   C     0.88789   0.80676   0.38383   0.00000  Uiso   1.00
C337   C     0.87543   0.83337   0.42981   0.00000  Uiso   1.00
C338   C     0.86452   0.99183   0.44895   0.00000  Uiso   1.00
C339   C     0.85412   0.98872   0.49133   0.00000  Uiso   1.00
C340   C     0.94709   0.71283   0.38140   0.00000  Uiso   1.00
C341   C     0.99642   0.76992   0.35983   0.00000  Uiso   1.00
C342   C     0.04634   0.66533   0.36145   0.00000  Uiso   1.00
C343   C     0.84181   0.67722   0.36852   0.00000  Uiso   1.00
C344   C     0.80263   0.70436   0.33611   0.00000  Uiso   1.00
C345   C     0.76392   0.56976   0.32687   0.00000  Uiso   1.00
H346   H     0.88923   0.39798   0.44249   0.00000  Uiso   1.00
H347   H     0.86596   0.55319   0.51189   0.00000  Uiso   1.00
H348   H     0.99783   0.33131   0.42278   0.00000  Uiso   1.00
H349   H     0.80407   0.26576   0.39906   0.00000  Uiso   1.00
H350   H     0.83995   0.79409   0.57895   0.00000  Uiso   1.00
H351   H     0.11801   0.32622   0.39105   0.00000  Uiso   1.00
H352   H     0.70944   0.18798   0.34104   0.00000  Uiso   1.00
H353   H     0.88750   0.92825   0.36639   0.00000  Uiso   1.00
H354   H     0.86413   0.11257   0.43161   0.00000  Uiso   1.00
H355   H     0.99601   0.89068   0.34250   0.00000  Uiso   1.00
H356   H     0.80225   0.82513   0.31879   0.00000  Uiso   1.00
H357   H     0.83847   0.24810   0.51379   0.00000  Uiso   1.00
H358   H     0.11653   0.78022   0.32589   0.00000  Uiso   1.00
H359   H     0.70796   0.64200   0.27588   0.00000  Uiso   1.00
O360   O     0.82389   0.13278   0.59065   0.00000  Uiso   1.00
O361   O     0.18869   0.51892   0.34413   0.00000  Uiso   1.00
O362   O     0.65265   0.33758   0.27851   0.00000  Uiso   1.00
N363   N     0.84280   0.87565   0.55466   0.00000  Uiso   1.00
N364   N     0.10277   0.43822   0.37900   0.00000  Uiso   1.00
N365   N     0.72080   0.30897   0.33223   0.00000  Uiso   1.00
N366   N     0.84200   0.11995   0.51960   0.00000  Uiso   1.00
N367   N     0.10197   0.68252   0.34394   0.00000  Uiso   1.00
N368   N     0.72000   0.55327   0.29717   0.00000  Uiso   1.00
