data_job_06922
_audit_creation_date              2018-12-19
_audit_creation_method            'Materials Studio'
_symmetry_space_group_name_H-M    'P1'
_symmetry_Int_Tables_number       1
_symmetry_cell_setting            triclinic
loop_
_symmetry_equiv_pos_as_xyz
  x,y,z
_cell_length_a                    20.8376
_cell_length_b                    22.9115
_cell_length_c                    19.2905
_cell_angle_alpha                 87.0607
_cell_angle_beta                  98.2284
_cell_angle_gamma                 115.8620
loop_
_atom_site_label
_atom_site_type_symbol
_atom_site_fract_x
_atom_site_fract_y
_atom_site_fract_z
_atom_site_U_iso_or_equiv
_atom_site_adp_type
_atom_site_occupancy
C1     C     0.10614   0.36002   0.05407   0.00000  Uiso   1.00
C2     C     0.16249   0.41606   0.01843   0.00000  Uiso   1.00
C3     C     0.21652   0.47168   0.05156   0.00000  Uiso   1.00
C4     C     0.26271   0.51727   0.00972   0.00000  Uiso   1.00
C5     C     0.35136   0.60577   0.96538   0.00000  Uiso   1.00
C6     C     0.03323   0.35246   0.01679   0.00000  Uiso   1.00
C7     C     0.97858   0.35459   0.04855   0.00000  Uiso   1.00
C8     C     0.91596   0.34663   0.00533   0.00000  Uiso   1.00
C9     C     0.80390   0.33635   0.95845   0.00000  Uiso   1.00
C10    C     0.11306   0.29926   0.03570   0.00000  Uiso   1.00
C11    C     0.12550   0.25665   0.08336   0.00000  Uiso   1.00
C12    C     0.13007   0.20388   0.05606   0.00000  Uiso   1.00
C13    C     0.14195   0.11099   0.03854   0.00000  Uiso   1.00
C14    C     0.09209   0.34207   0.92085   0.00000  Uiso   1.00
C15    C     0.15486   0.40631   0.94606   0.00000  Uiso   1.00
C16    C     0.20099   0.45182   0.90416   0.00000  Uiso   1.00
C17    C     0.25507   0.50750   0.93723   0.00000  Uiso   1.00
C18    C     0.02560   0.34271   0.94443   0.00000  Uiso   1.00
C19    C     0.96304   0.33474   0.90115   0.00000  Uiso   1.00
C20    C     0.90831   0.33686   0.93284   0.00000  Uiso   1.00
C21    C     0.10543   0.28950   0.96334   0.00000  Uiso   1.00
C22    C     0.10997   0.23679   0.93596   0.00000  Uiso   1.00
C23    C     0.12242   0.19411   0.98357   0.00000  Uiso   1.00
H24    H     0.11207   0.36761   0.11041   0.00000  Uiso   1.00
H25    H     0.22240   0.47921   0.10756   0.00000  Uiso   1.00
H26    H     0.98450   0.36213   0.10455   0.00000  Uiso   1.00
H27    H     0.13140   0.26421   0.13935   0.00000  Uiso   1.00
H28    H     0.34135   0.59865   0.07249   0.00000  Uiso   1.00
H29    H     0.83970   0.35177   0.06614   0.00000  Uiso   1.00
H30    H     0.14947   0.14526   0.13953   0.00000  Uiso   1.00
H31    H     0.08615   0.33448   0.86451   0.00000  Uiso   1.00
H32    H     0.19507   0.44426   0.84817   0.00000  Uiso   1.00
H33    H     0.95716   0.32719   0.84516   0.00000  Uiso   1.00
H34    H     0.10406   0.22926   0.87996   0.00000  Uiso   1.00
H35    H     0.31916   0.57029   0.86195   0.00000  Uiso   1.00
H36    H     0.81751   0.32340   0.85561   0.00000  Uiso   1.00
H37    H     0.12728   0.11690   0.92900   0.00000  Uiso   1.00
O38    O     0.40235   0.65729   0.96091   0.00000  Uiso   1.00
O39    O     0.74421   0.33338   0.95259   0.00000  Uiso   1.00
O40    O     0.15062   0.06246   0.04887   0.00000  Uiso   1.00
N41    N     0.32119   0.57690   0.02518   0.00000  Uiso   1.00
N42    N     0.85218   0.34609   0.01925   0.00000  Uiso   1.00
N43    N     0.14177   0.15302   0.08786   0.00000  Uiso   1.00
N44    N     0.30925   0.56164   0.91190   0.00000  Uiso   1.00
N45    N     0.84024   0.33083   0.90597   0.00000  Uiso   1.00
N46    N     0.12983   0.13776   0.97458   0.00000  Uiso   1.00
C47    C     0.98406   0.09474   0.37217   0.00000  Uiso   1.00
C48    C     0.99831   0.11880   0.44761   0.00000  Uiso   1.00
C49    C     0.06559   0.15270   0.48586   0.00000  Uiso   1.00
C50    C     0.06722   0.17038   0.55409   0.00000  Uiso   1.00
C51    C     0.09900   0.21009   0.66685   0.00000  Uiso   1.00
C52    C     0.93717   0.02182   0.37356   0.00000  Uiso   1.00
C53    C     0.95305   0.97419   0.34954   0.00000  Uiso   1.00
C54    C     0.90322   0.91023   0.35544   0.00000  Uiso   1.00
C55    C     0.84006   0.79938   0.35318   0.00000  Uiso   1.00
C56    C     0.93668   0.12381   0.33178   0.00000  Uiso   1.00
C57    C     0.95213   0.16191   0.27262   0.00000  Uiso   1.00
C58    C     0.90187   0.18380   0.24332   0.00000  Uiso   1.00
C59    C     0.83794   0.23131   0.17619   0.00000  Uiso   1.00
C60    C     0.86731   0.06586   0.42534   0.00000  Uiso   1.00
C61    C     0.93489   0.10311   0.47649   0.00000  Uiso   1.00
C62    C     0.93642   0.12075   0.54468   0.00000  Uiso   1.00
C63    C     0.00370   0.15467   0.58302   0.00000  Uiso   1.00
C64    C     0.87377   0.00613   0.40244   0.00000  Uiso   1.00
C65    C     0.82389   0.94223   0.40836   0.00000  Uiso   1.00
C66    C     0.83969   0.89451   0.38436   0.00000  Uiso   1.00
C67    C     0.87327   0.10812   0.36066   0.00000  Uiso   1.00
C68    C     0.82297   0.12996   0.33144   0.00000  Uiso   1.00
C69    C     0.83834   0.16809   0.27225   0.00000  Uiso   1.00
H70    H     0.03342   0.10695   0.34969   0.00000  Uiso   1.00
H71    H     0.11465   0.16483   0.46350   0.00000  Uiso   1.00
H72    H     0.00213   0.98634   0.32720   0.00000  Uiso   1.00
H73    H     0.00121   0.17404   0.25029   0.00000  Uiso   1.00
H74    H     0.17674   0.22205   0.60241   0.00000  Uiso   1.00
H75    H     0.93947   0.84571   0.31499   0.00000  Uiso   1.00
H76    H     0.93753   0.24150   0.15281   0.00000  Uiso   1.00
H77    H     0.81794   0.05365   0.44782   0.00000  Uiso   1.00
H78    H     0.88734   0.10860   0.56701   0.00000  Uiso   1.00
H79    H     0.77482   0.93011   0.43071   0.00000  Uiso   1.00
H80    H     0.77390   0.11781   0.35380   0.00000  Uiso   1.00
H81    H     0.99225   0.17641   0.68643   0.00000  Uiso   1.00
H82    H     0.75498   0.80007   0.39901   0.00000  Uiso   1.00
H83    H     0.75304   0.19586   0.23683   0.00000  Uiso   1.00
O84    O     0.13404   0.23632   0.72107   0.00000  Uiso   1.00
O85    O     0.82275   0.74258   0.34397   0.00000  Uiso   1.00
O86    O     0.82020   0.26185   0.13120   0.00000  Uiso   1.00
N87    N     0.12380   0.20378   0.60582   0.00000  Uiso   1.00
N88    N     0.90197   0.85192   0.33711   0.00000  Uiso   1.00
N89    N     0.90014   0.22194   0.18548   0.00000  Uiso   1.00
N90    N     0.02453   0.17922   0.65103   0.00000  Uiso   1.00
N91    N     0.80270   0.82736   0.38232   0.00000  Uiso   1.00
N92    N     0.80087   0.19738   0.23069   0.00000  Uiso   1.00
C93    C     0.17092   0.85827   0.17025   0.00000  Uiso   1.00
C94    C     0.24590   0.88919   0.21204   0.00000  Uiso   1.00
C95    C     0.27841   0.95046   0.24297   0.00000  Uiso   1.00
C96    C     0.34727   0.96989   0.27893   0.00000  Uiso   1.00
C97    C     0.45838   0.02406   0.34306   0.00000  Uiso   1.00
C98    C     0.18097   0.84035   0.09884   0.00000  Uiso   1.00
C99    C     0.15888   0.86055   0.03459   0.00000  Uiso   1.00
C100   C     0.17306   0.83885   0.97526   0.00000  Uiso   1.00
C101   C     0.18332   0.81716   0.86364   0.00000  Uiso   1.00
C102   C     0.13008   0.79425   0.20594   0.00000  Uiso   1.00
C103   C     0.06517   0.77567   0.23173   0.00000  Uiso   1.00
C104   C     0.03650   0.71515   0.26256   0.00000  Uiso   1.00
C105   C     0.96773   0.62188   0.31723   0.00000  Uiso   1.00
C106   C     0.23539   0.78381   0.17913   0.00000  Uiso   1.00
C107   C     0.28092   0.84875   0.21687   0.00000  Uiso   1.00
C108   C     0.34974   0.86808   0.25280   0.00000  Uiso   1.00
C109   C     0.38235   0.92937   0.28377   0.00000  Uiso   1.00
C110   C     0.21599   0.79991   0.10367   0.00000  Uiso   1.00
C111   C     0.23020   0.77817   0.04442   0.00000  Uiso   1.00
C112   C     0.20814   0.79834   0.98009   0.00000  Uiso   1.00
C113   C     0.16509   0.75381   0.21077   0.00000  Uiso   1.00
C114   C     0.13651   0.69330   0.24156   0.00000  Uiso   1.00
C115   C     0.07158   0.67463   0.26739   0.00000  Uiso   1.00
H116   H     0.14366   0.88976   0.16649   0.00000  Uiso   1.00
H117   H     0.25130   0.98175   0.23921   0.00000  Uiso   1.00
H118   H     0.13177   0.89184   0.03087   0.00000  Uiso   1.00
H119   H     0.03809   0.80698   0.22798   0.00000  Uiso   1.00
H120   H     0.38609   0.06591   0.32195   0.00000  Uiso   1.00
H121   H     0.13405   0.87632   0.88265   0.00000  Uiso   1.00
H122   H     0.93649   0.69738   0.29829   0.00000  Uiso   1.00
H123   H     0.26265   0.75233   0.18289   0.00000  Uiso   1.00
H124   H     0.37683   0.83678   0.25652   0.00000  Uiso   1.00
H125   H     0.25730   0.74687   0.04817   0.00000  Uiso   1.00
H126   H     0.16362   0.66201   0.24529   0.00000  Uiso   1.00
H127   H     0.48798   0.94825   0.33600   0.00000  Uiso   1.00
H128   H     0.23592   0.75866   0.89669   0.00000  Uiso   1.00
H129   H     0.03838   0.57971   0.31234   0.00000  Uiso   1.00
O130   O     0.51000   0.06512   0.37709   0.00000  Uiso   1.00
O131   O     0.17931   0.81638   0.80074   0.00000  Uiso   1.00
O132   O     0.92014   0.58161   0.34606   0.00000  Uiso   1.00
N133   N     0.39440   0.02662   0.31516   0.00000  Uiso   1.00
N134   N     0.15876   0.84938   0.90444   0.00000  Uiso   1.00
N135   N     0.97405   0.68207   0.29302   0.00000  Uiso   1.00
N136   N     0.44922   0.96331   0.32272   0.00000  Uiso   1.00
N137   N     0.21358   0.78607   0.91200   0.00000  Uiso   1.00
N138   N     0.02888   0.61876   0.30058   0.00000  Uiso   1.00
C139   C     0.45777   0.43829   0.82189   0.00000  Uiso   1.00
C140   C     0.48599   0.47485   0.89180   0.00000  Uiso   1.00
C141   C     0.47869   0.52963   0.90862   0.00000  Uiso   1.00
C142   C     0.50826   0.55591   0.97534   0.00000  Uiso   1.00
C143   C     0.54664   0.61686   0.07658   0.00000  Uiso   1.00
C144   C     0.40945   0.36830   0.83896   0.00000  Uiso   1.00
C145   C     0.33780   0.33350   0.81134   0.00000  Uiso   1.00
C146   C     0.30293   0.27007   0.83358   0.00000  Uiso   1.00
C147   C     0.22249   0.16559   0.85275   0.00000  Uiso   1.00
C148   C     0.52274   0.43692   0.79563   0.00000  Uiso   1.00
C149   C     0.54633   0.45978   0.73157   0.00000  Uiso   1.00
C150   C     0.60684   0.45411   0.71733   0.00000  Uiso   1.00
C151   C     0.70230   0.45616   0.66922   0.00000  Uiso   1.00
C152   C     0.52325   0.38754   0.91049   0.00000  Uiso   1.00
C153   C     0.52156   0.44729   0.93992   0.00000  Uiso   1.00
C154   C     0.55114   0.47349   0.00664   0.00000  Uiso   1.00
C155   C     0.54389   0.52829   0.02355   0.00000  Uiso   1.00
C156   C     0.44501   0.34074   0.88708   0.00000  Uiso   1.00
C157   C     0.41025   0.27735   0.90937   0.00000  Uiso   1.00
C158   C     0.33856   0.24246   0.88179   0.00000  Uiso   1.00
C159   C     0.55831   0.40935   0.84376   0.00000  Uiso   1.00
C160   C     0.61879   0.40364   0.82960   0.00000  Uiso   1.00
C161   C     0.64247   0.42650   0.76554   0.00000  Uiso   1.00
H162   H     0.43008   0.45974   0.78443   0.00000  Uiso   1.00
H163   H     0.45116   0.55095   0.87136   0.00000  Uiso   1.00
H164   H     0.31029   0.35484   0.77410   0.00000  Uiso   1.00
H165   H     0.51879   0.48111   0.69435   0.00000  Uiso   1.00
H166   H     0.49019   0.63989   0.98898   0.00000  Uiso   1.00
H167   H     0.19317   0.22638   0.78387   0.00000  Uiso   1.00
H168   H     0.63284   0.49265   0.61570   0.00000  Uiso   1.00
H169   H     0.55094   0.36607   0.94796   0.00000  Uiso   1.00
H170   H     0.57866   0.45214   0.04387   0.00000  Uiso   1.00
H171   H     0.43779   0.25603   0.94660   0.00000  Uiso   1.00
H172   H     0.64630   0.38231   0.86685   0.00000  Uiso   1.00
H173   H     0.59368   0.55970   0.12899   0.00000  Uiso   1.00
H174   H     0.29665   0.14619   0.92388   0.00000  Uiso   1.00
H175   H     0.73633   0.41245   0.75571   0.00000  Uiso   1.00
O176   O     0.55797   0.65809   0.11913   0.00000  Uiso   1.00
O177   O     0.16829   0.11558   0.85003   0.00000  Uiso   1.00
O178   O     0.74513   0.46492   0.62940   0.00000  Uiso   1.00
N179   N     0.51076   0.60922   0.00876   0.00000  Uiso   1.00
N180   N     0.23306   0.22261   0.81701   0.00000  Uiso   1.00
N181   N     0.64410   0.47153   0.65978   0.00000  Uiso   1.00
N182   N     0.56644   0.56607   0.08410   0.00000  Uiso   1.00
N183   N     0.28874   0.17946   0.89235   0.00000  Uiso   1.00
N184   N     0.69979   0.42838   0.73512   0.00000  Uiso   1.00
C185   C     0.48511   0.69745   0.75233   0.00000  Uiso   1.00
C186   C     0.53480   0.73211   0.81817   0.00000  Uiso   1.00
C187   C     0.56913   0.70572   0.86810   0.00000  Uiso   1.00
C188   C     0.61237   0.74532   0.92453   0.00000  Uiso   1.00
C189   C     0.68825   0.78947   0.02579   0.00000  Uiso   1.00
C190   C     0.51713   0.73966   0.69101   0.00000  Uiso   1.00
C191   C     0.53660   0.71959   0.63403   0.00000  Uiso   1.00
C192   C     0.56496   0.76555   0.58342   0.00000  Uiso   1.00
C193   C     0.61337   0.82139   0.48725   0.00000  Uiso   1.00
C194   C     0.41419   0.70094   0.75564   0.00000  Uiso   1.00
C195   C     0.34709   0.64833   0.75299   0.00000  Uiso   1.00
C196   C     0.28877   0.66168   0.75678   0.00000  Uiso   1.00
C197   C     0.17734   0.65742   0.76096   0.00000  Uiso   1.00
C198   C     0.50085   0.81473   0.76376   0.00000  Uiso   1.00
C199   C     0.54335   0.79582   0.82437   0.00000  Uiso   1.00
C200   C     0.58654   0.83547   0.88075   0.00000  Uiso   1.00
C201   C     0.62093   0.80914   0.93075   0.00000  Uiso   1.00
C202   C     0.52568   0.80336   0.69722   0.00000  Uiso   1.00
C203   C     0.55402   0.84935   0.64668   0.00000  Uiso   1.00
C204   C     0.57353   0.82936   0.58964   0.00000  Uiso   1.00
C205   C     0.42273   0.76464   0.76185   0.00000  Uiso   1.00
C206   C     0.36451   0.77808   0.76564   0.00000  Uiso   1.00
C207   C     0.29734   0.72550   0.76300   0.00000  Uiso   1.00
H208   H     0.47845   0.64785   0.74749   0.00000  Uiso   1.00
H209   H     0.56250   0.65642   0.86327   0.00000  Uiso   1.00
H210   H     0.52997   0.67029   0.62924   0.00000  Uiso   1.00
H211   H     0.34049   0.59904   0.74819   0.00000  Uiso   1.00
H212   H     0.65948   0.69401   0.99436   0.00000  Uiso   1.00
H213   H     0.59086   0.72326   0.50088   0.00000  Uiso   1.00
H214   H     0.19131   0.57301   0.75169   0.00000  Uiso   1.00
H215   H     0.50751   0.86432   0.76859   0.00000  Uiso   1.00
H216   H     0.59315   0.88477   0.88554   0.00000  Uiso   1.00
H217   H     0.56062   0.89864   0.65150   0.00000  Uiso   1.00
H218   H     0.37115   0.82739   0.77045   0.00000  Uiso   1.00
H219   H     0.68436   0.87935   0.01243   0.00000  Uiso   1.00
H220   H     0.61574   0.90860   0.51894   0.00000  Uiso   1.00
H221   H     0.21619   0.75834   0.76976   0.00000  Uiso   1.00
O222   O     0.72775   0.79623   0.07993   0.00000  Uiso   1.00
O223   O     0.63772   0.83460   0.43249   0.00000  Uiso   1.00
O224   O     0.11352   0.63747   0.76156   0.00000  Uiso   1.00
N225   N     0.65357   0.73482   0.98257   0.00000  Uiso   1.00
N226   N     0.58943   0.76217   0.52120   0.00000  Uiso   1.00
N227   N     0.21588   0.62169   0.75567   0.00000  Uiso   1.00
N228   N     0.66696   0.83455   0.99229   0.00000  Uiso   1.00
N229   N     0.60281   0.86190   0.53092   0.00000  Uiso   1.00
N230   N     0.22926   0.72142   0.76540   0.00000  Uiso   1.00
C231   C     0.92358   0.62640   0.66967   0.00000  Uiso   1.00
C232   C     0.98785   0.67391   0.63532   0.00000  Uiso   1.00
C233   C     0.04518   0.72812   0.66740   0.00000  Uiso   1.00
C234   C     0.09867   0.76543   0.62706   0.00000  Uiso   1.00
C235   C     0.19905   0.84166   0.58437   0.00000  Uiso   1.00
C236   C     0.92124   0.55961   0.66160   0.00000  Uiso   1.00
C237   C     0.92256   0.51773   0.71579   0.00000  Uiso   1.00
C238   C     0.91996   0.45882   0.69757   0.00000  Uiso   1.00
C239   C     0.91688   0.35759   0.69568   0.00000  Uiso   1.00
C240   C     0.85689   0.62502   0.62388   0.00000  Uiso   1.00
C241   C     0.80410   0.63812   0.64636   0.00000  Uiso   1.00
C242   C     0.74733   0.63427   0.59638   0.00000  Uiso   1.00
C243   C     0.64434   0.63461   0.53593   0.00000  Uiso   1.00
C244   C     0.91662   0.59625   0.54096   0.00000  Uiso   1.00
C245   C     0.98406   0.65753   0.56541   0.00000  Uiso   1.00
C246   C     0.03748   0.69476   0.52501   0.00000  Uiso   1.00
C247   C     0.09489   0.74903   0.55703   0.00000  Uiso   1.00
C248   C     0.91746   0.54323   0.59170   0.00000  Uiso   1.00
C249   C     0.91486   0.48437   0.57339   0.00000  Uiso   1.00
C250   C     0.91618   0.44241   0.62754   0.00000  Uiso   1.00
C251   C     0.85311   0.60865   0.55398   0.00000  Uiso   1.00
C252   C     0.79641   0.60477   0.50396   0.00000  Uiso   1.00
C253   C     0.74354   0.61787   0.52635   0.00000  Uiso   1.00
H254   H     0.92652   0.63915   0.72409   0.00000  Uiso   1.00
H255   H     0.04809   0.74077   0.72150   0.00000  Uiso   1.00
H256   H     0.92547   0.53041   0.76988   0.00000  Uiso   1.00
H257   H     0.80704   0.65079   0.70046   0.00000  Uiso   1.00
H258   H     0.18121   0.84621   0.68781   0.00000  Uiso   1.00
H259   H     0.92265   0.40264   0.78981   0.00000  Uiso   1.00
H260   H     0.67291   0.65649   0.64343   0.00000  Uiso   1.00
H261   H     0.91368   0.58350   0.48654   0.00000  Uiso   1.00
H262   H     0.03454   0.68208   0.47091   0.00000  Uiso   1.00
H263   H     0.91193   0.47171   0.51929   0.00000  Uiso   1.00
H264   H     0.79350   0.59210   0.44987   0.00000  Uiso   1.00
H265   H     0.17022   0.79857   0.48442   0.00000  Uiso   1.00
H266   H     0.91165   0.35499   0.58643   0.00000  Uiso   1.00
H267   H     0.66192   0.60885   0.44004   0.00000  Uiso   1.00
O268   O     0.25547   0.88823   0.58013   0.00000  Uiso   1.00
O269   O     0.91623   0.30628   0.71396   0.00000  Uiso   1.00
O270   O     0.58859   0.63932   0.52190   0.00000  Uiso   1.00
N271   N     0.16203   0.82148   0.64209   0.00000  Uiso   1.00
N272   N     0.92030   0.40677   0.73745   0.00000  Uiso   1.00
N273   N     0.68681   0.64408   0.60060   0.00000  Uiso   1.00
N274   N     0.15612   0.79584   0.53264   0.00000  Uiso   1.00
N275   N     0.91439   0.38113   0.62801   0.00000  Uiso   1.00
N276   N     0.68089   0.61844   0.49115   0.00000  Uiso   1.00
C277   C     0.85641   0.66962   0.06364   0.00000  Uiso   1.00
C278   C     0.80858   0.65650   0.99315   0.00000  Uiso   1.00
C279   C     0.80255   0.70329   0.94762   0.00000  Uiso   1.00
C280   C     0.75588   0.68141   0.88569   0.00000  Uiso   1.00
C281   C     0.68761   0.67112   0.77861   0.00000  Uiso   1.00
C282   C     0.90459   0.63562   0.06022   0.00000  Uiso   1.00
C283   C     0.97927   0.66486   0.07110   0.00000  Uiso   1.00
C284   C     0.01342   0.62540   0.06564   0.00000  Uiso   1.00
C285   C     0.09420   0.58269   0.06275   0.00000  Uiso   1.00
C286   C     0.80663   0.63308   0.11767   0.00000  Uiso   1.00
C287   C     0.79896   0.66018   0.17685   0.00000  Uiso   1.00
C288   C     0.75065   0.61857   0.21977   0.00000  Uiso   1.00
C289   C     0.67932   0.57192   0.30606   0.00000  Uiso   1.00
C290   C     0.78427   0.54755   0.03462   0.00000  Uiso   1.00
C291   C     0.76940   0.59019   0.97739   0.00000  Uiso   1.00
C292   C     0.72273   0.56823   0.91551   0.00000  Uiso   1.00
C293   C     0.71663   0.61498   0.86990   0.00000  Uiso   1.00
C294   C     0.86541   0.56932   0.04446   0.00000  Uiso   1.00
C295   C     0.89946   0.52980   0.03899   0.00000  Uiso   1.00
C296   C     0.97417   0.55897   0.04985   0.00000  Uiso   1.00
C297   C     0.76744   0.56678   0.10190   0.00000  Uiso   1.00
C298   C     0.71914   0.52512   0.14474   0.00000  Uiso   1.00
C299   C     0.71139   0.55215   0.20398   0.00000  Uiso   1.00
H300   H     0.88692   0.72124   0.07592   0.00000  Uiso   1.00
H301   H     0.83288   0.75460   0.95984   0.00000  Uiso   1.00
H302   H     0.00958   0.71618   0.08330   0.00000  Uiso   1.00
H303   H     0.82929   0.71149   0.18903   0.00000  Uiso   1.00
H304   H     0.75572   0.76234   0.82418   0.00000  Uiso   1.00
H305   H     0.12829   0.68132   0.08454   0.00000  Uiso   1.00
H306   H     0.74811   0.67145   0.30750   0.00000  Uiso   1.00
H307   H     0.75376   0.49592   0.02235   0.00000  Uiso   1.00
H308   H     0.69242   0.51692   0.90333   0.00000  Uiso   1.00
H309   H     0.86912   0.47849   0.02680   0.00000  Uiso   1.00
H310   H     0.68883   0.47381   0.13253   0.00000  Uiso   1.00
H311   H     0.64171   0.56943   0.77831   0.00000  Uiso   1.00
H312   H     0.01429   0.48840   0.03868   0.00000  Uiso   1.00
H313   H     0.63411   0.47853   0.26163   0.00000  Uiso   1.00
O314   O     0.66078   0.68376   0.72390   0.00000  Uiso   1.00
O315   O     0.14958   0.57746   0.06550   0.00000  Uiso   1.00
O316   O     0.65080   0.56451   0.35801   0.00000  Uiso   1.00
N317   N     0.73729   0.71406   0.82972   0.00000  Uiso   1.00
N318   N     0.08563   0.63831   0.07314   0.00000  Uiso   1.00
N319   N     0.73021   0.62908   0.28159   0.00000  Uiso   1.00
N320   N     0.67595   0.61025   0.80504   0.00000  Uiso   1.00
N321   N     0.02428   0.53450   0.04846   0.00000  Uiso   1.00
N322   N     0.66886   0.52527   0.25691   0.00000  Uiso   1.00
C323   C     0.78466   0.94114   0.83537   0.00000  Uiso   1.00
C324   C     0.79665   0.91807   0.76769   0.00000  Uiso   1.00
C325   C     0.74781   0.86398   0.72822   0.00000  Uiso   1.00
C326   C     0.76894   0.85107   0.66797   0.00000  Uiso   1.00
C327   C     0.77726   0.80921   0.56591   0.00000  Uiso   1.00
C328   C     0.79593   0.01102   0.82290   0.00000  Uiso   1.00
C329   C     0.74648   0.03509   0.82987   0.00000  Uiso   1.00
C330   C     0.76701   0.10043   0.81610   0.00000  Uiso   1.00
C331   C     0.77424   0.20289   0.79980   0.00000  Uiso   1.00
C332   C     0.84664   0.94453   0.89028   0.00000  Uiso   1.00
C333   C     0.83984   0.91270   0.95391   0.00000  Uiso   1.00
C334   C     0.90306   0.92207   0.99688   0.00000  Uiso   1.00
C335   C     0.98902   0.92129   0.08519   0.00000  Uiso   1.00
C336   C     0.90903   0.01439   0.79856   0.00000  Uiso   1.00
C337   C     0.86420   0.95786   0.74770   0.00000  Uiso   1.00
C338   C     0.88541   0.94502   0.68750   0.00000  Uiso   1.00
C339   C     0.83662   0.89092   0.64794   0.00000  Uiso   1.00
C340   C     0.86348   0.05081   0.80291   0.00000  Uiso   1.00
C341   C     0.88409   0.11613   0.78914   0.00000  Uiso   1.00
C342   C     0.83469   0.14029   0.79607   0.00000  Uiso   1.00
C343   C     0.91419   0.98432   0.87029   0.00000  Uiso   1.00
C344   C     0.97744   0.99374   0.91317   0.00000  Uiso   1.00
C345   C     0.97074   0.96193   0.97685   0.00000  Uiso   1.00
H346   H     0.73207   0.91016   0.85094   0.00000  Uiso   1.00
H347   H     0.69553   0.83320   0.74371   0.00000  Uiso   1.00
H348   H     0.69421   0.00428   0.84535   0.00000  Uiso   1.00
H349   H     0.78755   0.88191   0.96936   0.00000  Uiso   1.00
H350   H     0.68481   0.76543   0.61600   0.00000  Uiso   1.00
H351   H     0.68204   0.12618   0.83032   0.00000  Uiso   1.00
H352   H     0.87885   0.86813   0.09184   0.00000  Uiso   1.00
H353   H     0.96163   0.04537   0.78299   0.00000  Uiso   1.00
H354   H     0.93770   0.97583   0.67204   0.00000  Uiso   1.00
H355   H     0.93637   0.14691   0.77367   0.00000  Uiso   1.00
H356   H     0.02971   0.02454   0.89768   0.00000  Uiso   1.00
H357   H     0.88136   0.88119   0.55782   0.00000  Uiso   1.00
H358   H     0.87858   0.24194   0.77215   0.00000  Uiso   1.00
H359   H     0.07540   0.98389   0.03366   0.00000  Uiso   1.00
O360   O     0.76319   0.77514   0.51514   0.00000  Uiso   1.00
O361   O     0.75955   0.24842   0.79633   0.00000  Uiso   1.00
O362   O     0.01777   0.90987   0.13943   0.00000  Uiso   1.00
N363   N     0.73436   0.80221   0.61754   0.00000  Uiso   1.00
N364   N     0.73176   0.13949   0.81791   0.00000  Uiso   1.00
N365   N     0.91577   0.89825   0.06241   0.00000  Uiso   1.00
N366   N     0.84012   0.86450   0.58624   0.00000  Uiso   1.00
N367   N     0.83752   0.20178   0.78661   0.00000  Uiso   1.00
N368   N     0.02153   0.96054   0.03111   0.00000  Uiso   1.00
C369   C     0.65698   0.93112   0.13393   0.00000  Uiso   1.00
C370   C     0.58408   0.90725   0.08821   0.00000  Uiso   1.00
C371   C     0.54476   0.84554   0.05904   0.00000  Uiso   1.00
C372   C     0.47927   0.83324   0.01883   0.00000  Uiso   1.00
C373   C     0.36990   0.78889   0.94948   0.00000  Uiso   1.00
C374   C     0.64740   0.95533   0.20215   0.00000  Uiso   1.00
C375   C     0.66134   0.93405   0.26877   0.00000  Uiso   1.00
C376   C     0.64916   0.96223   0.32447   0.00000  Uiso   1.00
C377   C     0.63815   0.99256   0.43202   0.00000  Uiso   1.00
C378   C     0.70764   0.99102   0.09805   0.00000  Uiso   1.00
C379   C     0.77224   0.99977   0.07715   0.00000  Uiso   1.00
C380   C     0.81079   0.05802   0.04521   0.00000  Uiso   1.00
C381   C     0.89331   0.14378   0.99112   0.00000  Uiso   1.00
C382   C     0.61058   0.01901   0.11439   0.00000  Uiso   1.00
C383   C     0.55888   0.95498   0.07760   0.00000  Uiso   1.00
C384   C     0.49343   0.94277   0.03741   0.00000  Uiso   1.00
C385   C     0.45402   0.88106   0.00819   0.00000  Uiso   1.00
C386   C     0.62221   0.00306   0.19154   0.00000  Uiso   1.00
C387   C     0.61001   0.03128   0.24715   0.00000  Uiso   1.00
C388   C     0.62392   0.01005   0.31384   0.00000  Uiso   1.00
C389   C     0.68244   0.03876   0.08743   0.00000  Uiso   1.00
C390   C     0.72090   0.09701   0.05552   0.00000  Uiso   1.00
C391   C     0.78554   0.10584   0.03458   0.00000  Uiso   1.00
H392   H     0.67660   0.89396   0.14220   0.00000  Uiso   1.00
H393   H     0.56428   0.80861   0.06728   0.00000  Uiso   1.00
H394   H     0.68085   0.89711   0.27698   0.00000  Uiso   1.00
H395   H     0.79172   0.96282   0.08538   0.00000  Uiso   1.00
H396   H     0.42863   0.73502   0.97955   0.00000  Uiso   1.00
H397   H     0.67444   0.92165   0.42171   0.00000  Uiso   1.00
H398   H     0.90825   0.06022   0.01769   0.00000  Uiso   1.00
H399   H     0.59096   0.05618   0.10612   0.00000  Uiso   1.00
H400   H     0.47394   0.97973   0.02921   0.00000  Uiso   1.00
H401   H     0.59051   0.06823   0.23891   0.00000  Uiso   1.00
H402   H     0.70139   0.13394   0.04731   0.00000  Uiso   1.00
H403   H     0.35531   0.87391   0.94865   0.00000  Uiso   1.00
H404   H     0.60112   0.06054   0.39081   0.00000  Uiso   1.00
H405   H     0.83493   0.19910   0.98679   0.00000  Uiso   1.00
O406   O     0.31653   0.75124   0.91417   0.00000  Uiso   1.00
O407   O     0.63904   0.99609   0.49427   0.00000  Uiso   1.00
O408   O     0.94578   0.17789   0.96420   0.00000  Uiso   1.00
N409   N     0.42744   0.77820   0.98282   0.00000  Uiso   1.00
N410   N     0.65725   0.95268   0.39621   0.00000  Uiso   1.00
N411   N     0.87585   0.08224   0.01850   0.00000  Uiso   1.00
N412   N     0.38799   0.85294   0.96619   0.00000  Uiso   1.00
N413   N     0.61779   0.02742   0.37959   0.00000  Uiso   1.00
N414   N     0.83640   0.15697   0.00188   0.00000  Uiso   1.00
C415   C     0.35399   0.20425   0.33568   0.00000  Uiso   1.00
C416   C     0.28847   0.13981   0.31737   0.00000  Uiso   1.00
C417   C     0.24843   0.09657   0.36498   0.00000  Uiso   1.00
C418   C     0.19047   0.04025   0.33776   0.00000  Uiso   1.00
C419   C     0.09139   0.94208   0.32033   0.00000  Uiso   1.00
C420   C     0.41495   0.20122   0.30304   0.00000  Uiso   1.00
C421   C     0.48125   0.20963   0.33859   0.00000  Uiso   1.00
C422   C     0.52975   0.20502   0.29930   0.00000  Uiso   1.00
C423   C     0.62705   0.20224   0.25961   0.00000  Uiso   1.00
C424   C     0.33679   0.25589   0.29548   0.00000  Uiso   1.00
C425   C     0.33739   0.31027   0.32467   0.00000  Uiso   1.00
C426   C     0.32011   0.35169   0.27902   0.00000  Uiso   1.00
C427   C     0.29606   0.43379   0.22759   0.00000  Uiso   1.00
C428   C     0.32226   0.18114   0.20268   0.00000  Uiso   1.00
C429   C     0.27124   0.12725   0.24513   0.00000  Uiso   1.00
C430   C     0.21332   0.07099   0.21784   0.00000  Uiso   1.00
C431   C     0.17320   0.02767   0.26539   0.00000  Uiso   1.00
C432   C     0.39772   0.18866   0.23080   0.00000  Uiso   1.00
C433   C     0.44614   0.18405   0.19145   0.00000  Uiso   1.00
C434   C     0.51249   0.19244   0.22694   0.00000  Uiso   1.00
C435   C     0.31956   0.24333   0.22324   0.00000  Uiso   1.00
C436   C     0.30228   0.28469   0.17753   0.00000  Uiso   1.00
C437   C     0.30285   0.33912   0.20665   0.00000  Uiso   1.00
H438   H     0.36741   0.21403   0.39191   0.00000  Uiso   1.00
H439   H     0.26179   0.10630   0.42088   0.00000  Uiso   1.00
H440   H     0.49457   0.21935   0.39449   0.00000  Uiso   1.00
H441   H     0.35073   0.31997   0.38058   0.00000  Uiso   1.00
H442   H     0.13711   0.98131   0.42113   0.00000  Uiso   1.00
H443   H     0.62795   0.21970   0.36549   0.00000  Uiso   1.00
H444   H     0.32464   0.43188   0.33615   0.00000  Uiso   1.00
H445   H     0.30884   0.17136   0.14644   0.00000  Uiso   1.00
H446   H     0.20000   0.06129   0.16193   0.00000  Uiso   1.00
H447   H     0.43278   0.17434   0.13555   0.00000  Uiso   1.00
H448   H     0.28895   0.27496   0.12164   0.00000  Uiso   1.00
H449   H     0.08696   0.94477   0.21096   0.00000  Uiso   1.00
H450   H     0.57780   0.18317   0.15533   0.00000  Uiso   1.00
H451   H     0.27449   0.39535   0.12599   0.00000  Uiso   1.00
O452   O     0.04151   0.89139   0.33067   0.00000  Uiso   1.00
O453   O     0.68548   0.20417   0.25768   0.00000  Uiso   1.00
O454   O     0.28754   0.48254   0.21918   0.00000  Uiso   1.00
N455   N     0.14023   0.98782   0.36954   0.00000  Uiso   1.00
N456   N     0.59914   0.21070   0.31753   0.00000  Uiso   1.00
N457   N     0.31559   0.40908   0.29009   0.00000  Uiso   1.00
N458   N     0.11325   0.96816   0.25645   0.00000  Uiso   1.00
N459   N     0.57215   0.19104   0.20444   0.00000  Uiso   1.00
N460   N     0.28860   0.38942   0.17700   0.00000  Uiso   1.00
C461   C     0.51072   0.21874   0.69992   0.00000  Uiso   1.00
C462   C     0.44324   0.16422   0.66263   0.00000  Uiso   1.00
C463   C     0.38040   0.16874   0.63477   0.00000  Uiso   1.00
C464   C     0.32473   0.11339   0.60273   0.00000  Uiso   1.00
C465   C     0.21888   0.03750   0.54546   0.00000  Uiso   1.00
C466   C     0.52560   0.19279   0.77180   0.00000  Uiso   1.00
C467   C     0.53200   0.22135   0.83573   0.00000  Uiso   1.00
C468   C     0.54567   0.19006   0.89559   0.00000  Uiso   1.00
C469   C     0.56773   0.15856   0.00781   0.00000  Uiso   1.00
C470   C     0.57215   0.22634   0.66031   0.00000  Uiso   1.00
C471   C     0.61772   0.28311   0.63050   0.00000  Uiso   1.00
C472   C     0.67060   0.28006   0.59650   0.00000  Uiso   1.00
C473   C     0.76494   0.30065   0.53561   0.00000  Uiso   1.00
C474   C     0.52362   0.11239   0.69257   0.00000  Uiso   1.00
C475   C     0.45025   0.10645   0.65864   0.00000  Uiso   1.00
C476   C     0.39467   0.05108   0.62663   0.00000  Uiso   1.00
C477   C     0.33175   0.05552   0.59872   0.00000  Uiso   1.00
C478   C     0.53260   0.13503   0.76781   0.00000  Uiso   1.00
C479   C     0.54628   0.10369   0.82759   0.00000  Uiso   1.00
C480   C     0.55269   0.13219   0.89159   0.00000  Uiso   1.00
C481   C     0.57916   0.16857   0.65631   0.00000  Uiso   1.00
C482   C     0.63199   0.16544   0.62235   0.00000  Uiso   1.00
C483   C     0.67762   0.22219   0.59250   0.00000  Uiso   1.00
H484   H     0.50526   0.26372   0.70304   0.00000  Uiso   1.00
H485   H     0.37499   0.21345   0.63788   0.00000  Uiso   1.00
H486   H     0.52658   0.26606   0.83880   0.00000  Uiso   1.00
H487   H     0.61228   0.32780   0.63360   0.00000  Uiso   1.00
H488   H     0.23364   0.13225   0.56389   0.00000  Uiso   1.00
H489   H     0.55330   0.24318   0.98756   0.00000  Uiso   1.00
H490   H     0.73401   0.37338   0.55485   0.00000  Uiso   1.00
H491   H     0.52908   0.06742   0.68946   0.00000  Uiso   1.00
H492   H     0.40011   0.00638   0.62354   0.00000  Uiso   1.00
H493   H     0.55170   0.05899   0.82447   0.00000  Uiso   1.00
H494   H     0.63739   0.12073   0.61927   0.00000  Uiso   1.00
H495   H     0.25403   0.96418   0.55226   0.00000  Uiso   1.00
H496   H     0.57369   0.07511   0.97593   0.00000  Uiso   1.00
H497   H     0.75440   0.20531   0.54322   0.00000  Uiso   1.00
O498   O     0.15856   0.01160   0.51498   0.00000  Uiso   1.00
O499   O     0.57795   0.15714   0.07081   0.00000  Uiso   1.00
O500   O     0.81504   0.32796   0.50311   0.00000  Uiso   1.00
N501   N     0.25614   0.10107   0.57019   0.00000  Uiso   1.00
N502   N     0.55500   0.20478   0.96629   0.00000  Uiso   1.00
N503   N     0.72396   0.32651   0.56176   0.00000  Uiso   1.00
N504   N     0.26711   0.01063   0.56393   0.00000  Uiso   1.00
N505   N     0.56596   0.11435   0.96003   0.00000  Uiso   1.00
N506   N     0.73493   0.23608   0.55550   0.00000  Uiso   1.00
C507   C     0.17397   0.41345   0.45888   0.00000  Uiso   1.00
C508   C     0.10342   0.37014   0.48644   0.00000  Uiso   1.00
C509   C     0.04244   0.32426   0.44750   0.00000  Uiso   1.00
C510   C     0.98335   0.28958   0.48234   0.00000  Uiso   1.00
C511   C     0.87350   0.22071   0.51429   0.00000  Uiso   1.00
C512   C     0.18859   0.48298   0.47483   0.00000  Uiso   1.00
C513   C     0.19923   0.53198   0.42614   0.00000  Uiso   1.00
C514   C     0.21185   0.59229   0.45121   0.00000  Uiso   1.00
C515   C     0.23428   0.69862   0.46515   0.00000  Uiso   1.00
C516   C     0.23229   0.40092   0.50521   0.00000  Uiso   1.00
C517   C     0.27970   0.38095   0.48207   0.00000  Uiso   1.00
C518   C     0.32913   0.37220   0.53273   0.00000  Uiso   1.00
C519   C     0.41942   0.35112   0.59384   0.00000  Uiso   1.00
C520   C     0.17746   0.43343   0.58998   0.00000  Uiso   1.00
C521   C     0.10532   0.38099   0.55764   0.00000  Uiso   1.00
C522   C     0.04630   0.34637   0.59255   0.00000  Uiso   1.00
C523   C     0.98525   0.30046   0.55368   0.00000  Uiso   1.00
C524   C     0.19049   0.49383   0.54604   0.00000  Uiso   1.00
C525   C     0.20310   0.55409   0.57119   0.00000  Uiso   1.00
C526   C     0.21375   0.60317   0.52255   0.00000  Uiso   1.00
C527   C     0.23419   0.41178   0.57642   0.00000  Uiso   1.00
C528   C     0.28356   0.40306   0.62712   0.00000  Uiso   1.00
C529   C     0.33103   0.38307   0.60406   0.00000  Uiso   1.00
H530   H     0.17249   0.40500   0.40344   0.00000  Uiso   1.00
H531   H     0.04099   0.31588   0.39240   0.00000  Uiso   1.00
H532   H     0.19777   0.52357   0.37104   0.00000  Uiso   1.00
H533   H     0.27822   0.37256   0.42696   0.00000  Uiso   1.00
H534   H     0.89602   0.22188   0.41155   0.00000  Uiso   1.00
H535   H     0.22662   0.65980   0.36652   0.00000  Uiso   1.00
H536   H     0.39627   0.34137   0.48444   0.00000  Uiso   1.00
H537   H     0.17894   0.44188   0.64542   0.00000  Uiso   1.00
H538   H     0.04779   0.35478   0.64766   0.00000  Uiso   1.00
H539   H     0.20456   0.56247   0.62630   0.00000  Uiso   1.00
H540   H     0.28501   0.41146   0.68222   0.00000  Uiso   1.00
H541   H     0.90154   0.25346   0.61872   0.00000  Uiso   1.00
H542   H     0.23214   0.69138   0.57369   0.00000  Uiso   1.00
H543   H     0.40178   0.37295   0.69162   0.00000  Uiso   1.00
O544   O     0.81238   0.17973   0.51223   0.00000  Uiso   1.00
O545   O     0.24612   0.75426   0.45316   0.00000  Uiso   1.00
O546   O     0.46869   0.33648   0.60787   0.00000  Uiso   1.00
N547   N     0.91532   0.24126   0.46000   0.00000  Uiso   1.00
N548   N     0.22440   0.65069   0.41790   0.00000  Uiso   1.00
N549   N     0.38302   0.35300   0.52815   0.00000  Uiso   1.00
N550   N     0.91829   0.25825   0.57148   0.00000  Uiso   1.00
N551   N     0.22737   0.66768   0.52938   0.00000  Uiso   1.00
N552   N     0.38599   0.36999   0.63963   0.00000  Uiso   1.00
