data_job_00639
_audit_creation_date              2018-12-19
_audit_creation_method            'Materials Studio'
_symmetry_space_group_name_H-M    'P1'
_symmetry_Int_Tables_number       1
_symmetry_cell_setting            triclinic
loop_
_symmetry_equiv_pos_as_xyz
  x,y,z
_cell_length_a                    23.0239
_cell_length_b                    23.0239
_cell_length_c                    9.5955
_cell_angle_alpha                 90.0000
_cell_angle_beta                  90.0000
_cell_angle_gamma                 120.0000
loop_
_atom_site_label
_atom_site_type_symbol
_atom_site_fract_x
_atom_site_fract_y
_atom_site_fract_z
_atom_site_U_iso_or_equiv
_atom_site_adp_type
_atom_site_occupancy
C1     C     0.25593   0.54909   0.70035   0.00000  Uiso   1.00
C2     C     0.19615   0.53939   0.78684   0.00000  Uiso   1.00
C3     C     0.17353   0.58488   0.79819   0.00000  Uiso   1.00
C4     C     0.11803   0.56666   0.88253   0.00000  Uiso   1.00
C5     C     0.03006   0.56098   0.00617   0.00000  Uiso   1.00
C6     C     0.30263   0.54107   0.80123   0.00000  Uiso   1.00
C7     C     0.36954   0.58798   0.82465   0.00000  Uiso   1.00
C8     C     0.40367   0.57118   0.92108   0.00000  Uiso   1.00
C9     C     0.48102   0.56809   0.06698   0.00000  Uiso   1.00
C10    C     0.22904   0.48919   0.60182   0.00000  Uiso   1.00
C11    C     0.23407   0.49247   0.45758   0.00000  Uiso   1.00
C12    C     0.20626   0.43198   0.38613   0.00000  Uiso   1.00
C13    C     0.16934   0.34833   0.22242   0.00000  Uiso   1.00
C14    C     0.19760   0.43583   0.82995   0.00000  Uiso   1.00
C15    C     0.16447   0.47787   0.85724   0.00000  Uiso   1.00
C16    C     0.10899   0.45958   0.94158   0.00000  Uiso   1.00
C17    C     0.08629   0.50504   0.95304   0.00000  Uiso   1.00
C18    C     0.27095   0.47956   0.87162   0.00000  Uiso   1.00
C19    C     0.30500   0.46268   0.96804   0.00000  Uiso   1.00
C20    C     0.37193   0.50955   0.99160   0.00000  Uiso   1.00
C21    C     0.19735   0.42767   0.67221   0.00000  Uiso   1.00
C22    C     0.16953   0.36717   0.60097   0.00000  Uiso   1.00
C23    C     0.17452   0.37035   0.45665   0.00000  Uiso   1.00
H24    H     0.28060   0.59698   0.64555   0.00000  Uiso   1.00
H25    H     0.19807   0.63249   0.74370   0.00000  Uiso   1.00
H26    H     0.39404   0.63558   0.77015   0.00000  Uiso   1.00
H27    H     0.25860   0.54008   0.40314   0.00000  Uiso   1.00
H28    H     0.09261   0.64473   0.88361   0.00000  Uiso   1.00
H29    H     0.50584   0.65125   0.93933   0.00000  Uiso   1.00
H30    H     0.22023   0.44988   0.16542   0.00000  Uiso   1.00
H31    H     0.17293   0.38794   0.88476   0.00000  Uiso   1.00
H32    H     0.08448   0.41197   0.99604   0.00000  Uiso   1.00
H33    H     0.28046   0.41507   0.02248   0.00000  Uiso   1.00
H34    H     0.14501   0.31957   0.65548   0.00000  Uiso   1.00
H35    H     0.00042   0.46576   0.08842   0.00000  Uiso   1.00
H36    H     0.41365   0.47227   0.14413   0.00000  Uiso   1.00
H37    H     0.12804   0.27090   0.37023   0.00000  Uiso   1.00
O38    O     0.99029   0.57484   0.05493   0.00000  Uiso   1.00
O39    O     0.53243   0.58338   0.12801   0.00000  Uiso   1.00
O40    O     0.15771   0.31919   0.11267   0.00000  Uiso   1.00
N41    N     0.08304   0.59931   0.91651   0.00000  Uiso   1.00
N42    N     0.46938   0.60540   0.96863   0.00000  Uiso   1.00
N43    N     0.20238   0.41714   0.24509   0.00000  Uiso   1.00
N44    N     0.03343   0.50300   0.02672   0.00000  Uiso   1.00
N45    N     0.41978   0.50910   0.07883   0.00000  Uiso   1.00
N46    N     0.15277   0.32083   0.35530   0.00000  Uiso   1.00
C47    C     0.45091   0.70684   0.36702   0.00000  Uiso   1.00
C48    C     0.46061   0.65677   0.45351   0.00000  Uiso   1.00
C49    C     0.41512   0.58865   0.46485   0.00000  Uiso   1.00
C50    C     0.43334   0.55137   0.54919   0.00000  Uiso   1.00
C51    C     0.43902   0.46908   0.67283   0.00000  Uiso   1.00
C52    C     0.45893   0.76156   0.46789   0.00000  Uiso   1.00
C53    C     0.41202   0.78155   0.49131   0.00000  Uiso   1.00
C54    C     0.42882   0.83250   0.58775   0.00000  Uiso   1.00
C55    C     0.43191   0.91293   0.73364   0.00000  Uiso   1.00
C56    C     0.51081   0.73985   0.26849   0.00000  Uiso   1.00
C57    C     0.50753   0.74160   0.12425   0.00000  Uiso   1.00
C58    C     0.56802   0.77428   0.05280   0.00000  Uiso   1.00
C59    C     0.65167   0.82100   0.88909   0.00000  Uiso   1.00
C60    C     0.56417   0.76177   0.49662   0.00000  Uiso   1.00
C61    C     0.52213   0.68660   0.52390   0.00000  Uiso   1.00
C62    C     0.54042   0.64941   0.60824   0.00000  Uiso   1.00
C63    C     0.49496   0.58125   0.61971   0.00000  Uiso   1.00
C64    C     0.52044   0.79139   0.53829   0.00000  Uiso   1.00
C65    C     0.53732   0.84232   0.63470   0.00000  Uiso   1.00
C66    C     0.49045   0.86238   0.65827   0.00000  Uiso   1.00
C67    C     0.57233   0.76968   0.33888   0.00000  Uiso   1.00
C68    C     0.63283   0.80236   0.26764   0.00000  Uiso   1.00
C69    C     0.62965   0.80417   0.12332   0.00000  Uiso   1.00
H70    H     0.40302   0.68362   0.31222   0.00000  Uiso   1.00
H71    H     0.36751   0.56558   0.41037   0.00000  Uiso   1.00
H72    H     0.36442   0.75846   0.43681   0.00000  Uiso   1.00
H73    H     0.45992   0.71851   0.06981   0.00000  Uiso   1.00
H74    H     0.35527   0.44788   0.55027   0.00000  Uiso   1.00
H75    H     0.34875   0.85459   0.60600   0.00000  Uiso   1.00
H76    H     0.55012   0.77035   0.83209   0.00000  Uiso   1.00
H77    H     0.61206   0.78499   0.55143   0.00000  Uiso   1.00
H78    H     0.58803   0.67251   0.66271   0.00000  Uiso   1.00
H79    H     0.58493   0.86539   0.68915   0.00000  Uiso   1.00
H80    H     0.68043   0.82544   0.32215   0.00000  Uiso   1.00
H81    H     0.53424   0.53466   0.75508   0.00000  Uiso   1.00
H82    H     0.52773   0.94138   0.81080   0.00000  Uiso   1.00
H83    H     0.72910   0.85714   0.03690   0.00000  Uiso   1.00
O84    O     0.42516   0.41545   0.72160   0.00000  Uiso   1.00
O85    O     0.41662   0.94905   0.79468   0.00000  Uiso   1.00
O86    O     0.68081   0.83853   0.77934   0.00000  Uiso   1.00
N87    N     0.40069   0.48373   0.58318   0.00000  Uiso   1.00
N88    N     0.39460   0.86398   0.63530   0.00000  Uiso   1.00
N89    N     0.58286   0.78524   0.91176   0.00000  Uiso   1.00
N90    N     0.49700   0.53043   0.69339   0.00000  Uiso   1.00
N91    N     0.49090   0.91068   0.74550   0.00000  Uiso   1.00
N92    N     0.67917   0.83194   0.02196   0.00000  Uiso   1.00
C93    C     0.29316   0.74407   0.03369   0.00000  Uiso   1.00
C94    C     0.34323   0.80385   0.12018   0.00000  Uiso   1.00
C95    C     0.41135   0.82647   0.13152   0.00000  Uiso   1.00
C96    C     0.44863   0.88197   0.21586   0.00000  Uiso   1.00
C97    C     0.53092   0.96994   0.33950   0.00000  Uiso   1.00
C98    C     0.23844   0.69737   0.13456   0.00000  Uiso   1.00
C99    C     0.21845   0.63046   0.15798   0.00000  Uiso   1.00
C100   C     0.16750   0.59633   0.25442   0.00000  Uiso   1.00
C101   C     0.08707   0.51898   0.40031   0.00000  Uiso   1.00
C102   C     0.26015   0.77096   0.93516   0.00000  Uiso   1.00
C103   C     0.25840   0.76593   0.79091   0.00000  Uiso   1.00
C104   C     0.22572   0.79374   0.71946   0.00000  Uiso   1.00
C105   C     0.17900   0.83066   0.55575   0.00000  Uiso   1.00
C106   C     0.23823   0.80240   0.16329   0.00000  Uiso   1.00
C107   C     0.31340   0.83553   0.19057   0.00000  Uiso   1.00
C108   C     0.35059   0.89101   0.27491   0.00000  Uiso   1.00
C109   C     0.41875   0.91371   0.28638   0.00000  Uiso   1.00
C110   C     0.20861   0.72905   0.20495   0.00000  Uiso   1.00
C111   C     0.15768   0.69500   0.30137   0.00000  Uiso   1.00
C112   C     0.13762   0.62807   0.32494   0.00000  Uiso   1.00
C113   C     0.23032   0.80265   0.00555   0.00000  Uiso   1.00
C114   C     0.19764   0.83047   0.93431   0.00000  Uiso   1.00
C115   C     0.19583   0.82548   0.78999   0.00000  Uiso   1.00
H116   H     0.31638   0.71940   0.97889   0.00000  Uiso   1.00
H117   H     0.43442   0.80193   0.07704   0.00000  Uiso   1.00
H118   H     0.24154   0.60596   0.10348   0.00000  Uiso   1.00
H119   H     0.28149   0.74140   0.73648   0.00000  Uiso   1.00
H120   H     0.55212   0.90739   0.21694   0.00000  Uiso   1.00
H121   H     0.14541   0.49416   0.27266   0.00000  Uiso   1.00
H122   H     0.22965   0.77977   0.49876   0.00000  Uiso   1.00
H123   H     0.21501   0.82707   0.21810   0.00000  Uiso   1.00
H124   H     0.32749   0.91552   0.32937   0.00000  Uiso   1.00
H125   H     0.13461   0.71954   0.35582   0.00000  Uiso   1.00
H126   H     0.17456   0.85499   0.98881   0.00000  Uiso   1.00
H127   H     0.46534   0.99958   0.42175   0.00000  Uiso   1.00
H128   H     0.05862   0.58635   0.47747   0.00000  Uiso   1.00
H129   H     0.14286   0.87196   0.70357   0.00000  Uiso   1.00
O130   O     0.58455   0.00971   0.38827   0.00000  Uiso   1.00
O131   O     0.05095   0.46757   0.46135   0.00000  Uiso   1.00
O132   O     0.16147   0.84229   0.44601   0.00000  Uiso   1.00
N133   N     0.51627   0.91696   0.24985   0.00000  Uiso   1.00
N134   N     0.13602   0.53062   0.30196   0.00000  Uiso   1.00
N135   N     0.21476   0.79762   0.57843   0.00000  Uiso   1.00
N136   N     0.46957   0.96657   0.36005   0.00000  Uiso   1.00
N137   N     0.08932   0.58022   0.41217   0.00000  Uiso   1.00
N138   N     0.16806   0.84723   0.68863   0.00000  Uiso   1.00
C139   C     0.54909   0.25593   0.29965   0.00000  Uiso   1.00
C140   C     0.53939   0.19615   0.21316   0.00000  Uiso   1.00
C141   C     0.58488   0.17353   0.20181   0.00000  Uiso   1.00
C142   C     0.56666   0.11803   0.11747   0.00000  Uiso   1.00
C143   C     0.56098   0.03006   0.99383   0.00000  Uiso   1.00
C144   C     0.54107   0.30263   0.19877   0.00000  Uiso   1.00
C145   C     0.58798   0.36954   0.17535   0.00000  Uiso   1.00
C146   C     0.57118   0.40367   0.07892   0.00000  Uiso   1.00
C147   C     0.56809   0.48102   0.93302   0.00000  Uiso   1.00
C148   C     0.48919   0.22904   0.39818   0.00000  Uiso   1.00
C149   C     0.49247   0.23407   0.54242   0.00000  Uiso   1.00
C150   C     0.43198   0.20626   0.61387   0.00000  Uiso   1.00
C151   C     0.34833   0.16934   0.77758   0.00000  Uiso   1.00
C152   C     0.43583   0.19760   0.17005   0.00000  Uiso   1.00
C153   C     0.47787   0.16447   0.14276   0.00000  Uiso   1.00
C154   C     0.45958   0.10899   0.05842   0.00000  Uiso   1.00
C155   C     0.50504   0.08629   0.04696   0.00000  Uiso   1.00
C156   C     0.47956   0.27095   0.12838   0.00000  Uiso   1.00
C157   C     0.46268   0.30500   0.03196   0.00000  Uiso   1.00
C158   C     0.50955   0.37193   0.00840   0.00000  Uiso   1.00
C159   C     0.42767   0.19735   0.32779   0.00000  Uiso   1.00
C160   C     0.36717   0.16953   0.39903   0.00000  Uiso   1.00
C161   C     0.37035   0.17452   0.54335   0.00000  Uiso   1.00
H162   H     0.59698   0.28060   0.35445   0.00000  Uiso   1.00
H163   H     0.63249   0.19807   0.25630   0.00000  Uiso   1.00
H164   H     0.63558   0.39404   0.22985   0.00000  Uiso   1.00
H165   H     0.54008   0.25860   0.59686   0.00000  Uiso   1.00
H166   H     0.64473   0.09261   0.11639   0.00000  Uiso   1.00
H167   H     0.65125   0.50584   0.06067   0.00000  Uiso   1.00
H168   H     0.44988   0.22023   0.83458   0.00000  Uiso   1.00
H169   H     0.38794   0.17293   0.11524   0.00000  Uiso   1.00
H170   H     0.41197   0.08448   0.00396   0.00000  Uiso   1.00
H171   H     0.41507   0.28046   0.97752   0.00000  Uiso   1.00
H172   H     0.31957   0.14501   0.34452   0.00000  Uiso   1.00
H173   H     0.46576   0.00042   0.91158   0.00000  Uiso   1.00
H174   H     0.47227   0.41365   0.85587   0.00000  Uiso   1.00
H175   H     0.27090   0.12804   0.62977   0.00000  Uiso   1.00
O176   O     0.57484   0.99029   0.94507   0.00000  Uiso   1.00
O177   O     0.58338   0.53243   0.87199   0.00000  Uiso   1.00
O178   O     0.31919   0.15771   0.88733   0.00000  Uiso   1.00
N179   N     0.59931   0.08304   0.08349   0.00000  Uiso   1.00
N180   N     0.60540   0.46938   0.03137   0.00000  Uiso   1.00
N181   N     0.41714   0.20238   0.75491   0.00000  Uiso   1.00
N182   N     0.50300   0.03343   0.97328   0.00000  Uiso   1.00
N183   N     0.50910   0.41978   0.92117   0.00000  Uiso   1.00
N184   N     0.32083   0.15277   0.64470   0.00000  Uiso   1.00
C185   C     0.70684   0.45091   0.63298   0.00000  Uiso   1.00
C186   C     0.65677   0.46061   0.54649   0.00000  Uiso   1.00
C187   C     0.58865   0.41512   0.53515   0.00000  Uiso   1.00
C188   C     0.55137   0.43334   0.45081   0.00000  Uiso   1.00
C189   C     0.46908   0.43902   0.32717   0.00000  Uiso   1.00
C190   C     0.76156   0.45893   0.53211   0.00000  Uiso   1.00
C191   C     0.78155   0.41202   0.50869   0.00000  Uiso   1.00
C192   C     0.83250   0.42882   0.41225   0.00000  Uiso   1.00
C193   C     0.91293   0.43191   0.26636   0.00000  Uiso   1.00
C194   C     0.73985   0.51081   0.73151   0.00000  Uiso   1.00
C195   C     0.74160   0.50753   0.87575   0.00000  Uiso   1.00
C196   C     0.77428   0.56802   0.94720   0.00000  Uiso   1.00
C197   C     0.82100   0.65167   0.11091   0.00000  Uiso   1.00
C198   C     0.76177   0.56417   0.50338   0.00000  Uiso   1.00
C199   C     0.68660   0.52213   0.47610   0.00000  Uiso   1.00
C200   C     0.64941   0.54042   0.39176   0.00000  Uiso   1.00
C201   C     0.58125   0.49496   0.38029   0.00000  Uiso   1.00
C202   C     0.79139   0.52044   0.46171   0.00000  Uiso   1.00
C203   C     0.84232   0.53732   0.36530   0.00000  Uiso   1.00
C204   C     0.86238   0.49045   0.34173   0.00000  Uiso   1.00
C205   C     0.76968   0.57233   0.66112   0.00000  Uiso   1.00
C206   C     0.80236   0.63283   0.73236   0.00000  Uiso   1.00
C207   C     0.80417   0.62965   0.87668   0.00000  Uiso   1.00
H208   H     0.68362   0.40302   0.68778   0.00000  Uiso   1.00
H209   H     0.56558   0.36751   0.58963   0.00000  Uiso   1.00
H210   H     0.75846   0.36442   0.56319   0.00000  Uiso   1.00
H211   H     0.71851   0.45992   0.93019   0.00000  Uiso   1.00
H212   H     0.44788   0.35527   0.44973   0.00000  Uiso   1.00
H213   H     0.85459   0.34875   0.39400   0.00000  Uiso   1.00
H214   H     0.77035   0.55012   0.16791   0.00000  Uiso   1.00
H215   H     0.78499   0.61206   0.44857   0.00000  Uiso   1.00
H216   H     0.67251   0.58803   0.33729   0.00000  Uiso   1.00
H217   H     0.86539   0.58493   0.31085   0.00000  Uiso   1.00
H218   H     0.82544   0.68043   0.67785   0.00000  Uiso   1.00
H219   H     0.53466   0.53424   0.24492   0.00000  Uiso   1.00
H220   H     0.94138   0.52773   0.18920   0.00000  Uiso   1.00
H221   H     0.85714   0.72910   0.96310   0.00000  Uiso   1.00
O222   O     0.41545   0.42516   0.27840   0.00000  Uiso   1.00
O223   O     0.94905   0.41662   0.20532   0.00000  Uiso   1.00
O224   O     0.83853   0.68081   0.22066   0.00000  Uiso   1.00
N225   N     0.48373   0.40069   0.41682   0.00000  Uiso   1.00
N226   N     0.86398   0.39460   0.36470   0.00000  Uiso   1.00
N227   N     0.78524   0.58286   0.08824   0.00000  Uiso   1.00
N228   N     0.53043   0.49700   0.30661   0.00000  Uiso   1.00
N229   N     0.91068   0.49090   0.25450   0.00000  Uiso   1.00
N230   N     0.83194   0.67917   0.97804   0.00000  Uiso   1.00
C231   C     0.74407   0.29316   0.96631   0.00000  Uiso   1.00
C232   C     0.80385   0.34323   0.87982   0.00000  Uiso   1.00
C233   C     0.82647   0.41135   0.86848   0.00000  Uiso   1.00
C234   C     0.88197   0.44863   0.78414   0.00000  Uiso   1.00
C235   C     0.96994   0.53092   0.66050   0.00000  Uiso   1.00
C236   C     0.69737   0.23844   0.86544   0.00000  Uiso   1.00
C237   C     0.63046   0.21845   0.84202   0.00000  Uiso   1.00
C238   C     0.59633   0.16750   0.74558   0.00000  Uiso   1.00
C239   C     0.51898   0.08707   0.59969   0.00000  Uiso   1.00
C240   C     0.77096   0.26015   0.06484   0.00000  Uiso   1.00
C241   C     0.76593   0.25840   0.20909   0.00000  Uiso   1.00
C242   C     0.79374   0.22572   0.28054   0.00000  Uiso   1.00
C243   C     0.83066   0.17900   0.44425   0.00000  Uiso   1.00
C244   C     0.80240   0.23823   0.83671   0.00000  Uiso   1.00
C245   C     0.83553   0.31340   0.80943   0.00000  Uiso   1.00
C246   C     0.89101   0.35059   0.72509   0.00000  Uiso   1.00
C247   C     0.91371   0.41875   0.71362   0.00000  Uiso   1.00
C248   C     0.72905   0.20861   0.79505   0.00000  Uiso   1.00
C249   C     0.69500   0.15768   0.69863   0.00000  Uiso   1.00
C250   C     0.62807   0.13762   0.67506   0.00000  Uiso   1.00
C251   C     0.80265   0.23032   0.99445   0.00000  Uiso   1.00
C252   C     0.83047   0.19764   0.06569   0.00000  Uiso   1.00
C253   C     0.82548   0.19583   0.21001   0.00000  Uiso   1.00
H254   H     0.71940   0.31638   0.02111   0.00000  Uiso   1.00
H255   H     0.80193   0.43442   0.92296   0.00000  Uiso   1.00
H256   H     0.60596   0.24154   0.89652   0.00000  Uiso   1.00
H257   H     0.74140   0.28149   0.26352   0.00000  Uiso   1.00
H258   H     0.90739   0.55212   0.78306   0.00000  Uiso   1.00
H259   H     0.49416   0.14541   0.72734   0.00000  Uiso   1.00
H260   H     0.77977   0.22965   0.50124   0.00000  Uiso   1.00
H261   H     0.82707   0.21501   0.78190   0.00000  Uiso   1.00
H262   H     0.91552   0.32749   0.67063   0.00000  Uiso   1.00
H263   H     0.71954   0.13461   0.64418   0.00000  Uiso   1.00
H264   H     0.85499   0.17456   0.01119   0.00000  Uiso   1.00
H265   H     0.99958   0.46534   0.57825   0.00000  Uiso   1.00
H266   H     0.58635   0.05862   0.52253   0.00000  Uiso   1.00
H267   H     0.87196   0.14286   0.29643   0.00000  Uiso   1.00
O268   O     0.00971   0.58455   0.61173   0.00000  Uiso   1.00
O269   O     0.46757   0.05095   0.53865   0.00000  Uiso   1.00
O270   O     0.84229   0.16147   0.55399   0.00000  Uiso   1.00
N271   N     0.91696   0.51627   0.75015   0.00000  Uiso   1.00
N272   N     0.53062   0.13602   0.69804   0.00000  Uiso   1.00
N273   N     0.79762   0.21476   0.42157   0.00000  Uiso   1.00
N274   N     0.96657   0.46957   0.63995   0.00000  Uiso   1.00
N275   N     0.58022   0.08932   0.58783   0.00000  Uiso   1.00
N276   N     0.84723   0.16806   0.31137   0.00000  Uiso   1.00
