data_job_05084
_audit_creation_date              2018-12-19
_audit_creation_method            'Materials Studio'
_symmetry_space_group_name_H-M    'P1'
_symmetry_Int_Tables_number       1
_symmetry_cell_setting            triclinic
loop_
_symmetry_equiv_pos_as_xyz
  x,y,z
_cell_length_a                    20.3197
_cell_length_b                    30.7187
_cell_length_c                    12.6844
_cell_angle_alpha                 90.0000
_cell_angle_beta                  144.1263
_cell_angle_gamma                 90.0000
loop_
_atom_site_label
_atom_site_type_symbol
_atom_site_fract_x
_atom_site_fract_y
_atom_site_fract_z
_atom_site_U_iso_or_equiv
_atom_site_adp_type
_atom_site_occupancy
C1     C     0.77335   0.59744   0.67222   0.00000  Uiso   1.00
C2     C     0.89104   0.58484   0.78869   0.00000  Uiso   1.00
C3     C     0.92912   0.54274   0.82097   0.00000  Uiso   1.00
C4     C     0.03961   0.53804   0.93136   0.00000  Uiso   1.00
C5     C     0.21175   0.51299   0.10083   0.00000  Uiso   1.00
C6     C     0.78900   0.62431   0.79255   0.00000  Uiso   1.00
C7     C     0.74127   0.61539   0.82804   0.00000  Uiso   1.00
C8     C     0.76586   0.64392   0.94166   0.00000  Uiso   1.00
C9     C     0.77951   0.68015   0.11700   0.00000  Uiso   1.00
C10    C     0.72809   0.62876   0.53045   0.00000  Uiso   1.00
C11    C     0.62913   0.62359   0.34556   0.00000  Uiso   1.00
C12    C     0.60243   0.65587   0.23851   0.00000  Uiso   1.00
C13    C     0.52152   0.69902   0.00690   0.00000  Uiso   1.00
C14    C     0.90187   0.66398   0.81086   0.00000  Uiso   1.00
C15    C     0.96085   0.62099   0.86400   0.00000  Uiso   1.00
C16    C     0.07131   0.61635   0.97436   0.00000  Uiso   1.00
C17    C     0.10955   0.57425   0.00679   0.00000  Uiso   1.00
C18    C     0.85880   0.66045   0.86785   0.00000  Uiso   1.00
C19    C     0.88346   0.68900   0.98143   0.00000  Uiso   1.00
C20    C     0.83579   0.68012   0.01710   0.00000  Uiso   1.00
C21    C     0.79790   0.66490   0.60575   0.00000  Uiso   1.00
C22    C     0.77134   0.69720   0.49896   0.00000  Uiso   1.00
C23    C     0.67237   0.69208   0.31395   0.00000  Uiso   1.00
H24    H     0.71900   0.56930   0.61360   0.00000  Uiso   1.00
H25    H     0.87507   0.51478   0.76268   0.00000  Uiso   1.00
H26    H     0.68724   0.58742   0.76973   0.00000  Uiso   1.00
H27    H     0.57513   0.59562   0.28734   0.00000  Uiso   1.00
H28    H     0.07890   0.47026   0.96123   0.00000  Uiso   1.00
H29    H     0.68282   0.62344   0.97605   0.00000  Uiso   1.00
H30    H     0.44642   0.64073   0.95882   0.00000  Uiso   1.00
H31    H     0.95622   0.69212   0.86949   0.00000  Uiso   1.00
H32    H     0.12532   0.64433   0.03262   0.00000  Uiso   1.00
H33    H     0.93749   0.71697   0.03967   0.00000  Uiso   1.00
H34    H     0.82538   0.72517   0.55728   0.00000  Uiso   1.00
H35    H     0.28201   0.57541   0.18033   0.00000  Uiso   1.00
H36    H     0.88593   0.72859   0.19515   0.00000  Uiso   1.00
H37    H     0.64953   0.74587   0.17792   0.00000  Uiso   1.00
O38    O     0.28742   0.48918   0.17352   0.00000  Uiso   1.00
O39    O     0.76776   0.69015   0.19293   0.00000  Uiso   1.00
O40    O     0.45761   0.71283   0.85836   0.00000  Uiso   1.00
N41    N     0.10349   0.50157   0.99038   0.00000  Uiso   1.00
N42    N     0.73320   0.64477   0.00426   0.00000  Uiso   1.00
N43    N     0.51216   0.66094   0.05323   0.00000  Uiso   1.00
N44    N     0.21278   0.55815   0.10827   0.00000  Uiso   1.00
N45    N     0.84249   0.70135   0.12215   0.00000  Uiso   1.00
N46    N     0.62145   0.71752   0.17112   0.00000  Uiso   1.00
C47    C     0.27335   0.09744   0.67222   0.00000  Uiso   1.00
C48    C     0.39104   0.08484   0.78869   0.00000  Uiso   1.00
C49    C     0.42912   0.04274   0.82097   0.00000  Uiso   1.00
C50    C     0.53961   0.03804   0.93136   0.00000  Uiso   1.00
C51    C     0.71175   0.01299   0.10083   0.00000  Uiso   1.00
C52    C     0.28900   0.12431   0.79255   0.00000  Uiso   1.00
C53    C     0.24127   0.11539   0.82804   0.00000  Uiso   1.00
C54    C     0.26586   0.14392   0.94166   0.00000  Uiso   1.00
C55    C     0.27951   0.18015   0.11700   0.00000  Uiso   1.00
C56    C     0.22809   0.12876   0.53045   0.00000  Uiso   1.00
C57    C     0.12913   0.12359   0.34556   0.00000  Uiso   1.00
C58    C     0.10243   0.15587   0.23851   0.00000  Uiso   1.00
C59    C     0.02152   0.19902   0.00690   0.00000  Uiso   1.00
C60    C     0.40187   0.16398   0.81086   0.00000  Uiso   1.00
C61    C     0.46085   0.12099   0.86400   0.00000  Uiso   1.00
C62    C     0.57131   0.11635   0.97436   0.00000  Uiso   1.00
C63    C     0.60955   0.07425   0.00679   0.00000  Uiso   1.00
C64    C     0.35880   0.16045   0.86785   0.00000  Uiso   1.00
C65    C     0.38346   0.18900   0.98143   0.00000  Uiso   1.00
C66    C     0.33579   0.18012   0.01710   0.00000  Uiso   1.00
C67    C     0.29790   0.16490   0.60575   0.00000  Uiso   1.00
C68    C     0.27134   0.19720   0.49896   0.00000  Uiso   1.00
C69    C     0.17237   0.19208   0.31395   0.00000  Uiso   1.00
H70    H     0.21900   0.06930   0.61360   0.00000  Uiso   1.00
H71    H     0.37507   0.01478   0.76268   0.00000  Uiso   1.00
H72    H     0.18724   0.08742   0.76973   0.00000  Uiso   1.00
H73    H     0.07513   0.09562   0.28734   0.00000  Uiso   1.00
H74    H     0.57890   0.97026   0.96123   0.00000  Uiso   1.00
H75    H     0.18282   0.12344   0.97605   0.00000  Uiso   1.00
H76    H     0.94642   0.14073   0.95882   0.00000  Uiso   1.00
H77    H     0.45622   0.19212   0.86949   0.00000  Uiso   1.00
H78    H     0.62532   0.14433   0.03262   0.00000  Uiso   1.00
H79    H     0.43749   0.21697   0.03967   0.00000  Uiso   1.00
H80    H     0.32538   0.22517   0.55728   0.00000  Uiso   1.00
H81    H     0.78201   0.07541   0.18033   0.00000  Uiso   1.00
H82    H     0.38593   0.22859   0.19515   0.00000  Uiso   1.00
H83    H     0.14953   0.24587   0.17792   0.00000  Uiso   1.00
O84    O     0.78742   0.98918   0.17352   0.00000  Uiso   1.00
O85    O     0.26776   0.19015   0.19293   0.00000  Uiso   1.00
O86    O     0.95761   0.21283   0.85836   0.00000  Uiso   1.00
N87    N     0.60349   0.00157   0.99038   0.00000  Uiso   1.00
N88    N     0.23320   0.14477   0.00426   0.00000  Uiso   1.00
N89    N     0.01216   0.16094   0.05323   0.00000  Uiso   1.00
N90    N     0.71278   0.05815   0.10827   0.00000  Uiso   1.00
N91    N     0.34249   0.20135   0.12215   0.00000  Uiso   1.00
N92    N     0.12145   0.21752   0.17112   0.00000  Uiso   1.00
C93    C     0.22665   0.59744   0.82778   0.00000  Uiso   1.00
C94    C     0.10896   0.58484   0.71131   0.00000  Uiso   1.00
C95    C     0.07088   0.54274   0.67903   0.00000  Uiso   1.00
C96    C     0.96039   0.53804   0.56864   0.00000  Uiso   1.00
C97    C     0.78825   0.51299   0.39917   0.00000  Uiso   1.00
C98    C     0.21100   0.62431   0.70745   0.00000  Uiso   1.00
C99    C     0.25873   0.61539   0.67196   0.00000  Uiso   1.00
C100   C     0.23414   0.64392   0.55834   0.00000  Uiso   1.00
C101   C     0.22049   0.68015   0.38300   0.00000  Uiso   1.00
C102   C     0.27191   0.62876   0.96955   0.00000  Uiso   1.00
C103   C     0.37087   0.62359   0.15444   0.00000  Uiso   1.00
C104   C     0.39757   0.65587   0.26149   0.00000  Uiso   1.00
C105   C     0.47848   0.69902   0.49310   0.00000  Uiso   1.00
C106   C     0.09813   0.66398   0.68914   0.00000  Uiso   1.00
C107   C     0.03915   0.62099   0.63600   0.00000  Uiso   1.00
C108   C     0.92869   0.61635   0.52564   0.00000  Uiso   1.00
C109   C     0.89045   0.57425   0.49321   0.00000  Uiso   1.00
C110   C     0.14120   0.66045   0.63215   0.00000  Uiso   1.00
C111   C     0.11654   0.68900   0.51857   0.00000  Uiso   1.00
C112   C     0.16421   0.68012   0.48290   0.00000  Uiso   1.00
C113   C     0.20210   0.66490   0.89425   0.00000  Uiso   1.00
C114   C     0.22866   0.69720   0.00104   0.00000  Uiso   1.00
C115   C     0.32763   0.69208   0.18605   0.00000  Uiso   1.00
H116   H     0.28100   0.56930   0.88640   0.00000  Uiso   1.00
H117   H     0.12493   0.51478   0.73732   0.00000  Uiso   1.00
H118   H     0.31276   0.58742   0.73027   0.00000  Uiso   1.00
H119   H     0.42487   0.59562   0.21266   0.00000  Uiso   1.00
H120   H     0.92110   0.47026   0.53877   0.00000  Uiso   1.00
H121   H     0.31718   0.62344   0.52395   0.00000  Uiso   1.00
H122   H     0.55358   0.64073   0.54118   0.00000  Uiso   1.00
H123   H     0.04378   0.69212   0.63051   0.00000  Uiso   1.00
H124   H     0.87468   0.64433   0.46738   0.00000  Uiso   1.00
H125   H     0.06251   0.71697   0.46033   0.00000  Uiso   1.00
H126   H     0.17462   0.72517   0.94272   0.00000  Uiso   1.00
H127   H     0.71799   0.57541   0.31967   0.00000  Uiso   1.00
H128   H     0.11407   0.72859   0.30485   0.00000  Uiso   1.00
H129   H     0.35047   0.74587   0.32208   0.00000  Uiso   1.00
O130   O     0.71258   0.48918   0.32648   0.00000  Uiso   1.00
O131   O     0.23224   0.69015   0.30707   0.00000  Uiso   1.00
O132   O     0.54239   0.71283   0.64164   0.00000  Uiso   1.00
N133   N     0.89651   0.50157   0.50962   0.00000  Uiso   1.00
N134   N     0.26680   0.64477   0.49574   0.00000  Uiso   1.00
N135   N     0.48784   0.66094   0.44677   0.00000  Uiso   1.00
N136   N     0.78722   0.55815   0.39173   0.00000  Uiso   1.00
N137   N     0.15751   0.70135   0.37785   0.00000  Uiso   1.00
N138   N     0.37855   0.71752   0.32888   0.00000  Uiso   1.00
C139   C     0.72665   0.09744   0.82778   0.00000  Uiso   1.00
C140   C     0.60896   0.08484   0.71131   0.00000  Uiso   1.00
C141   C     0.57088   0.04274   0.67903   0.00000  Uiso   1.00
C142   C     0.46039   0.03804   0.56864   0.00000  Uiso   1.00
C143   C     0.28825   0.01299   0.39917   0.00000  Uiso   1.00
C144   C     0.71100   0.12431   0.70745   0.00000  Uiso   1.00
C145   C     0.75873   0.11539   0.67196   0.00000  Uiso   1.00
C146   C     0.73414   0.14392   0.55834   0.00000  Uiso   1.00
C147   C     0.72049   0.18015   0.38300   0.00000  Uiso   1.00
C148   C     0.77191   0.12876   0.96955   0.00000  Uiso   1.00
C149   C     0.87087   0.12359   0.15444   0.00000  Uiso   1.00
C150   C     0.89757   0.15587   0.26149   0.00000  Uiso   1.00
C151   C     0.97848   0.19902   0.49310   0.00000  Uiso   1.00
C152   C     0.59813   0.16398   0.68914   0.00000  Uiso   1.00
C153   C     0.53915   0.12099   0.63600   0.00000  Uiso   1.00
C154   C     0.42869   0.11635   0.52564   0.00000  Uiso   1.00
C155   C     0.39045   0.07425   0.49321   0.00000  Uiso   1.00
C156   C     0.64120   0.16045   0.63215   0.00000  Uiso   1.00
C157   C     0.61654   0.18900   0.51857   0.00000  Uiso   1.00
C158   C     0.66421   0.18012   0.48290   0.00000  Uiso   1.00
C159   C     0.70210   0.16490   0.89425   0.00000  Uiso   1.00
C160   C     0.72866   0.19720   0.00104   0.00000  Uiso   1.00
C161   C     0.82763   0.19208   0.18605   0.00000  Uiso   1.00
H162   H     0.78100   0.06930   0.88640   0.00000  Uiso   1.00
H163   H     0.62493   0.01478   0.73732   0.00000  Uiso   1.00
H164   H     0.81276   0.08742   0.73027   0.00000  Uiso   1.00
H165   H     0.92487   0.09562   0.21266   0.00000  Uiso   1.00
H166   H     0.42110   0.97026   0.53877   0.00000  Uiso   1.00
H167   H     0.81718   0.12344   0.52395   0.00000  Uiso   1.00
H168   H     0.05358   0.14073   0.54118   0.00000  Uiso   1.00
H169   H     0.54378   0.19212   0.63051   0.00000  Uiso   1.00
H170   H     0.37468   0.14433   0.46738   0.00000  Uiso   1.00
H171   H     0.56251   0.21697   0.46033   0.00000  Uiso   1.00
H172   H     0.67462   0.22517   0.94272   0.00000  Uiso   1.00
H173   H     0.21799   0.07541   0.31967   0.00000  Uiso   1.00
H174   H     0.61407   0.22859   0.30485   0.00000  Uiso   1.00
H175   H     0.85047   0.24587   0.32208   0.00000  Uiso   1.00
O176   O     0.21258   0.98918   0.32648   0.00000  Uiso   1.00
O177   O     0.73224   0.19015   0.30707   0.00000  Uiso   1.00
O178   O     0.04239   0.21283   0.64164   0.00000  Uiso   1.00
N179   N     0.39651   0.00157   0.50962   0.00000  Uiso   1.00
N180   N     0.76680   0.14477   0.49574   0.00000  Uiso   1.00
N181   N     0.98784   0.16094   0.44677   0.00000  Uiso   1.00
N182   N     0.28722   0.05815   0.39173   0.00000  Uiso   1.00
N183   N     0.65751   0.20135   0.37785   0.00000  Uiso   1.00
N184   N     0.87855   0.21752   0.32888   0.00000  Uiso   1.00
C185   C     0.22665   0.40256   0.32778   0.00000  Uiso   1.00
C186   C     0.10896   0.41516   0.21131   0.00000  Uiso   1.00
C187   C     0.07088   0.45726   0.17903   0.00000  Uiso   1.00
C188   C     0.96039   0.46196   0.06864   0.00000  Uiso   1.00
C189   C     0.78825   0.48701   0.89917   0.00000  Uiso   1.00
C190   C     0.21100   0.37569   0.20745   0.00000  Uiso   1.00
C191   C     0.25873   0.38461   0.17196   0.00000  Uiso   1.00
C192   C     0.23414   0.35608   0.05834   0.00000  Uiso   1.00
C193   C     0.22049   0.31985   0.88300   0.00000  Uiso   1.00
C194   C     0.27191   0.37124   0.46955   0.00000  Uiso   1.00
C195   C     0.37087   0.37641   0.65444   0.00000  Uiso   1.00
C196   C     0.39757   0.34413   0.76149   0.00000  Uiso   1.00
C197   C     0.47848   0.30098   0.99310   0.00000  Uiso   1.00
C198   C     0.09813   0.33602   0.18914   0.00000  Uiso   1.00
C199   C     0.03915   0.37901   0.13600   0.00000  Uiso   1.00
C200   C     0.92869   0.38365   0.02564   0.00000  Uiso   1.00
C201   C     0.89045   0.42575   0.99321   0.00000  Uiso   1.00
C202   C     0.14120   0.33955   0.13215   0.00000  Uiso   1.00
C203   C     0.11654   0.31100   0.01857   0.00000  Uiso   1.00
C204   C     0.16421   0.31988   0.98290   0.00000  Uiso   1.00
C205   C     0.20210   0.33510   0.39425   0.00000  Uiso   1.00
C206   C     0.22866   0.30280   0.50104   0.00000  Uiso   1.00
C207   C     0.32763   0.30792   0.68605   0.00000  Uiso   1.00
H208   H     0.28100   0.43070   0.38640   0.00000  Uiso   1.00
H209   H     0.12493   0.48522   0.23732   0.00000  Uiso   1.00
H210   H     0.31276   0.41258   0.23027   0.00000  Uiso   1.00
H211   H     0.42487   0.40438   0.71266   0.00000  Uiso   1.00
H212   H     0.92110   0.52974   0.03877   0.00000  Uiso   1.00
H213   H     0.31718   0.37656   0.02395   0.00000  Uiso   1.00
H214   H     0.55358   0.35927   0.04118   0.00000  Uiso   1.00
H215   H     0.04378   0.30788   0.13051   0.00000  Uiso   1.00
H216   H     0.87468   0.35567   0.96738   0.00000  Uiso   1.00
H217   H     0.06251   0.28303   0.96033   0.00000  Uiso   1.00
H218   H     0.17462   0.27483   0.44272   0.00000  Uiso   1.00
H219   H     0.71799   0.42459   0.81967   0.00000  Uiso   1.00
H220   H     0.11407   0.27141   0.80485   0.00000  Uiso   1.00
H221   H     0.35047   0.25413   0.82208   0.00000  Uiso   1.00
O222   O     0.71258   0.51082   0.82648   0.00000  Uiso   1.00
O223   O     0.23224   0.30985   0.80707   0.00000  Uiso   1.00
O224   O     0.54239   0.28717   0.14164   0.00000  Uiso   1.00
N225   N     0.89651   0.49843   0.00962   0.00000  Uiso   1.00
N226   N     0.26680   0.35523   0.99574   0.00000  Uiso   1.00
N227   N     0.48784   0.33906   0.94677   0.00000  Uiso   1.00
N228   N     0.78722   0.44185   0.89173   0.00000  Uiso   1.00
N229   N     0.15751   0.29865   0.87785   0.00000  Uiso   1.00
N230   N     0.37855   0.28248   0.82888   0.00000  Uiso   1.00
C231   C     0.72665   0.90256   0.32778   0.00000  Uiso   1.00
C232   C     0.60896   0.91516   0.21131   0.00000  Uiso   1.00
C233   C     0.57088   0.95726   0.17903   0.00000  Uiso   1.00
C234   C     0.46039   0.96196   0.06864   0.00000  Uiso   1.00
C235   C     0.28825   0.98701   0.89917   0.00000  Uiso   1.00
C236   C     0.71100   0.87569   0.20745   0.00000  Uiso   1.00
C237   C     0.75873   0.88461   0.17196   0.00000  Uiso   1.00
C238   C     0.73414   0.85608   0.05834   0.00000  Uiso   1.00
C239   C     0.72049   0.81985   0.88300   0.00000  Uiso   1.00
C240   C     0.77191   0.87124   0.46955   0.00000  Uiso   1.00
C241   C     0.87087   0.87641   0.65444   0.00000  Uiso   1.00
C242   C     0.89757   0.84413   0.76149   0.00000  Uiso   1.00
C243   C     0.97848   0.80098   0.99310   0.00000  Uiso   1.00
C244   C     0.59813   0.83602   0.18914   0.00000  Uiso   1.00
C245   C     0.53915   0.87901   0.13600   0.00000  Uiso   1.00
C246   C     0.42869   0.88365   0.02564   0.00000  Uiso   1.00
C247   C     0.39045   0.92575   0.99321   0.00000  Uiso   1.00
C248   C     0.64120   0.83955   0.13215   0.00000  Uiso   1.00
C249   C     0.61654   0.81100   0.01857   0.00000  Uiso   1.00
C250   C     0.66421   0.81988   0.98290   0.00000  Uiso   1.00
C251   C     0.70210   0.83510   0.39425   0.00000  Uiso   1.00
C252   C     0.72866   0.80280   0.50104   0.00000  Uiso   1.00
C253   C     0.82763   0.80792   0.68605   0.00000  Uiso   1.00
H254   H     0.78100   0.93070   0.38640   0.00000  Uiso   1.00
H255   H     0.62493   0.98522   0.23732   0.00000  Uiso   1.00
H256   H     0.81276   0.91258   0.23027   0.00000  Uiso   1.00
H257   H     0.92487   0.90438   0.71266   0.00000  Uiso   1.00
H258   H     0.42110   0.02974   0.03877   0.00000  Uiso   1.00
H259   H     0.81718   0.87656   0.02395   0.00000  Uiso   1.00
H260   H     0.05358   0.85927   0.04118   0.00000  Uiso   1.00
H261   H     0.54378   0.80788   0.13051   0.00000  Uiso   1.00
H262   H     0.37468   0.85567   0.96738   0.00000  Uiso   1.00
H263   H     0.56251   0.78303   0.96033   0.00000  Uiso   1.00
H264   H     0.67462   0.77483   0.44272   0.00000  Uiso   1.00
H265   H     0.21799   0.92459   0.81967   0.00000  Uiso   1.00
H266   H     0.61407   0.77141   0.80485   0.00000  Uiso   1.00
H267   H     0.85047   0.75413   0.82208   0.00000  Uiso   1.00
O268   O     0.21258   0.01082   0.82648   0.00000  Uiso   1.00
O269   O     0.73224   0.80985   0.80707   0.00000  Uiso   1.00
O270   O     0.04239   0.78717   0.14164   0.00000  Uiso   1.00
N271   N     0.39651   0.99843   0.00962   0.00000  Uiso   1.00
N272   N     0.76680   0.85523   0.99574   0.00000  Uiso   1.00
N273   N     0.98784   0.83906   0.94677   0.00000  Uiso   1.00
N274   N     0.28722   0.94185   0.89173   0.00000  Uiso   1.00
N275   N     0.65751   0.79865   0.87785   0.00000  Uiso   1.00
N276   N     0.87855   0.78248   0.82888   0.00000  Uiso   1.00
C277   C     0.77335   0.40256   0.17222   0.00000  Uiso   1.00
C278   C     0.89104   0.41516   0.28869   0.00000  Uiso   1.00
C279   C     0.92912   0.45726   0.32097   0.00000  Uiso   1.00
C280   C     0.03961   0.46196   0.43136   0.00000  Uiso   1.00
C281   C     0.21175   0.48701   0.60083   0.00000  Uiso   1.00
C282   C     0.78900   0.37569   0.29255   0.00000  Uiso   1.00
C283   C     0.74127   0.38461   0.32804   0.00000  Uiso   1.00
C284   C     0.76586   0.35608   0.44166   0.00000  Uiso   1.00
C285   C     0.77951   0.31985   0.61700   0.00000  Uiso   1.00
C286   C     0.72809   0.37124   0.03045   0.00000  Uiso   1.00
C287   C     0.62913   0.37641   0.84556   0.00000  Uiso   1.00
C288   C     0.60243   0.34413   0.73851   0.00000  Uiso   1.00
C289   C     0.52152   0.30098   0.50690   0.00000  Uiso   1.00
C290   C     0.90187   0.33602   0.31086   0.00000  Uiso   1.00
C291   C     0.96085   0.37901   0.36400   0.00000  Uiso   1.00
C292   C     0.07131   0.38365   0.47436   0.00000  Uiso   1.00
C293   C     0.10955   0.42575   0.50679   0.00000  Uiso   1.00
C294   C     0.85880   0.33955   0.36785   0.00000  Uiso   1.00
C295   C     0.88346   0.31100   0.48143   0.00000  Uiso   1.00
C296   C     0.83579   0.31988   0.51710   0.00000  Uiso   1.00
C297   C     0.79790   0.33510   0.10575   0.00000  Uiso   1.00
C298   C     0.77134   0.30280   0.99896   0.00000  Uiso   1.00
C299   C     0.67237   0.30792   0.81395   0.00000  Uiso   1.00
H300   H     0.71900   0.43070   0.11360   0.00000  Uiso   1.00
H301   H     0.87507   0.48522   0.26268   0.00000  Uiso   1.00
H302   H     0.68724   0.41258   0.26973   0.00000  Uiso   1.00
H303   H     0.57513   0.40438   0.78734   0.00000  Uiso   1.00
H304   H     0.07890   0.52974   0.46123   0.00000  Uiso   1.00
H305   H     0.68282   0.37656   0.47605   0.00000  Uiso   1.00
H306   H     0.44642   0.35927   0.45882   0.00000  Uiso   1.00
H307   H     0.95622   0.30788   0.36949   0.00000  Uiso   1.00
H308   H     0.12532   0.35567   0.53262   0.00000  Uiso   1.00
H309   H     0.93749   0.28303   0.53967   0.00000  Uiso   1.00
H310   H     0.82538   0.27483   0.05728   0.00000  Uiso   1.00
H311   H     0.28201   0.42459   0.68033   0.00000  Uiso   1.00
H312   H     0.88593   0.27141   0.69515   0.00000  Uiso   1.00
H313   H     0.64953   0.25413   0.67792   0.00000  Uiso   1.00
O314   O     0.28742   0.51082   0.67352   0.00000  Uiso   1.00
O315   O     0.76776   0.30985   0.69293   0.00000  Uiso   1.00
O316   O     0.45761   0.28717   0.35836   0.00000  Uiso   1.00
N317   N     0.10349   0.49843   0.49038   0.00000  Uiso   1.00
N318   N     0.73320   0.35523   0.50426   0.00000  Uiso   1.00
N319   N     0.51216   0.33906   0.55323   0.00000  Uiso   1.00
N320   N     0.21278   0.44185   0.60827   0.00000  Uiso   1.00
N321   N     0.84249   0.29865   0.62215   0.00000  Uiso   1.00
N322   N     0.62145   0.28248   0.67112   0.00000  Uiso   1.00
C323   C     0.27335   0.90256   0.17222   0.00000  Uiso   1.00
C324   C     0.39104   0.91516   0.28869   0.00000  Uiso   1.00
C325   C     0.42912   0.95726   0.32097   0.00000  Uiso   1.00
C326   C     0.53961   0.96196   0.43136   0.00000  Uiso   1.00
C327   C     0.71175   0.98701   0.60083   0.00000  Uiso   1.00
C328   C     0.28900   0.87569   0.29255   0.00000  Uiso   1.00
C329   C     0.24127   0.88461   0.32804   0.00000  Uiso   1.00
C330   C     0.26586   0.85608   0.44166   0.00000  Uiso   1.00
C331   C     0.27951   0.81985   0.61700   0.00000  Uiso   1.00
C332   C     0.22809   0.87124   0.03045   0.00000  Uiso   1.00
C333   C     0.12913   0.87641   0.84556   0.00000  Uiso   1.00
C334   C     0.10243   0.84413   0.73851   0.00000  Uiso   1.00
C335   C     0.02152   0.80098   0.50690   0.00000  Uiso   1.00
C336   C     0.40187   0.83602   0.31086   0.00000  Uiso   1.00
C337   C     0.46085   0.87901   0.36400   0.00000  Uiso   1.00
C338   C     0.57131   0.88365   0.47436   0.00000  Uiso   1.00
C339   C     0.60955   0.92575   0.50679   0.00000  Uiso   1.00
C340   C     0.35880   0.83955   0.36785   0.00000  Uiso   1.00
C341   C     0.38346   0.81100   0.48143   0.00000  Uiso   1.00
C342   C     0.33579   0.81988   0.51710   0.00000  Uiso   1.00
C343   C     0.29790   0.83510   0.10575   0.00000  Uiso   1.00
C344   C     0.27134   0.80280   0.99896   0.00000  Uiso   1.00
C345   C     0.17237   0.80792   0.81395   0.00000  Uiso   1.00
H346   H     0.21900   0.93070   0.11360   0.00000  Uiso   1.00
H347   H     0.37507   0.98522   0.26268   0.00000  Uiso   1.00
H348   H     0.18724   0.91258   0.26973   0.00000  Uiso   1.00
H349   H     0.07513   0.90438   0.78734   0.00000  Uiso   1.00
H350   H     0.57890   0.02974   0.46123   0.00000  Uiso   1.00
H351   H     0.18282   0.87656   0.47605   0.00000  Uiso   1.00
H352   H     0.94642   0.85927   0.45882   0.00000  Uiso   1.00
H353   H     0.45622   0.80788   0.36949   0.00000  Uiso   1.00
H354   H     0.62532   0.85567   0.53262   0.00000  Uiso   1.00
H355   H     0.43749   0.78303   0.53967   0.00000  Uiso   1.00
H356   H     0.32538   0.77483   0.05728   0.00000  Uiso   1.00
H357   H     0.78201   0.92459   0.68033   0.00000  Uiso   1.00
H358   H     0.38593   0.77141   0.69515   0.00000  Uiso   1.00
H359   H     0.14953   0.75413   0.67792   0.00000  Uiso   1.00
O360   O     0.78742   0.01082   0.67352   0.00000  Uiso   1.00
O361   O     0.26776   0.80985   0.69293   0.00000  Uiso   1.00
O362   O     0.95761   0.78717   0.35836   0.00000  Uiso   1.00
N363   N     0.60349   0.99843   0.49038   0.00000  Uiso   1.00
N364   N     0.23320   0.85523   0.50426   0.00000  Uiso   1.00
N365   N     0.01216   0.83906   0.55323   0.00000  Uiso   1.00
N366   N     0.71278   0.94185   0.60827   0.00000  Uiso   1.00
N367   N     0.34249   0.79865   0.62215   0.00000  Uiso   1.00
N368   N     0.12145   0.78248   0.67112   0.00000  Uiso   1.00
