data_job_04023
_audit_creation_date              2018-12-19
_audit_creation_method            'Materials Studio'
_symmetry_space_group_name_H-M    'P1'
_symmetry_Int_Tables_number       1
_symmetry_cell_setting            triclinic
loop_
_symmetry_equiv_pos_as_xyz
  x,y,z
_cell_length_a                    12.4952
_cell_length_b                    11.3389
_cell_length_c                    17.4752
_cell_angle_alpha                 90.0000
_cell_angle_beta                  90.0000
_cell_angle_gamma                 90.0000
loop_
_atom_site_label
_atom_site_type_symbol
_atom_site_fract_x
_atom_site_fract_y
_atom_site_fract_z
_atom_site_U_iso_or_equiv
_atom_site_adp_type
_atom_site_occupancy
C1     C     0.86137   0.32310   0.74188   0.00000  Uiso   1.00
C2     C     0.77790   0.41643   0.72223   0.00000  Uiso   1.00
C3     C     0.68097   0.43281   0.75951   0.00000  Uiso   1.00
C4     C     0.61571   0.52300   0.73287   0.00000  Uiso   1.00
C5     C     0.48142   0.65705   0.71171   0.00000  Uiso   1.00
C6     C     0.87968   0.25283   0.66864   0.00000  Uiso   1.00
C7     C     0.86834   0.13166   0.66087   0.00000  Uiso   1.00
C8     C     0.88878   0.08413   0.58912   0.00000  Uiso   1.00
C9     C     0.91258   0.96418   0.48479   0.00000  Uiso   1.00
C10    C     0.96521   0.38984   0.75691   0.00000  Uiso   1.00
C11    C     0.02580   0.38385   0.82336   0.00000  Uiso   1.00
C12    C     0.11825   0.45166   0.82592   0.00000  Uiso   1.00
C13    C     0.27485   0.54444   0.85864   0.00000  Uiso   1.00
C14    C     0.91784   0.45414   0.62827   0.00000  Uiso   1.00
C15    C     0.80858   0.48760   0.66051   0.00000  Uiso   1.00
C16    C     0.74345   0.57780   0.63381   0.00000  Uiso   1.00
C17    C     0.64644   0.59432   0.67105   0.00000  Uiso   1.00
C18    C     0.91036   0.32400   0.60693   0.00000  Uiso   1.00
C19    C     0.93082   0.27664   0.53518   0.00000  Uiso   1.00
C20    C     0.91951   0.15544   0.52730   0.00000  Uiso   1.00
C21    C     0.99588   0.46102   0.69520   0.00000  Uiso   1.00
C22    C     0.08827   0.52884   0.69766   0.00000  Uiso   1.00
C23    C     0.14898   0.52297   0.76410   0.00000  Uiso   1.00
H24    H     0.83749   0.26768   0.78992   0.00000  Uiso   1.00
H25    H     0.65726   0.37770   0.80726   0.00000  Uiso   1.00
H26    H     0.84462   0.07660   0.70864   0.00000  Uiso   1.00
H27    H     0.00204   0.32876   0.87110   0.00000  Uiso   1.00
H28    H     0.47095   0.53104   0.79925   0.00000  Uiso   1.00
H29    H     0.86603   0.89615   0.59132   0.00000  Uiso   1.00
H30    H     0.19799   0.42787   0.93389   0.00000  Uiso   1.00
H31    H     0.94172   0.50956   0.58022   0.00000  Uiso   1.00
H32    H     0.76721   0.63286   0.58605   0.00000  Uiso   1.00
H33    H     0.95456   0.33175   0.48744   0.00000  Uiso   1.00
H34    H     0.11198   0.58392   0.64990   0.00000  Uiso   1.00
H35    H     0.56019   0.73814   0.61971   0.00000  Uiso   1.00
H36    H     0.95527   0.10324   0.41178   0.00000  Uiso   1.00
H37    H     0.28723   0.63497   0.75435   0.00000  Uiso   1.00
O38    O     0.39887   0.71131   0.71708   0.00000  Uiso   1.00
O39    O     0.91723   0.87835   0.44429   0.00000  Uiso   1.00
O40    O     0.35274   0.57597   0.89374   0.00000  Uiso   1.00
N41    N     0.51591   0.56288   0.75620   0.00000  Uiso   1.00
N42    N     0.88527   0.96929   0.56180   0.00000  Uiso   1.00
N43    N     0.19564   0.46638   0.88207   0.00000  Uiso   1.00
N44    N     0.56393   0.67432   0.65959   0.00000  Uiso   1.00
N45    N     0.93329   0.08072   0.46519   0.00000  Uiso   1.00
N46    N     0.24366   0.57782   0.78546   0.00000  Uiso   1.00
C47    C     0.13863   0.67690   0.24188   0.00000  Uiso   1.00
C48    C     0.22210   0.58357   0.22223   0.00000  Uiso   1.00
C49    C     0.31903   0.56719   0.25951   0.00000  Uiso   1.00
C50    C     0.38429   0.47700   0.23287   0.00000  Uiso   1.00
C51    C     0.51858   0.34295   0.21171   0.00000  Uiso   1.00
C52    C     0.12032   0.74717   0.16864   0.00000  Uiso   1.00
C53    C     0.13166   0.86834   0.16087   0.00000  Uiso   1.00
C54    C     0.11122   0.91587   0.08912   0.00000  Uiso   1.00
C55    C     0.08742   0.03582   0.98479   0.00000  Uiso   1.00
C56    C     0.03479   0.61016   0.25691   0.00000  Uiso   1.00
C57    C     0.97420   0.61615   0.32336   0.00000  Uiso   1.00
C58    C     0.88175   0.54834   0.32592   0.00000  Uiso   1.00
C59    C     0.72515   0.45556   0.35864   0.00000  Uiso   1.00
C60    C     0.08216   0.54586   0.12827   0.00000  Uiso   1.00
C61    C     0.19142   0.51240   0.16051   0.00000  Uiso   1.00
C62    C     0.25655   0.42220   0.13381   0.00000  Uiso   1.00
C63    C     0.35356   0.40568   0.17105   0.00000  Uiso   1.00
C64    C     0.08964   0.67600   0.10693   0.00000  Uiso   1.00
C65    C     0.06918   0.72336   0.03518   0.00000  Uiso   1.00
C66    C     0.08049   0.84456   0.02730   0.00000  Uiso   1.00
C67    C     0.00412   0.53898   0.19520   0.00000  Uiso   1.00
C68    C     0.91173   0.47116   0.19766   0.00000  Uiso   1.00
C69    C     0.85102   0.47703   0.26410   0.00000  Uiso   1.00
H70    H     0.16251   0.73232   0.28992   0.00000  Uiso   1.00
H71    H     0.34274   0.62230   0.30726   0.00000  Uiso   1.00
H72    H     0.15538   0.92340   0.20864   0.00000  Uiso   1.00
H73    H     0.99796   0.67124   0.37110   0.00000  Uiso   1.00
H74    H     0.52905   0.46896   0.29925   0.00000  Uiso   1.00
H75    H     0.13397   0.10385   0.09132   0.00000  Uiso   1.00
H76    H     0.80201   0.57213   0.43389   0.00000  Uiso   1.00
H77    H     0.05828   0.49044   0.08022   0.00000  Uiso   1.00
H78    H     0.23279   0.36714   0.08605   0.00000  Uiso   1.00
H79    H     0.04544   0.66825   0.98744   0.00000  Uiso   1.00
H80    H     0.88802   0.41608   0.14990   0.00000  Uiso   1.00
H81    H     0.43981   0.26186   0.11971   0.00000  Uiso   1.00
H82    H     0.04473   0.89676   0.91178   0.00000  Uiso   1.00
H83    H     0.71277   0.36503   0.25435   0.00000  Uiso   1.00
O84    O     0.60113   0.28869   0.21708   0.00000  Uiso   1.00
O85    O     0.08277   0.12165   0.94429   0.00000  Uiso   1.00
O86    O     0.64726   0.42403   0.39374   0.00000  Uiso   1.00
N87    N     0.48409   0.43712   0.25620   0.00000  Uiso   1.00
N88    N     0.11473   0.03071   0.06180   0.00000  Uiso   1.00
N89    N     0.80436   0.53362   0.38207   0.00000  Uiso   1.00
N90    N     0.43607   0.32568   0.15959   0.00000  Uiso   1.00
N91    N     0.06671   0.91928   0.96519   0.00000  Uiso   1.00
N92    N     0.75634   0.42218   0.28546   0.00000  Uiso   1.00
C93    C     0.36137   0.17690   0.74188   0.00000  Uiso   1.00
C94    C     0.27790   0.08357   0.72223   0.00000  Uiso   1.00
C95    C     0.18097   0.06719   0.75951   0.00000  Uiso   1.00
C96    C     0.11571   0.97700   0.73287   0.00000  Uiso   1.00
C97    C     0.98142   0.84295   0.71171   0.00000  Uiso   1.00
C98    C     0.37968   0.24717   0.66864   0.00000  Uiso   1.00
C99    C     0.36834   0.36834   0.66087   0.00000  Uiso   1.00
C100   C     0.38878   0.41587   0.58912   0.00000  Uiso   1.00
C101   C     0.41258   0.53582   0.48479   0.00000  Uiso   1.00
C102   C     0.46521   0.11016   0.75691   0.00000  Uiso   1.00
C103   C     0.52580   0.11615   0.82336   0.00000  Uiso   1.00
C104   C     0.61825   0.04834   0.82592   0.00000  Uiso   1.00
C105   C     0.77485   0.95556   0.85864   0.00000  Uiso   1.00
C106   C     0.41784   0.04586   0.62827   0.00000  Uiso   1.00
C107   C     0.30858   0.01240   0.66051   0.00000  Uiso   1.00
C108   C     0.24345   0.92220   0.63381   0.00000  Uiso   1.00
C109   C     0.14644   0.90568   0.67105   0.00000  Uiso   1.00
C110   C     0.41036   0.17600   0.60693   0.00000  Uiso   1.00
C111   C     0.43082   0.22336   0.53518   0.00000  Uiso   1.00
C112   C     0.41951   0.34456   0.52730   0.00000  Uiso   1.00
C113   C     0.49588   0.03898   0.69520   0.00000  Uiso   1.00
C114   C     0.58827   0.97116   0.69766   0.00000  Uiso   1.00
C115   C     0.64898   0.97703   0.76410   0.00000  Uiso   1.00
H116   H     0.33749   0.23232   0.78992   0.00000  Uiso   1.00
H117   H     0.15726   0.12230   0.80726   0.00000  Uiso   1.00
H118   H     0.34462   0.42340   0.70864   0.00000  Uiso   1.00
H119   H     0.50204   0.17124   0.87110   0.00000  Uiso   1.00
H120   H     0.97095   0.96896   0.79925   0.00000  Uiso   1.00
H121   H     0.36603   0.60385   0.59132   0.00000  Uiso   1.00
H122   H     0.69799   0.07213   0.93389   0.00000  Uiso   1.00
H123   H     0.44172   0.99044   0.58022   0.00000  Uiso   1.00
H124   H     0.26721   0.86714   0.58605   0.00000  Uiso   1.00
H125   H     0.45456   0.16825   0.48744   0.00000  Uiso   1.00
H126   H     0.61198   0.91608   0.64990   0.00000  Uiso   1.00
H127   H     0.06019   0.76186   0.61971   0.00000  Uiso   1.00
H128   H     0.45527   0.39676   0.41178   0.00000  Uiso   1.00
H129   H     0.78723   0.86503   0.75435   0.00000  Uiso   1.00
O130   O     0.89887   0.78869   0.71708   0.00000  Uiso   1.00
O131   O     0.41723   0.62165   0.44429   0.00000  Uiso   1.00
O132   O     0.85274   0.92403   0.89374   0.00000  Uiso   1.00
N133   N     0.01591   0.93712   0.75620   0.00000  Uiso   1.00
N134   N     0.38527   0.53071   0.56180   0.00000  Uiso   1.00
N135   N     0.69564   0.03362   0.88207   0.00000  Uiso   1.00
N136   N     0.06393   0.82568   0.65959   0.00000  Uiso   1.00
N137   N     0.43329   0.41928   0.46519   0.00000  Uiso   1.00
N138   N     0.74366   0.92218   0.78546   0.00000  Uiso   1.00
C139   C     0.63863   0.82310   0.24188   0.00000  Uiso   1.00
C140   C     0.72210   0.91643   0.22223   0.00000  Uiso   1.00
C141   C     0.81903   0.93281   0.25951   0.00000  Uiso   1.00
C142   C     0.88429   0.02300   0.23287   0.00000  Uiso   1.00
C143   C     0.01858   0.15705   0.21171   0.00000  Uiso   1.00
C144   C     0.62032   0.75283   0.16864   0.00000  Uiso   1.00
C145   C     0.63166   0.63166   0.16087   0.00000  Uiso   1.00
C146   C     0.61122   0.58413   0.08912   0.00000  Uiso   1.00
C147   C     0.58742   0.46418   0.98479   0.00000  Uiso   1.00
C148   C     0.53479   0.88984   0.25691   0.00000  Uiso   1.00
C149   C     0.47420   0.88385   0.32336   0.00000  Uiso   1.00
C150   C     0.38175   0.95166   0.32592   0.00000  Uiso   1.00
C151   C     0.22515   0.04444   0.35864   0.00000  Uiso   1.00
C152   C     0.58216   0.95414   0.12827   0.00000  Uiso   1.00
C153   C     0.69142   0.98760   0.16051   0.00000  Uiso   1.00
C154   C     0.75655   0.07780   0.13381   0.00000  Uiso   1.00
C155   C     0.85356   0.09432   0.17105   0.00000  Uiso   1.00
C156   C     0.58964   0.82400   0.10693   0.00000  Uiso   1.00
C157   C     0.56918   0.77664   0.03518   0.00000  Uiso   1.00
C158   C     0.58049   0.65544   0.02730   0.00000  Uiso   1.00
C159   C     0.50412   0.96102   0.19520   0.00000  Uiso   1.00
C160   C     0.41173   0.02884   0.19766   0.00000  Uiso   1.00
C161   C     0.35102   0.02297   0.26410   0.00000  Uiso   1.00
H162   H     0.66251   0.76768   0.28992   0.00000  Uiso   1.00
H163   H     0.84274   0.87770   0.30726   0.00000  Uiso   1.00
H164   H     0.65538   0.57660   0.20864   0.00000  Uiso   1.00
H165   H     0.49796   0.82876   0.37110   0.00000  Uiso   1.00
H166   H     0.02905   0.03104   0.29925   0.00000  Uiso   1.00
H167   H     0.63397   0.39615   0.09132   0.00000  Uiso   1.00
H168   H     0.30201   0.92787   0.43389   0.00000  Uiso   1.00
H169   H     0.55828   0.00956   0.08022   0.00000  Uiso   1.00
H170   H     0.73279   0.13286   0.08605   0.00000  Uiso   1.00
H171   H     0.54544   0.83175   0.98744   0.00000  Uiso   1.00
H172   H     0.38802   0.08392   0.14990   0.00000  Uiso   1.00
H173   H     0.93981   0.23814   0.11971   0.00000  Uiso   1.00
H174   H     0.54473   0.60324   0.91178   0.00000  Uiso   1.00
H175   H     0.21277   0.13497   0.25435   0.00000  Uiso   1.00
O176   O     0.10113   0.21131   0.21708   0.00000  Uiso   1.00
O177   O     0.58277   0.37835   0.94429   0.00000  Uiso   1.00
O178   O     0.14726   0.07597   0.39374   0.00000  Uiso   1.00
N179   N     0.98409   0.06288   0.25620   0.00000  Uiso   1.00
N180   N     0.61473   0.46929   0.06180   0.00000  Uiso   1.00
N181   N     0.30436   0.96638   0.38207   0.00000  Uiso   1.00
N182   N     0.93607   0.17432   0.15959   0.00000  Uiso   1.00
N183   N     0.56671   0.58072   0.96519   0.00000  Uiso   1.00
N184   N     0.25634   0.07782   0.28546   0.00000  Uiso   1.00
