data_job_05955
_audit_creation_date              2018-12-19
_audit_creation_method            'Materials Studio'
_symmetry_space_group_name_H-M    'P1'
_symmetry_Int_Tables_number       1
_symmetry_cell_setting            triclinic
loop_
_symmetry_equiv_pos_as_xyz
  x,y,z
_cell_length_a                    12.4522
_cell_length_b                    18.9430
_cell_length_c                    19.0880
_cell_angle_alpha                 64.2560
_cell_angle_beta                  103.8327
_cell_angle_gamma                 79.7066
loop_
_atom_site_label
_atom_site_type_symbol
_atom_site_fract_x
_atom_site_fract_y
_atom_site_fract_z
_atom_site_U_iso_or_equiv
_atom_site_adp_type
_atom_site_occupancy
C1     C     0.78514   0.51721   0.10127   0.00000  Uiso   1.00
C2     C     0.82895   0.44983   0.19250   0.00000  Uiso   1.00
C3     C     0.88483   0.36637   0.22407   0.00000  Uiso   1.00
C4     C     0.91813   0.31466   0.30934   0.00000  Uiso   1.00
C5     C     0.98943   0.20535   0.44312   0.00000  Uiso   1.00
C6     C     0.65530   0.55854   0.07790   0.00000  Uiso   1.00
C7     C     0.56517   0.56649   0.01310   0.00000  Uiso   1.00
C8     C     0.45229   0.60631   0.00189   0.00000  Uiso   1.00
C9     C     0.25400   0.66583   0.95771   0.00000  Uiso   1.00
C10    C     0.84359   0.58206   0.09870   0.00000  Uiso   1.00
C11    C     0.91175   0.60979   0.05139   0.00000  Uiso   1.00
C12    C     0.95737   0.66943   0.05768   0.00000  Uiso   1.00
C13    C     0.05143   0.76545   0.04581   0.00000  Uiso   1.00
C14    C     0.74492   0.57382   0.19656   0.00000  Uiso   1.00
C15    C     0.80710   0.48058   0.24426   0.00000  Uiso   1.00
C16    C     0.84033   0.42899   0.32950   0.00000  Uiso   1.00
C17    C     0.89625   0.34546   0.36119   0.00000  Uiso   1.00
C18    C     0.63345   0.58929   0.12965   0.00000  Uiso   1.00
C19    C     0.52067   0.62912   0.11853   0.00000  Uiso   1.00
C20    C     0.43040   0.63711   0.05374   0.00000  Uiso   1.00
C21    C     0.82174   0.61281   0.15047   0.00000  Uiso   1.00
C22    C     0.86725   0.67241   0.15683   0.00000  Uiso   1.00
C23    C     0.93548   0.70023   0.10953   0.00000  Uiso   1.00
H24    H     0.80214   0.49328   0.06097   0.00000  Uiso   1.00
H25    H     0.90171   0.34259   0.18399   0.00000  Uiso   1.00
H26    H     0.58211   0.54269   0.97305   0.00000  Uiso   1.00
H27    H     0.92864   0.58598   0.01134   0.00000  Uiso   1.00
H28    H     0.00243   0.18909   0.34321   0.00000  Uiso   1.00
H29    H     0.32853   0.61103   0.89841   0.00000  Uiso   1.00
H30    H     0.05926   0.70232   0.97914   0.00000  Uiso   1.00
H31    H     0.72790   0.59776   0.23686   0.00000  Uiso   1.00
H32    H     0.82341   0.45281   0.36954   0.00000  Uiso   1.00
H33    H     0.50380   0.65291   0.15860   0.00000  Uiso   1.00
H34    H     0.85033   0.69620   0.19689   0.00000  Uiso   1.00
H35    H     0.93887   0.27854   0.49381   0.00000  Uiso   1.00
H36    H     0.26497   0.70049   0.04901   0.00000  Uiso   1.00
H37    H     0.99570   0.79177   0.12974   0.00000  Uiso   1.00
O38    O     0.03478   0.13657   0.50261   0.00000  Uiso   1.00
O39    O     0.15066   0.69016   0.91905   0.00000  Uiso   1.00
O40    O     0.10935   0.80992   0.02497   0.00000  Uiso   1.00
N41    N     0.97439   0.23003   0.36045   0.00000  Uiso   1.00
N42    N     0.34433   0.62452   0.94459   0.00000  Uiso   1.00
N43    N     0.02747   0.70988   0.02006   0.00000  Uiso   1.00
N44    N     0.94019   0.27817   0.44148   0.00000  Uiso   1.00
N45    N     0.31013   0.67265   0.02563   0.00000  Uiso   1.00
N46    N     0.99327   0.75801   0.10109   0.00000  Uiso   1.00
C47    C     0.32250   0.38933   0.51736   0.00000  Uiso   1.00
C48    C     0.29758   0.36573   0.44967   0.00000  Uiso   1.00
C49    C     0.27153   0.41835   0.36546   0.00000  Uiso   1.00
C50    C     0.25149   0.38490   0.31359   0.00000  Uiso   1.00
C51    C     0.21186   0.36090   0.20371   0.00000  Uiso   1.00
C52    C     0.23497   0.36795   0.56045   0.00000  Uiso   1.00
C53    C     0.15629   0.42244   0.56940   0.00000  Uiso   1.00
C54    C     0.08356   0.39086   0.61079   0.00000  Uiso   1.00
C55    C     0.94679   0.37030   0.67296   0.00000  Uiso   1.00
C56    C     0.44228   0.32948   0.58145   0.00000  Uiso   1.00
C57    C     0.53791   0.35161   0.60807   0.00000  Uiso   1.00
C58    C     0.63971   0.28763   0.66717   0.00000  Uiso   1.00
C59    C     0.82482   0.20734   0.76194   0.00000  Uiso   1.00
C60    C     0.33325   0.23635   0.57499   0.00000  Uiso   1.00
C61    C     0.30342   0.28263   0.48098   0.00000  Uiso   1.00
C62    C     0.28342   0.24909   0.42922   0.00000  Uiso   1.00
C63    C     0.25735   0.30165   0.34494   0.00000  Uiso   1.00
C64    C     0.24081   0.28486   0.59176   0.00000  Uiso   1.00
C65    C     0.16819   0.25319   0.63316   0.00000  Uiso   1.00
C66    C     0.08941   0.30762   0.64215   0.00000  Uiso   1.00
C67    C     0.44813   0.24638   0.61276   0.00000  Uiso   1.00
C68    C     0.54980   0.18236   0.67183   0.00000  Uiso   1.00
C69    C     0.64556   0.20439   0.69853   0.00000  Uiso   1.00
H70    H     0.31794   0.45402   0.49300   0.00000  Uiso   1.00
H71    H     0.26701   0.48265   0.34126   0.00000  Uiso   1.00
H72    H     0.15180   0.48674   0.54517   0.00000  Uiso   1.00
H73    H     0.53335   0.41592   0.58384   0.00000  Uiso   1.00
H74    H     0.21307   0.47775   0.18683   0.00000  Uiso   1.00
H75    H     0.97017   0.48637   0.61682   0.00000  Uiso   1.00
H76    H     0.77476   0.33704   0.69835   0.00000  Uiso   1.00
H77    H     0.33779   0.17166   0.59937   0.00000  Uiso   1.00
H78    H     0.28795   0.18479   0.45346   0.00000  Uiso   1.00
H79    H     0.17274   0.18888   0.65738   0.00000  Uiso   1.00
H80    H     0.55429   0.11806   0.69604   0.00000  Uiso   1.00
H81    H     0.23006   0.23600   0.27789   0.00000  Uiso   1.00
H82    H     0.98716   0.24462   0.70789   0.00000  Uiso   1.00
H83    H     0.79174   0.09528   0.78942   0.00000  Uiso   1.00
O84    O     0.18837   0.37062   0.13446   0.00000  Uiso   1.00
O85    O     0.86973   0.38192   0.69860   0.00000  Uiso   1.00
O86    O     0.92531   0.18600   0.80557   0.00000  Uiso   1.00
N87    N     0.22393   0.41905   0.22829   0.00000  Uiso   1.00
N88    N     0.99682   0.42711   0.63029   0.00000  Uiso   1.00
N89    N     0.74903   0.28750   0.70653   0.00000  Uiso   1.00
N90    N     0.23307   0.28896   0.27729   0.00000  Uiso   1.00
N91    N     0.00597   0.29703   0.67929   0.00000  Uiso   1.00
N92    N     0.75817   0.15741   0.75553   0.00000  Uiso   1.00
C93    C     0.69909   0.10033   0.38195   0.00000  Uiso   1.00
C94    C     0.65462   0.19093   0.35839   0.00000  Uiso   1.00
C95    C     0.68264   0.22263   0.41108   0.00000  Uiso   1.00
C96    C     0.63292   0.30725   0.37765   0.00000  Uiso   1.00
C97    C     0.57524   0.44017   0.35372   0.00000  Uiso   1.00
C98    C     0.59064   0.07555   0.36195   0.00000  Uiso   1.00
C99    C     0.56487   0.01024   0.41764   0.00000  Uiso   1.00
C100   C     0.46129   0.99773   0.38720   0.00000  Uiso   1.00
C101   C     0.30431   0.95149   0.36879   0.00000  Uiso   1.00
C102   C     0.75736   0.09883   0.32062   0.00000  Uiso   1.00
C103   C     0.87177   0.05308   0.34156   0.00000  Uiso   1.00
C104   C     0.90855   0.06015   0.27633   0.00000  Uiso   1.00
C105   C     0.01044   0.05005   0.19375   0.00000  Uiso   1.00
C106   C     0.56098   0.19422   0.22888   0.00000  Uiso   1.00
C107   C     0.57960   0.24193   0.27524   0.00000  Uiso   1.00
C108   C     0.52984   0.32652   0.24173   0.00000  Uiso   1.00
C109   C     0.55778   0.35834   0.29436   0.00000  Uiso   1.00
C110   C     0.51562   0.12655   0.27881   0.00000  Uiso   1.00
C111   C     0.41207   0.11413   0.24828   0.00000  Uiso   1.00
C112   C     0.38614   0.04882   0.30391   0.00000  Uiso   1.00
C113   C     0.68235   0.14983   0.23748   0.00000  Uiso   1.00
C114   C     0.71896   0.15697   0.17221   0.00000  Uiso   1.00
C115   C     0.83340   0.11124   0.19304   0.00000  Uiso   1.00
H116   H     0.75749   0.06062   0.44668   0.00000  Uiso   1.00
H117   H     0.74069   0.18314   0.47542   0.00000  Uiso   1.00
H118   H     0.62294   0.97078   0.48197   0.00000  Uiso   1.00
H119   H     0.92979   0.01362   0.40591   0.00000  Uiso   1.00
H120   H     0.68894   0.34148   0.47063   0.00000  Uiso   1.00
H121   H     0.44069   0.89368   0.48443   0.00000  Uiso   1.00
H122   H     0.08774   0.98400   0.32404   0.00000  Uiso   1.00
H123   H     0.50258   0.23393   0.16415   0.00000  Uiso   1.00
H124   H     0.47179   0.36597   0.17739   0.00000  Uiso   1.00
H125   H     0.35404   0.15360   0.18394   0.00000  Uiso   1.00
H126   H     0.66089   0.19644   0.10787   0.00000  Uiso   1.00
H127   H     0.47069   0.48986   0.22873   0.00000  Uiso   1.00
H128   H     0.22244   0.04206   0.24254   0.00000  Uiso   1.00
H129   H     0.86949   0.13239   0.08215   0.00000  Uiso   1.00
O130   O     0.56413   0.49940   0.36349   0.00000  Uiso   1.00
O131   O     0.23845   0.91190   0.38161   0.00000  Uiso   1.00
O132   O     0.08736   0.03041   0.17117   0.00000  Uiso   1.00
N133   N     0.64182   0.35828   0.41188   0.00000  Uiso   1.00
N134   N     0.40971   0.93963   0.42479   0.00000  Uiso   1.00
N135   N     0.01464   0.02405   0.27483   0.00000  Uiso   1.00
N136   N     0.52438   0.43813   0.28172   0.00000  Uiso   1.00
N137   N     0.29227   0.01947   0.29463   0.00000  Uiso   1.00
N138   N     0.89720   0.10390   0.14467   0.00000  Uiso   1.00
C139   C     0.21486   0.48278   0.89873   0.00000  Uiso   1.00
C140   C     0.17105   0.55017   0.80750   0.00000  Uiso   1.00
C141   C     0.11517   0.63363   0.77593   0.00000  Uiso   1.00
C142   C     0.08187   0.68534   0.69066   0.00000  Uiso   1.00
C143   C     0.01057   0.79465   0.55688   0.00000  Uiso   1.00
C144   C     0.34470   0.44146   0.92210   0.00000  Uiso   1.00
C145   C     0.43483   0.43351   0.98690   0.00000  Uiso   1.00
C146   C     0.54771   0.39369   0.99811   0.00000  Uiso   1.00
C147   C     0.74600   0.33417   0.04229   0.00000  Uiso   1.00
C148   C     0.15641   0.41794   0.90130   0.00000  Uiso   1.00
C149   C     0.08825   0.39021   0.94861   0.00000  Uiso   1.00
C150   C     0.04263   0.33057   0.94232   0.00000  Uiso   1.00
C151   C     0.94857   0.23455   0.95419   0.00000  Uiso   1.00
C152   C     0.25508   0.42618   0.80344   0.00000  Uiso   1.00
C153   C     0.19290   0.51942   0.75574   0.00000  Uiso   1.00
C154   C     0.15967   0.57101   0.67050   0.00000  Uiso   1.00
C155   C     0.10375   0.65454   0.63881   0.00000  Uiso   1.00
C156   C     0.36655   0.41071   0.87035   0.00000  Uiso   1.00
C157   C     0.47933   0.37088   0.88147   0.00000  Uiso   1.00
C158   C     0.56960   0.36289   0.94626   0.00000  Uiso   1.00
C159   C     0.17826   0.38719   0.84953   0.00000  Uiso   1.00
C160   C     0.13274   0.32759   0.84317   0.00000  Uiso   1.00
C161   C     0.06452   0.29977   0.89047   0.00000  Uiso   1.00
H162   H     0.19786   0.50672   0.93903   0.00000  Uiso   1.00
H163   H     0.09829   0.65741   0.81601   0.00000  Uiso   1.00
H164   H     0.41789   0.45730   0.02695   0.00000  Uiso   1.00
H165   H     0.07136   0.41402   0.98866   0.00000  Uiso   1.00
H166   H     0.99757   0.81091   0.65679   0.00000  Uiso   1.00
H167   H     0.67147   0.38897   0.10159   0.00000  Uiso   1.00
H168   H     0.94074   0.29768   0.02086   0.00000  Uiso   1.00
H169   H     0.27210   0.40224   0.76314   0.00000  Uiso   1.00
H170   H     0.17659   0.54719   0.63046   0.00000  Uiso   1.00
H171   H     0.49620   0.34709   0.84140   0.00000  Uiso   1.00
H172   H     0.14967   0.30380   0.80311   0.00000  Uiso   1.00
H173   H     0.06113   0.72146   0.50619   0.00000  Uiso   1.00
H174   H     0.73503   0.29951   0.95099   0.00000  Uiso   1.00
H175   H     0.00430   0.20823   0.87026   0.00000  Uiso   1.00
O176   O     0.96522   0.86343   0.49739   0.00000  Uiso   1.00
O177   O     0.84934   0.30984   0.08095   0.00000  Uiso   1.00
O178   O     0.89065   0.19008   0.97503   0.00000  Uiso   1.00
N179   N     0.02561   0.76997   0.63955   0.00000  Uiso   1.00
N180   N     0.65567   0.37548   0.05540   0.00000  Uiso   1.00
N181   N     0.97253   0.29012   0.97994   0.00000  Uiso   1.00
N182   N     0.05981   0.72183   0.55852   0.00000  Uiso   1.00
N183   N     0.68987   0.32735   0.97437   0.00000  Uiso   1.00
N184   N     0.00673   0.24199   0.89891   0.00000  Uiso   1.00
C185   C     0.67750   0.61067   0.48264   0.00000  Uiso   1.00
C186   C     0.70242   0.63427   0.55033   0.00000  Uiso   1.00
C187   C     0.72847   0.58165   0.63454   0.00000  Uiso   1.00
C188   C     0.74851   0.61510   0.68641   0.00000  Uiso   1.00
C189   C     0.78814   0.63910   0.79629   0.00000  Uiso   1.00
C190   C     0.76503   0.63205   0.43955   0.00000  Uiso   1.00
C191   C     0.84371   0.57756   0.43060   0.00000  Uiso   1.00
C192   C     0.91644   0.60914   0.38921   0.00000  Uiso   1.00
C193   C     0.05321   0.62970   0.32704   0.00000  Uiso   1.00
C194   C     0.55772   0.67052   0.41854   0.00000  Uiso   1.00
C195   C     0.46209   0.64839   0.39193   0.00000  Uiso   1.00
C196   C     0.36029   0.71237   0.33283   0.00000  Uiso   1.00
C197   C     0.17518   0.79266   0.23806   0.00000  Uiso   1.00
C198   C     0.66675   0.76365   0.42501   0.00000  Uiso   1.00
C199   C     0.69658   0.71737   0.51902   0.00000  Uiso   1.00
C200   C     0.71658   0.75091   0.57078   0.00000  Uiso   1.00
C201   C     0.74265   0.69835   0.65506   0.00000  Uiso   1.00
C202   C     0.75919   0.71514   0.40824   0.00000  Uiso   1.00
C203   C     0.83181   0.74681   0.36684   0.00000  Uiso   1.00
C204   C     0.91059   0.69238   0.35785   0.00000  Uiso   1.00
C205   C     0.55187   0.75362   0.38724   0.00000  Uiso   1.00
C206   C     0.45020   0.81764   0.32817   0.00000  Uiso   1.00
C207   C     0.35444   0.79561   0.30147   0.00000  Uiso   1.00
H208   H     0.68205   0.54598   0.50700   0.00000  Uiso   1.00
H209   H     0.73299   0.51735   0.65874   0.00000  Uiso   1.00
H210   H     0.84820   0.51326   0.45483   0.00000  Uiso   1.00
H211   H     0.46664   0.58408   0.41616   0.00000  Uiso   1.00
H212   H     0.78693   0.52225   0.81317   0.00000  Uiso   1.00
H213   H     0.02983   0.51363   0.38318   0.00000  Uiso   1.00
H214   H     0.22524   0.66296   0.30165   0.00000  Uiso   1.00
H215   H     0.66221   0.82834   0.40063   0.00000  Uiso   1.00
H216   H     0.71205   0.81521   0.54654   0.00000  Uiso   1.00
H217   H     0.82726   0.81112   0.34262   0.00000  Uiso   1.00
H218   H     0.44571   0.88194   0.30396   0.00000  Uiso   1.00
H219   H     0.76994   0.76400   0.72211   0.00000  Uiso   1.00
H220   H     0.01284   0.75538   0.29211   0.00000  Uiso   1.00
H221   H     0.20826   0.90472   0.21058   0.00000  Uiso   1.00
O222   O     0.81162   0.62938   0.86554   0.00000  Uiso   1.00
O223   O     0.13027   0.61808   0.30140   0.00000  Uiso   1.00
O224   O     0.07469   0.81400   0.19443   0.00000  Uiso   1.00
N225   N     0.77607   0.58095   0.77171   0.00000  Uiso   1.00
N226   N     0.00318   0.57289   0.36971   0.00000  Uiso   1.00
N227   N     0.25097   0.71250   0.29347   0.00000  Uiso   1.00
N228   N     0.76693   0.71104   0.72271   0.00000  Uiso   1.00
N229   N     0.99403   0.70297   0.32071   0.00000  Uiso   1.00
N230   N     0.24182   0.84259   0.24447   0.00000  Uiso   1.00
C231   C     0.30091   0.89967   0.61805   0.00000  Uiso   1.00
C232   C     0.34538   0.80907   0.64161   0.00000  Uiso   1.00
C233   C     0.31736   0.77736   0.58892   0.00000  Uiso   1.00
C234   C     0.36708   0.69275   0.62235   0.00000  Uiso   1.00
C235   C     0.42476   0.55983   0.64628   0.00000  Uiso   1.00
C236   C     0.40936   0.92445   0.63805   0.00000  Uiso   1.00
C237   C     0.43513   0.98976   0.58236   0.00000  Uiso   1.00
C238   C     0.53871   0.00227   0.61280   0.00000  Uiso   1.00
C239   C     0.69569   0.04851   0.63121   0.00000  Uiso   1.00
C240   C     0.24264   0.90117   0.67938   0.00000  Uiso   1.00
C241   C     0.12823   0.94692   0.65844   0.00000  Uiso   1.00
C242   C     0.09145   0.93985   0.72367   0.00000  Uiso   1.00
C243   C     0.98956   0.94995   0.80625   0.00000  Uiso   1.00
C244   C     0.43902   0.80578   0.77112   0.00000  Uiso   1.00
C245   C     0.42039   0.75807   0.72476   0.00000  Uiso   1.00
C246   C     0.47016   0.67348   0.75827   0.00000  Uiso   1.00
C247   C     0.44222   0.64166   0.70564   0.00000  Uiso   1.00
C248   C     0.48438   0.87345   0.72119   0.00000  Uiso   1.00
C249   C     0.58793   0.88587   0.75172   0.00000  Uiso   1.00
C250   C     0.61386   0.95118   0.69609   0.00000  Uiso   1.00
C251   C     0.31765   0.85017   0.76252   0.00000  Uiso   1.00
C252   C     0.28104   0.84303   0.82779   0.00000  Uiso   1.00
C253   C     0.16660   0.88876   0.80696   0.00000  Uiso   1.00
H254   H     0.24251   0.93938   0.55332   0.00000  Uiso   1.00
H255   H     0.25931   0.81686   0.52458   0.00000  Uiso   1.00
H256   H     0.37706   0.02922   0.51803   0.00000  Uiso   1.00
H257   H     0.07021   0.98638   0.59409   0.00000  Uiso   1.00
H258   H     0.31106   0.65852   0.52937   0.00000  Uiso   1.00
H259   H     0.55931   0.10632   0.51557   0.00000  Uiso   1.00
H260   H     0.91226   0.01600   0.67596   0.00000  Uiso   1.00
H261   H     0.49742   0.76607   0.83585   0.00000  Uiso   1.00
H262   H     0.52821   0.63403   0.82261   0.00000  Uiso   1.00
H263   H     0.64596   0.84640   0.81606   0.00000  Uiso   1.00
H264   H     0.33911   0.80356   0.89213   0.00000  Uiso   1.00
H265   H     0.52931   0.51014   0.77127   0.00000  Uiso   1.00
H266   H     0.77756   0.95794   0.75746   0.00000  Uiso   1.00
H267   H     0.13051   0.86761   0.91785   0.00000  Uiso   1.00
O268   O     0.43587   0.50060   0.63651   0.00000  Uiso   1.00
O269   O     0.76155   0.08810   0.61839   0.00000  Uiso   1.00
O270   O     0.91264   0.96959   0.82883   0.00000  Uiso   1.00
N271   N     0.35818   0.64172   0.58812   0.00000  Uiso   1.00
N272   N     0.59029   0.06037   0.57521   0.00000  Uiso   1.00
N273   N     0.98536   0.97595   0.72517   0.00000  Uiso   1.00
N274   N     0.47562   0.56187   0.71829   0.00000  Uiso   1.00
N275   N     0.70773   0.98053   0.70537   0.00000  Uiso   1.00
N276   N     0.10280   0.89610   0.85533   0.00000  Uiso   1.00
