data_job_03736
_audit_creation_date              2018-12-19
_audit_creation_method            'Materials Studio'
_symmetry_space_group_name_H-M    'P1'
_symmetry_Int_Tables_number       1
_symmetry_cell_setting            triclinic
loop_
_symmetry_equiv_pos_as_xyz
  x,y,z
_cell_length_a                    26.0739
_cell_length_b                    20.7909
_cell_length_c                    11.9441
_cell_angle_alpha                 90.0000
_cell_angle_beta                  66.3195
_cell_angle_gamma                 90.0000
loop_
_atom_site_label
_atom_site_type_symbol
_atom_site_fract_x
_atom_site_fract_y
_atom_site_fract_z
_atom_site_U_iso_or_equiv
_atom_site_adp_type
_atom_site_occupancy
C1     C     0.74504   0.99927   0.10987   0.00000  Uiso   1.00
C2     C     0.73955   0.92935   0.15165   0.00000  Uiso   1.00
C3     C     0.74066   0.90750   0.26044   0.00000  Uiso   1.00
C4     C     0.73498   0.84171   0.28180   0.00000  Uiso   1.00
C5     C     0.72749   0.73958   0.35951   0.00000  Uiso   1.00
C6     C     0.79429   0.00125   0.98548   0.00000  Uiso   1.00
C7     C     0.84142   0.03986   0.95456   0.00000  Uiso   1.00
C8     C     0.88181   0.03460   0.83603   0.00000  Uiso   1.00
C9     C     0.95927   0.04413   0.65572   0.00000  Uiso   1.00
C10    C     0.69301   0.01377   0.08588   0.00000  Uiso   1.00
C11    C     0.65499   0.06291   0.13935   0.00000  Uiso   1.00
C12    C     0.61012   0.06820   0.10532   0.00000  Uiso   1.00
C13    C     0.53034   0.09717   0.08091   0.00000  Uiso   1.00
C14    C     0.73297   0.92129   0.95434   0.00000  Uiso   1.00
C15    C     0.73300   0.88699   0.06717   0.00000  Uiso   1.00
C16    C     0.72731   0.82122   0.08838   0.00000  Uiso   1.00
C17    C     0.72841   0.79927   0.19718   0.00000  Uiso   1.00
C18    C     0.78774   0.95889   0.90101   0.00000  Uiso   1.00
C19    C     0.82807   0.95358   0.78249   0.00000  Uiso   1.00
C20    C     0.87524   0.99217   0.75140   0.00000  Uiso   1.00
C21    C     0.68646   0.97141   0.00141   0.00000  Uiso   1.00
C22    C     0.64164   0.97663   0.96729   0.00000  Uiso   1.00
C23    C     0.60356   0.02577   0.02070   0.00000  Uiso   1.00
H24    H     0.75014   0.03224   0.17563   0.00000  Uiso   1.00
H25    H     0.74574   0.94029   0.32579   0.00000  Uiso   1.00
H26    H     0.84647   0.07263   0.01995   0.00000  Uiso   1.00
H27    H     0.66008   0.09568   0.20471   0.00000  Uiso   1.00
H28    H     0.73799   0.81966   0.45500   0.00000  Uiso   1.00
H29    H     0.95038   0.09873   0.81010   0.00000  Uiso   1.00
H30    H     0.55733   0.14733   0.19972   0.00000  Uiso   1.00
H31    H     0.72787   0.88831   0.88857   0.00000  Uiso   1.00
H32    H     0.72224   0.78845   0.02299   0.00000  Uiso   1.00
H33    H     0.82298   0.92080   0.71714   0.00000  Uiso   1.00
H34    H     0.63658   0.94384   0.90191   0.00000  Uiso   1.00
H35    H     0.71892   0.69642   0.20923   0.00000  Uiso   1.00
H36    H     0.93131   0.97550   0.56433   0.00000  Uiso   1.00
H37    H     0.53826   0.02409   0.95395   0.00000  Uiso   1.00
O38    O     0.72517   0.69495   0.42570   0.00000  Uiso   1.00
O39    O     0.00382   0.06109   0.57961   0.00000  Uiso   1.00
O40    O     0.48815   0.12484   0.09079   0.00000  Uiso   1.00
N41    N     0.73426   0.80436   0.37872   0.00000  Uiso   1.00
N42    N     0.93284   0.06527   0.77579   0.00000  Uiso   1.00
N43    N     0.56538   0.11071   0.14002   0.00000  Uiso   1.00
N44    N     0.72400   0.73805   0.24648   0.00000  Uiso   1.00
N45    N     0.92258   0.99896   0.64354   0.00000  Uiso   1.00
N46    N     0.55512   0.04440   0.00778   0.00000  Uiso   1.00
C47    C     0.24504   0.49927   0.10987   0.00000  Uiso   1.00
C48    C     0.23955   0.42935   0.15165   0.00000  Uiso   1.00
C49    C     0.24066   0.40750   0.26044   0.00000  Uiso   1.00
C50    C     0.23498   0.34171   0.28180   0.00000  Uiso   1.00
C51    C     0.22749   0.23958   0.35951   0.00000  Uiso   1.00
C52    C     0.29429   0.50125   0.98548   0.00000  Uiso   1.00
C53    C     0.34142   0.53986   0.95456   0.00000  Uiso   1.00
C54    C     0.38181   0.53460   0.83603   0.00000  Uiso   1.00
C55    C     0.45927   0.54413   0.65572   0.00000  Uiso   1.00
C56    C     0.19301   0.51377   0.08588   0.00000  Uiso   1.00
C57    C     0.15499   0.56291   0.13935   0.00000  Uiso   1.00
C58    C     0.11012   0.56820   0.10532   0.00000  Uiso   1.00
C59    C     0.03034   0.59717   0.08091   0.00000  Uiso   1.00
C60    C     0.23297   0.42129   0.95434   0.00000  Uiso   1.00
C61    C     0.23300   0.38699   0.06717   0.00000  Uiso   1.00
C62    C     0.22731   0.32122   0.08838   0.00000  Uiso   1.00
C63    C     0.22841   0.29927   0.19718   0.00000  Uiso   1.00
C64    C     0.28774   0.45889   0.90101   0.00000  Uiso   1.00
C65    C     0.32807   0.45358   0.78249   0.00000  Uiso   1.00
C66    C     0.37524   0.49217   0.75140   0.00000  Uiso   1.00
C67    C     0.18646   0.47141   0.00141   0.00000  Uiso   1.00
C68    C     0.14164   0.47663   0.96729   0.00000  Uiso   1.00
C69    C     0.10356   0.52577   0.02070   0.00000  Uiso   1.00
H70    H     0.25014   0.53224   0.17563   0.00000  Uiso   1.00
H71    H     0.24574   0.44029   0.32579   0.00000  Uiso   1.00
H72    H     0.34647   0.57263   0.01995   0.00000  Uiso   1.00
H73    H     0.16008   0.59568   0.20471   0.00000  Uiso   1.00
H74    H     0.23799   0.31966   0.45500   0.00000  Uiso   1.00
H75    H     0.45038   0.59873   0.81010   0.00000  Uiso   1.00
H76    H     0.05733   0.64733   0.19972   0.00000  Uiso   1.00
H77    H     0.22787   0.38831   0.88857   0.00000  Uiso   1.00
H78    H     0.22224   0.28845   0.02299   0.00000  Uiso   1.00
H79    H     0.32298   0.42080   0.71714   0.00000  Uiso   1.00
H80    H     0.13658   0.44384   0.90191   0.00000  Uiso   1.00
H81    H     0.21892   0.19642   0.20923   0.00000  Uiso   1.00
H82    H     0.43131   0.47550   0.56433   0.00000  Uiso   1.00
H83    H     0.03826   0.52409   0.95395   0.00000  Uiso   1.00
O84    O     0.22517   0.19495   0.42570   0.00000  Uiso   1.00
O85    O     0.50382   0.56109   0.57961   0.00000  Uiso   1.00
O86    O     0.98815   0.62484   0.09079   0.00000  Uiso   1.00
N87    N     0.23426   0.30436   0.37872   0.00000  Uiso   1.00
N88    N     0.43284   0.56527   0.77579   0.00000  Uiso   1.00
N89    N     0.06538   0.61071   0.14002   0.00000  Uiso   1.00
N90    N     0.22400   0.23805   0.24648   0.00000  Uiso   1.00
N91    N     0.42258   0.49896   0.64354   0.00000  Uiso   1.00
N92    N     0.05512   0.54440   0.00778   0.00000  Uiso   1.00
C93    C     0.25496   0.99927   0.39013   0.00000  Uiso   1.00
C94    C     0.26045   0.92935   0.34835   0.00000  Uiso   1.00
C95    C     0.25934   0.90750   0.23956   0.00000  Uiso   1.00
C96    C     0.26502   0.84171   0.21820   0.00000  Uiso   1.00
C97    C     0.27251   0.73958   0.14049   0.00000  Uiso   1.00
C98    C     0.20571   0.00125   0.51452   0.00000  Uiso   1.00
C99    C     0.15858   0.03986   0.54544   0.00000  Uiso   1.00
C100   C     0.11819   0.03460   0.66397   0.00000  Uiso   1.00
C101   C     0.04073   0.04413   0.84428   0.00000  Uiso   1.00
C102   C     0.30699   0.01377   0.41412   0.00000  Uiso   1.00
C103   C     0.34501   0.06291   0.36065   0.00000  Uiso   1.00
C104   C     0.38988   0.06820   0.39468   0.00000  Uiso   1.00
C105   C     0.46966   0.09717   0.41909   0.00000  Uiso   1.00
C106   C     0.26703   0.92129   0.54566   0.00000  Uiso   1.00
C107   C     0.26700   0.88699   0.43283   0.00000  Uiso   1.00
C108   C     0.27269   0.82122   0.41162   0.00000  Uiso   1.00
C109   C     0.27159   0.79927   0.30282   0.00000  Uiso   1.00
C110   C     0.21226   0.95889   0.59899   0.00000  Uiso   1.00
C111   C     0.17193   0.95358   0.71751   0.00000  Uiso   1.00
C112   C     0.12476   0.99217   0.74860   0.00000  Uiso   1.00
C113   C     0.31354   0.97141   0.49859   0.00000  Uiso   1.00
C114   C     0.35836   0.97663   0.53271   0.00000  Uiso   1.00
C115   C     0.39644   0.02577   0.47930   0.00000  Uiso   1.00
H116   H     0.24986   0.03224   0.32437   0.00000  Uiso   1.00
H117   H     0.25426   0.94029   0.17421   0.00000  Uiso   1.00
H118   H     0.15353   0.07263   0.48005   0.00000  Uiso   1.00
H119   H     0.33992   0.09568   0.29529   0.00000  Uiso   1.00
H120   H     0.26201   0.81966   0.04500   0.00000  Uiso   1.00
H121   H     0.04962   0.09873   0.68990   0.00000  Uiso   1.00
H122   H     0.44267   0.14733   0.30028   0.00000  Uiso   1.00
H123   H     0.27213   0.88831   0.61143   0.00000  Uiso   1.00
H124   H     0.27776   0.78845   0.47701   0.00000  Uiso   1.00
H125   H     0.17702   0.92080   0.78286   0.00000  Uiso   1.00
H126   H     0.36342   0.94384   0.59809   0.00000  Uiso   1.00
H127   H     0.28108   0.69642   0.29077   0.00000  Uiso   1.00
H128   H     0.06869   0.97550   0.93567   0.00000  Uiso   1.00
H129   H     0.46174   0.02409   0.54605   0.00000  Uiso   1.00
O130   O     0.27483   0.69495   0.07430   0.00000  Uiso   1.00
O131   O     0.99618   0.06109   0.92039   0.00000  Uiso   1.00
O132   O     0.51185   0.12484   0.40921   0.00000  Uiso   1.00
N133   N     0.26574   0.80436   0.12128   0.00000  Uiso   1.00
N134   N     0.06716   0.06527   0.72421   0.00000  Uiso   1.00
N135   N     0.43462   0.11071   0.35998   0.00000  Uiso   1.00
N136   N     0.27600   0.73805   0.25352   0.00000  Uiso   1.00
N137   N     0.07742   0.99896   0.85646   0.00000  Uiso   1.00
N138   N     0.44488   0.04440   0.49222   0.00000  Uiso   1.00
C139   C     0.75496   0.49927   0.39013   0.00000  Uiso   1.00
C140   C     0.76045   0.42935   0.34835   0.00000  Uiso   1.00
C141   C     0.75934   0.40750   0.23956   0.00000  Uiso   1.00
C142   C     0.76502   0.34171   0.21820   0.00000  Uiso   1.00
C143   C     0.77251   0.23958   0.14049   0.00000  Uiso   1.00
C144   C     0.70571   0.50125   0.51452   0.00000  Uiso   1.00
C145   C     0.65858   0.53986   0.54544   0.00000  Uiso   1.00
C146   C     0.61819   0.53460   0.66397   0.00000  Uiso   1.00
C147   C     0.54073   0.54413   0.84428   0.00000  Uiso   1.00
C148   C     0.80699   0.51377   0.41412   0.00000  Uiso   1.00
C149   C     0.84501   0.56291   0.36065   0.00000  Uiso   1.00
C150   C     0.88988   0.56820   0.39468   0.00000  Uiso   1.00
C151   C     0.96966   0.59717   0.41909   0.00000  Uiso   1.00
C152   C     0.76703   0.42129   0.54566   0.00000  Uiso   1.00
C153   C     0.76700   0.38699   0.43283   0.00000  Uiso   1.00
C154   C     0.77269   0.32122   0.41162   0.00000  Uiso   1.00
C155   C     0.77159   0.29927   0.30282   0.00000  Uiso   1.00
C156   C     0.71226   0.45889   0.59899   0.00000  Uiso   1.00
C157   C     0.67193   0.45358   0.71751   0.00000  Uiso   1.00
C158   C     0.62476   0.49217   0.74860   0.00000  Uiso   1.00
C159   C     0.81354   0.47141   0.49859   0.00000  Uiso   1.00
C160   C     0.85836   0.47663   0.53271   0.00000  Uiso   1.00
C161   C     0.89644   0.52577   0.47930   0.00000  Uiso   1.00
H162   H     0.74986   0.53224   0.32437   0.00000  Uiso   1.00
H163   H     0.75426   0.44029   0.17421   0.00000  Uiso   1.00
H164   H     0.65353   0.57263   0.48005   0.00000  Uiso   1.00
H165   H     0.83992   0.59568   0.29529   0.00000  Uiso   1.00
H166   H     0.76201   0.31966   0.04500   0.00000  Uiso   1.00
H167   H     0.54962   0.59873   0.68990   0.00000  Uiso   1.00
H168   H     0.94267   0.64733   0.30028   0.00000  Uiso   1.00
H169   H     0.77213   0.38831   0.61143   0.00000  Uiso   1.00
H170   H     0.77776   0.28845   0.47701   0.00000  Uiso   1.00
H171   H     0.67702   0.42080   0.78286   0.00000  Uiso   1.00
H172   H     0.86342   0.44384   0.59809   0.00000  Uiso   1.00
H173   H     0.78108   0.19642   0.29077   0.00000  Uiso   1.00
H174   H     0.56869   0.47550   0.93567   0.00000  Uiso   1.00
H175   H     0.96174   0.52409   0.54605   0.00000  Uiso   1.00
O176   O     0.77483   0.19495   0.07430   0.00000  Uiso   1.00
O177   O     0.49618   0.56109   0.92039   0.00000  Uiso   1.00
O178   O     0.01185   0.62484   0.40921   0.00000  Uiso   1.00
N179   N     0.76574   0.30436   0.12128   0.00000  Uiso   1.00
N180   N     0.56716   0.56527   0.72421   0.00000  Uiso   1.00
N181   N     0.93462   0.61071   0.35998   0.00000  Uiso   1.00
N182   N     0.77600   0.23805   0.25352   0.00000  Uiso   1.00
N183   N     0.57742   0.49896   0.85646   0.00000  Uiso   1.00
N184   N     0.94488   0.54440   0.49222   0.00000  Uiso   1.00
C185   C     0.25496   0.00073   0.89013   0.00000  Uiso   1.00
C186   C     0.26045   0.07065   0.84835   0.00000  Uiso   1.00
C187   C     0.25934   0.09250   0.73956   0.00000  Uiso   1.00
C188   C     0.26502   0.15829   0.71820   0.00000  Uiso   1.00
C189   C     0.27251   0.26042   0.64049   0.00000  Uiso   1.00
C190   C     0.20571   0.99875   0.01452   0.00000  Uiso   1.00
C191   C     0.15858   0.96014   0.04544   0.00000  Uiso   1.00
C192   C     0.11819   0.96540   0.16397   0.00000  Uiso   1.00
C193   C     0.04073   0.95587   0.34428   0.00000  Uiso   1.00
C194   C     0.30699   0.98623   0.91412   0.00000  Uiso   1.00
C195   C     0.34501   0.93709   0.86065   0.00000  Uiso   1.00
C196   C     0.38988   0.93180   0.89468   0.00000  Uiso   1.00
C197   C     0.46966   0.90283   0.91909   0.00000  Uiso   1.00
C198   C     0.26703   0.07871   0.04566   0.00000  Uiso   1.00
C199   C     0.26700   0.11301   0.93283   0.00000  Uiso   1.00
C200   C     0.27269   0.17878   0.91162   0.00000  Uiso   1.00
C201   C     0.27159   0.20073   0.80282   0.00000  Uiso   1.00
C202   C     0.21226   0.04111   0.09899   0.00000  Uiso   1.00
C203   C     0.17193   0.04642   0.21751   0.00000  Uiso   1.00
C204   C     0.12476   0.00783   0.24860   0.00000  Uiso   1.00
C205   C     0.31354   0.02859   0.99859   0.00000  Uiso   1.00
C206   C     0.35836   0.02337   0.03271   0.00000  Uiso   1.00
C207   C     0.39644   0.97423   0.97930   0.00000  Uiso   1.00
H208   H     0.24986   0.96776   0.82437   0.00000  Uiso   1.00
H209   H     0.25426   0.05971   0.67421   0.00000  Uiso   1.00
H210   H     0.15353   0.92737   0.98005   0.00000  Uiso   1.00
H211   H     0.33992   0.90432   0.79529   0.00000  Uiso   1.00
H212   H     0.26201   0.18034   0.54500   0.00000  Uiso   1.00
H213   H     0.04962   0.90127   0.18990   0.00000  Uiso   1.00
H214   H     0.44267   0.85267   0.80028   0.00000  Uiso   1.00
H215   H     0.27213   0.11169   0.11143   0.00000  Uiso   1.00
H216   H     0.27776   0.21155   0.97701   0.00000  Uiso   1.00
H217   H     0.17702   0.07920   0.28286   0.00000  Uiso   1.00
H218   H     0.36342   0.05616   0.09809   0.00000  Uiso   1.00
H219   H     0.28108   0.30358   0.79077   0.00000  Uiso   1.00
H220   H     0.06869   0.02450   0.43567   0.00000  Uiso   1.00
H221   H     0.46174   0.97591   0.04605   0.00000  Uiso   1.00
O222   O     0.27483   0.30505   0.57430   0.00000  Uiso   1.00
O223   O     0.99618   0.93891   0.42039   0.00000  Uiso   1.00
O224   O     0.51185   0.87516   0.90921   0.00000  Uiso   1.00
N225   N     0.26574   0.19564   0.62128   0.00000  Uiso   1.00
N226   N     0.06716   0.93473   0.22421   0.00000  Uiso   1.00
N227   N     0.43462   0.88929   0.85998   0.00000  Uiso   1.00
N228   N     0.27600   0.26195   0.75352   0.00000  Uiso   1.00
N229   N     0.07742   0.00104   0.35646   0.00000  Uiso   1.00
N230   N     0.44488   0.95560   0.99222   0.00000  Uiso   1.00
C231   C     0.75496   0.50073   0.89013   0.00000  Uiso   1.00
C232   C     0.76045   0.57065   0.84835   0.00000  Uiso   1.00
C233   C     0.75934   0.59250   0.73956   0.00000  Uiso   1.00
C234   C     0.76502   0.65829   0.71820   0.00000  Uiso   1.00
C235   C     0.77251   0.76042   0.64049   0.00000  Uiso   1.00
C236   C     0.70571   0.49875   0.01452   0.00000  Uiso   1.00
C237   C     0.65858   0.46014   0.04544   0.00000  Uiso   1.00
C238   C     0.61819   0.46540   0.16397   0.00000  Uiso   1.00
C239   C     0.54073   0.45587   0.34428   0.00000  Uiso   1.00
C240   C     0.80699   0.48623   0.91412   0.00000  Uiso   1.00
C241   C     0.84501   0.43709   0.86065   0.00000  Uiso   1.00
C242   C     0.88988   0.43180   0.89468   0.00000  Uiso   1.00
C243   C     0.96966   0.40283   0.91909   0.00000  Uiso   1.00
C244   C     0.76703   0.57871   0.04566   0.00000  Uiso   1.00
C245   C     0.76700   0.61301   0.93283   0.00000  Uiso   1.00
C246   C     0.77269   0.67878   0.91162   0.00000  Uiso   1.00
C247   C     0.77159   0.70073   0.80282   0.00000  Uiso   1.00
C248   C     0.71226   0.54111   0.09899   0.00000  Uiso   1.00
C249   C     0.67193   0.54642   0.21751   0.00000  Uiso   1.00
C250   C     0.62476   0.50783   0.24860   0.00000  Uiso   1.00
C251   C     0.81354   0.52859   0.99859   0.00000  Uiso   1.00
C252   C     0.85836   0.52337   0.03271   0.00000  Uiso   1.00
C253   C     0.89644   0.47423   0.97930   0.00000  Uiso   1.00
H254   H     0.74986   0.46776   0.82437   0.00000  Uiso   1.00
H255   H     0.75426   0.55971   0.67421   0.00000  Uiso   1.00
H256   H     0.65353   0.42737   0.98005   0.00000  Uiso   1.00
H257   H     0.83992   0.40432   0.79529   0.00000  Uiso   1.00
H258   H     0.76201   0.68034   0.54500   0.00000  Uiso   1.00
H259   H     0.54962   0.40127   0.18990   0.00000  Uiso   1.00
H260   H     0.94267   0.35267   0.80028   0.00000  Uiso   1.00
H261   H     0.77213   0.61169   0.11143   0.00000  Uiso   1.00
H262   H     0.77776   0.71155   0.97701   0.00000  Uiso   1.00
H263   H     0.67702   0.57920   0.28286   0.00000  Uiso   1.00
H264   H     0.86342   0.55616   0.09809   0.00000  Uiso   1.00
H265   H     0.78108   0.80358   0.79077   0.00000  Uiso   1.00
H266   H     0.56869   0.52450   0.43567   0.00000  Uiso   1.00
H267   H     0.96174   0.47591   0.04605   0.00000  Uiso   1.00
O268   O     0.77483   0.80505   0.57430   0.00000  Uiso   1.00
O269   O     0.49618   0.43891   0.42039   0.00000  Uiso   1.00
O270   O     0.01185   0.37516   0.90921   0.00000  Uiso   1.00
N271   N     0.76574   0.69564   0.62128   0.00000  Uiso   1.00
N272   N     0.56716   0.43473   0.22421   0.00000  Uiso   1.00
N273   N     0.93462   0.38929   0.85998   0.00000  Uiso   1.00
N274   N     0.77600   0.76195   0.75352   0.00000  Uiso   1.00
N275   N     0.57742   0.50104   0.35646   0.00000  Uiso   1.00
N276   N     0.94488   0.45560   0.99222   0.00000  Uiso   1.00
C277   C     0.74504   0.00073   0.60987   0.00000  Uiso   1.00
C278   C     0.73955   0.07065   0.65165   0.00000  Uiso   1.00
C279   C     0.74066   0.09250   0.76044   0.00000  Uiso   1.00
C280   C     0.73498   0.15829   0.78180   0.00000  Uiso   1.00
C281   C     0.72749   0.26042   0.85951   0.00000  Uiso   1.00
C282   C     0.79429   0.99875   0.48548   0.00000  Uiso   1.00
C283   C     0.84142   0.96014   0.45456   0.00000  Uiso   1.00
C284   C     0.88181   0.96540   0.33603   0.00000  Uiso   1.00
C285   C     0.95927   0.95587   0.15572   0.00000  Uiso   1.00
C286   C     0.69301   0.98623   0.58588   0.00000  Uiso   1.00
C287   C     0.65499   0.93709   0.63935   0.00000  Uiso   1.00
C288   C     0.61012   0.93180   0.60532   0.00000  Uiso   1.00
C289   C     0.53034   0.90283   0.58091   0.00000  Uiso   1.00
C290   C     0.73297   0.07871   0.45434   0.00000  Uiso   1.00
C291   C     0.73300   0.11301   0.56717   0.00000  Uiso   1.00
C292   C     0.72731   0.17878   0.58838   0.00000  Uiso   1.00
C293   C     0.72841   0.20073   0.69718   0.00000  Uiso   1.00
C294   C     0.78774   0.04111   0.40101   0.00000  Uiso   1.00
C295   C     0.82807   0.04642   0.28249   0.00000  Uiso   1.00
C296   C     0.87524   0.00783   0.25140   0.00000  Uiso   1.00
C297   C     0.68646   0.02859   0.50141   0.00000  Uiso   1.00
C298   C     0.64164   0.02337   0.46729   0.00000  Uiso   1.00
C299   C     0.60356   0.97423   0.52070   0.00000  Uiso   1.00
H300   H     0.75014   0.96776   0.67563   0.00000  Uiso   1.00
H301   H     0.74574   0.05971   0.82579   0.00000  Uiso   1.00
H302   H     0.84647   0.92737   0.51995   0.00000  Uiso   1.00
H303   H     0.66008   0.90432   0.70471   0.00000  Uiso   1.00
H304   H     0.73799   0.18034   0.95500   0.00000  Uiso   1.00
H305   H     0.95038   0.90127   0.31010   0.00000  Uiso   1.00
H306   H     0.55733   0.85267   0.69972   0.00000  Uiso   1.00
H307   H     0.72787   0.11169   0.38857   0.00000  Uiso   1.00
H308   H     0.72224   0.21155   0.52299   0.00000  Uiso   1.00
H309   H     0.82298   0.07920   0.21714   0.00000  Uiso   1.00
H310   H     0.63658   0.05616   0.40191   0.00000  Uiso   1.00
H311   H     0.71892   0.30358   0.70923   0.00000  Uiso   1.00
H312   H     0.93131   0.02450   0.06433   0.00000  Uiso   1.00
H313   H     0.53826   0.97591   0.45395   0.00000  Uiso   1.00
O314   O     0.72517   0.30505   0.92570   0.00000  Uiso   1.00
O315   O     0.00382   0.93891   0.07961   0.00000  Uiso   1.00
O316   O     0.48815   0.87516   0.59079   0.00000  Uiso   1.00
N317   N     0.73426   0.19564   0.87872   0.00000  Uiso   1.00
N318   N     0.93284   0.93473   0.27579   0.00000  Uiso   1.00
N319   N     0.56538   0.88929   0.64002   0.00000  Uiso   1.00
N320   N     0.72400   0.26195   0.74648   0.00000  Uiso   1.00
N321   N     0.92258   0.00104   0.14354   0.00000  Uiso   1.00
N322   N     0.55512   0.95560   0.50778   0.00000  Uiso   1.00
C323   C     0.24504   0.50073   0.60987   0.00000  Uiso   1.00
C324   C     0.23955   0.57065   0.65165   0.00000  Uiso   1.00
C325   C     0.24066   0.59250   0.76044   0.00000  Uiso   1.00
C326   C     0.23498   0.65829   0.78180   0.00000  Uiso   1.00
C327   C     0.22749   0.76042   0.85951   0.00000  Uiso   1.00
C328   C     0.29429   0.49875   0.48548   0.00000  Uiso   1.00
C329   C     0.34142   0.46014   0.45456   0.00000  Uiso   1.00
C330   C     0.38181   0.46540   0.33603   0.00000  Uiso   1.00
C331   C     0.45927   0.45587   0.15572   0.00000  Uiso   1.00
C332   C     0.19301   0.48623   0.58588   0.00000  Uiso   1.00
C333   C     0.15499   0.43709   0.63935   0.00000  Uiso   1.00
C334   C     0.11012   0.43180   0.60532   0.00000  Uiso   1.00
C335   C     0.03034   0.40283   0.58091   0.00000  Uiso   1.00
C336   C     0.23297   0.57871   0.45434   0.00000  Uiso   1.00
C337   C     0.23300   0.61301   0.56717   0.00000  Uiso   1.00
C338   C     0.22731   0.67878   0.58838   0.00000  Uiso   1.00
C339   C     0.22841   0.70073   0.69718   0.00000  Uiso   1.00
C340   C     0.28774   0.54111   0.40101   0.00000  Uiso   1.00
C341   C     0.32807   0.54642   0.28249   0.00000  Uiso   1.00
C342   C     0.37524   0.50783   0.25140   0.00000  Uiso   1.00
C343   C     0.18646   0.52859   0.50141   0.00000  Uiso   1.00
C344   C     0.14164   0.52337   0.46729   0.00000  Uiso   1.00
C345   C     0.10356   0.47423   0.52070   0.00000  Uiso   1.00
H346   H     0.25014   0.46776   0.67563   0.00000  Uiso   1.00
H347   H     0.24574   0.55971   0.82579   0.00000  Uiso   1.00
H348   H     0.34647   0.42737   0.51995   0.00000  Uiso   1.00
H349   H     0.16008   0.40432   0.70471   0.00000  Uiso   1.00
H350   H     0.23799   0.68034   0.95500   0.00000  Uiso   1.00
H351   H     0.45038   0.40127   0.31010   0.00000  Uiso   1.00
H352   H     0.05733   0.35267   0.69972   0.00000  Uiso   1.00
H353   H     0.22787   0.61169   0.38857   0.00000  Uiso   1.00
H354   H     0.22224   0.71155   0.52299   0.00000  Uiso   1.00
H355   H     0.32298   0.57920   0.21714   0.00000  Uiso   1.00
H356   H     0.13658   0.55616   0.40191   0.00000  Uiso   1.00
H357   H     0.21892   0.80358   0.70923   0.00000  Uiso   1.00
H358   H     0.43131   0.52450   0.06433   0.00000  Uiso   1.00
H359   H     0.03826   0.47591   0.45395   0.00000  Uiso   1.00
O360   O     0.22517   0.80505   0.92570   0.00000  Uiso   1.00
O361   O     0.50382   0.43891   0.07961   0.00000  Uiso   1.00
O362   O     0.98815   0.37516   0.59079   0.00000  Uiso   1.00
N363   N     0.23426   0.69564   0.87872   0.00000  Uiso   1.00
N364   N     0.43284   0.43473   0.27579   0.00000  Uiso   1.00
N365   N     0.06538   0.38929   0.64002   0.00000  Uiso   1.00
N366   N     0.22400   0.76195   0.74648   0.00000  Uiso   1.00
N367   N     0.42258   0.50104   0.14354   0.00000  Uiso   1.00
N368   N     0.05512   0.45560   0.50778   0.00000  Uiso   1.00
