data_job_06864
_audit_creation_date              2018-12-19
_audit_creation_method            'Materials Studio'
_symmetry_space_group_name_H-M    'P1'
_symmetry_Int_Tables_number       1
_symmetry_cell_setting            triclinic
loop_
_symmetry_equiv_pos_as_xyz
  x,y,z
_cell_length_a                    21.6875
_cell_length_b                    20.9955
_cell_length_c                    19.9111
_cell_angle_alpha                 106.3900
_cell_angle_beta                  87.0045
_cell_angle_gamma                 109.6420
loop_
_atom_site_label
_atom_site_type_symbol
_atom_site_fract_x
_atom_site_fract_y
_atom_site_fract_z
_atom_site_U_iso_or_equiv
_atom_site_adp_type
_atom_site_occupancy
C1     C     0.42532   0.71561   0.20705   0.00000  Uiso   1.00
C2     C     0.42989   0.66470   0.24657   0.00000  Uiso   1.00
C3     C     0.37978   0.60429   0.25113   0.00000  Uiso   1.00
C4     C     0.39374   0.56474   0.28979   0.00000  Uiso   1.00
C5     C     0.39141   0.48264   0.34619   0.00000  Uiso   1.00
C6     C     0.44406   0.78795   0.26059   0.00000  Uiso   1.00
C7     C     0.40586   0.83117   0.27693   0.00000  Uiso   1.00
C8     C     0.43175   0.89538   0.32739   0.00000  Uiso   1.00
C9     C     0.45143   0.00466   0.40552   0.00000  Uiso   1.00
C10    C     0.48007   0.71965   0.15548   0.00000  Uiso   1.00
C11    C     0.47216   0.70547   0.08344   0.00000  Uiso   1.00
C12    C     0.52837   0.71219   0.04540   0.00000  Uiso   1.00
C13    C     0.60397   0.71542   0.96032   0.00000  Uiso   1.00
C14    C     0.53921   0.75279   0.26760   0.00000  Uiso   1.00
C15    C     0.49175   0.68490   0.27946   0.00000  Uiso   1.00
C16    C     0.50579   0.64543   0.31812   0.00000  Uiso   1.00
C17    C     0.45571   0.58497   0.32274   0.00000  Uiso   1.00
C18    C     0.50591   0.80815   0.29348   0.00000  Uiso   1.00
C19    C     0.53187   0.87231   0.34393   0.00000  Uiso   1.00
C20    C     0.49372   0.91562   0.36034   0.00000  Uiso   1.00
C21    C     0.54193   0.73985   0.18837   0.00000  Uiso   1.00
C22    C     0.59817   0.74661   0.15043   0.00000  Uiso   1.00
C23    C     0.59035   0.73243   0.07835   0.00000  Uiso   1.00
H24    H     0.37716   0.69989   0.18144   0.00000  Uiso   1.00
H25    H     0.33191   0.58868   0.22567   0.00000  Uiso   1.00
H26    H     0.35799   0.81553   0.25147   0.00000  Uiso   1.00
H27    H     0.42428   0.68984   0.05800   0.00000  Uiso   1.00
H28    H     0.30902   0.47431   0.28924   0.00000  Uiso   1.00
H29    H     0.36402   0.95264   0.34361   0.00000  Uiso   1.00
H30    H     0.50380   0.68761   0.93565   0.00000  Uiso   1.00
H31    H     0.58738   0.76852   0.29321   0.00000  Uiso   1.00
H32    H     0.55366   0.66107   0.34357   0.00000  Uiso   1.00
H33    H     0.57974   0.88793   0.36936   0.00000  Uiso   1.00
H34    H     0.64603   0.76224   0.17590   0.00000  Uiso   1.00
H35    H     0.48900   0.53307   0.38493   0.00000  Uiso   1.00
H36    H     0.54400   0.01141   0.43930   0.00000  Uiso   1.00
H37    H     0.68378   0.74637   0.03134   0.00000  Uiso   1.00
O38    O     0.37303   0.43179   0.36822   0.00000  Uiso   1.00
O39    O     0.44519   0.05935   0.43953   0.00000  Uiso   1.00
O40    O     0.62859   0.71162   0.90431   0.00000  Uiso   1.00
N41    N     0.35601   0.50288   0.30484   0.00000  Uiso   1.00
N42    N     0.40742   0.95009   0.35567   0.00000  Uiso   1.00
N43    N     0.53811   0.70232   0.97427   0.00000  Uiso   1.00
N44    N     0.45285   0.53450   0.35633   0.00000  Uiso   1.00
N45    N     0.50427   0.98170   0.40716   0.00000  Uiso   1.00
N46    N     0.63496   0.73393   0.02576   0.00000  Uiso   1.00
C47    C     0.15231   0.41464   0.72363   0.00000  Uiso   1.00
C48    C     0.16068   0.34352   0.68907   0.00000  Uiso   1.00
C49    C     0.13748   0.28443   0.71356   0.00000  Uiso   1.00
C50    C     0.15021   0.22443   0.67443   0.00000  Uiso   1.00
C51    C     0.15796   0.11413   0.63012   0.00000  Uiso   1.00
C52    C     0.22125   0.46875   0.73635   0.00000  Uiso   1.00
C53    C     0.24896   0.51496   0.80058   0.00000  Uiso   1.00
C54    C     0.31267   0.56039   0.80125   0.00000  Uiso   1.00
C55    C     0.41443   0.64456   0.83033   0.00000  Uiso   1.00
C56    C     0.11878   0.43063   0.66803   0.00000  Uiso   1.00
C57    C     0.06034   0.44480   0.67482   0.00000  Uiso   1.00
C58    C     0.03779   0.45815   0.61798   0.00000  Uiso   1.00
C59    C     0.98045   0.48312   0.54099   0.00000  Uiso   1.00
C60    C     0.21618   0.41315   0.61061   0.00000  Uiso   1.00
C61    C     0.19538   0.34271   0.62769   0.00000  Uiso   1.00
C62    C     0.20814   0.28278   0.58851   0.00000  Uiso   1.00
C63    C     0.18496   0.22362   0.61293   0.00000  Uiso   1.00
C64    C     0.25594   0.46795   0.67496   0.00000  Uiso   1.00
C65    C     0.31962   0.51332   0.67554   0.00000  Uiso   1.00
C66    C     0.34742   0.55958   0.73975   0.00000  Uiso   1.00
C67    C     0.15347   0.42982   0.60664   0.00000  Uiso   1.00
C68    C     0.13101   0.44315   0.54978   0.00000  Uiso   1.00
C69    C     0.07255   0.45734   0.55648   0.00000  Uiso   1.00
H70    H     0.12531   0.41527   0.77143   0.00000  Uiso   1.00
H71    H     0.11064   0.28508   0.76107   0.00000  Uiso   1.00
H72    H     0.22209   0.51558   0.84808   0.00000  Uiso   1.00
H73    H     0.03351   0.44542   0.72234   0.00000  Uiso   1.00
H74    H     0.10969   0.14038   0.72252   0.00000  Uiso   1.00
H75    H     0.34470   0.62643   0.90598   0.00000  Uiso   1.00
H76    H     0.94703   0.47849   0.64084   0.00000  Uiso   1.00
H77    H     0.24319   0.41253   0.56282   0.00000  Uiso   1.00
H78    H     0.23499   0.28218   0.54101   0.00000  Uiso   1.00
H79    H     0.34645   0.51268   0.62802   0.00000  Uiso   1.00
H80    H     0.15787   0.44252   0.50228   0.00000  Uiso   1.00
H81    H     0.21063   0.13803   0.54392   0.00000  Uiso   1.00
H82    H     0.44564   0.62408   0.72737   0.00000  Uiso   1.00
H83    H     0.04797   0.47614   0.46223   0.00000  Uiso   1.00
O84    O     0.15266   0.05352   0.62265   0.00000  Uiso   1.00
O85    O     0.46097   0.69120   0.86333   0.00000  Uiso   1.00
O86    O     0.93924   0.49710   0.51547   0.00000  Uiso   1.00
N87    N     0.13456   0.15772   0.68347   0.00000  Uiso   1.00
N88    N     0.35429   0.61213   0.85500   0.00000  Uiso   1.00
N89    N     0.98251   0.47384   0.60712   0.00000  Uiso   1.00
N90    N     0.18887   0.15645   0.58737   0.00000  Uiso   1.00
N91    N     0.40860   0.61086   0.75889   0.00000  Uiso   1.00
N92    N     0.03682   0.47257   0.51101   0.00000  Uiso   1.00
C93    C     0.70278   0.17275   0.48827   0.00000  Uiso   1.00
C94    C     0.66157   0.19437   0.44489   0.00000  Uiso   1.00
C95    C     0.67027   0.19462   0.37540   0.00000  Uiso   1.00
C96    C     0.62746   0.21619   0.34507   0.00000  Uiso   1.00
C97    C     0.57105   0.24665   0.27197   0.00000  Uiso   1.00
C98    C     0.72925   0.23554   0.55265   0.00000  Uiso   1.00
C99    C     0.79486   0.27041   0.57378   0.00000  Uiso   1.00
C100   C     0.80902   0.32664   0.63418   0.00000  Uiso   1.00
C101   C     0.85768   0.42100   0.72841   0.00000  Uiso   1.00
C102   C     0.65481   0.11430   0.51503   0.00000  Uiso   1.00
C103   C     0.65784   0.04722   0.50454   0.00000  Uiso   1.00
C104   C     0.60933   0.00137   0.53327   0.00000  Uiso   1.00
C105   C     0.54242   0.90748   0.56908   0.00000  Uiso   1.00
C106   C     0.61126   0.21061   0.55796   0.00000  Uiso   1.00
C107   C     0.61186   0.21493   0.48275   0.00000  Uiso   1.00
C108   C     0.56901   0.23650   0.45252   0.00000  Uiso   1.00
C109   C     0.57765   0.23678   0.38300   0.00000  Uiso   1.00
C110   C     0.67954   0.25611   0.59051   0.00000  Uiso   1.00
C111   C     0.69360   0.31229   0.65089   0.00000  Uiso   1.00
C112   C     0.75922   0.34723   0.67210   0.00000  Uiso   1.00
C113   C     0.60510   0.13486   0.55288   0.00000  Uiso   1.00
C114   C     0.55658   0.08910   0.58164   0.00000  Uiso   1.00
C115   C     0.55953   0.02197   0.57119   0.00000  Uiso   1.00
H116   H     0.74149   0.15675   0.45880   0.00000  Uiso   1.00
H117   H     0.70876   0.17871   0.34612   0.00000  Uiso   1.00
H118   H     0.83332   0.25448   0.54448   0.00000  Uiso   1.00
H119   H     0.69632   0.03133   0.47524   0.00000  Uiso   1.00
H120   H     0.65056   0.21215   0.23791   0.00000  Uiso   1.00
H121   H     0.91321   0.37190   0.65616   0.00000  Uiso   1.00
H122   H     0.62432   0.90134   0.51016   0.00000  Uiso   1.00
H123   H     0.57256   0.22662   0.58744   0.00000  Uiso   1.00
H124   H     0.53055   0.25241   0.48182   0.00000  Uiso   1.00
H125   H     0.65512   0.32818   0.68018   0.00000  Uiso   1.00
H126   H     0.51812   0.10503   0.61094   0.00000  Uiso   1.00
H127   H     0.50592   0.27197   0.34805   0.00000  Uiso   1.00
H128   H     0.76858   0.43172   0.76630   0.00000  Uiso   1.00
H129   H     0.47968   0.96116   0.62030   0.00000  Uiso   1.00
O130   O     0.55367   0.25778   0.22119   0.00000  Uiso   1.00
O131   O     0.89826   0.46737   0.76992   0.00000  Uiso   1.00
O132   O     0.51924   0.85001   0.57836   0.00000  Uiso   1.00
N133   N     0.62227   0.22267   0.27832   0.00000  Uiso   1.00
N134   N     0.86784   0.37204   0.66935   0.00000  Uiso   1.00
N135   N     0.59776   0.93211   0.53287   0.00000  Uiso   1.00
N136   N     0.54445   0.25486   0.33759   0.00000  Uiso   1.00
N137   N     0.79001   0.40423   0.72862   0.00000  Uiso   1.00
N138   N     0.51993   0.96430   0.59213   0.00000  Uiso   1.00
C139   C     0.88404   0.58621   0.23582   0.00000  Uiso   1.00
C140   C     0.87437   0.63313   0.19404   0.00000  Uiso   1.00
C141   C     0.81449   0.63383   0.17350   0.00000  Uiso   1.00
C142   C     0.81606   0.68060   0.13561   0.00000  Uiso   1.00
C143   C     0.79202   0.74671   0.07331   0.00000  Uiso   1.00
C144   C     0.92683   0.63584   0.30055   0.00000  Uiso   1.00
C145   C     0.91105   0.63882   0.36957   0.00000  Uiso   1.00
C146   C     0.95678   0.68787   0.42134   0.00000  Uiso   1.00
C147   C     0.01420   0.75816   0.52440   0.00000  Uiso   1.00
C148   C     0.92579   0.54574   0.19177   0.00000  Uiso   1.00
C149   C     0.90915   0.47295   0.16934   0.00000  Uiso   1.00
C150   C     0.95402   0.44613   0.12953   0.00000  Uiso   1.00
C151   C     0.00984   0.37652   0.06370   0.00000  Uiso   1.00
C152   C     0.99331   0.66802   0.20504   0.00000  Uiso   1.00
C153   C     0.93373   0.67756   0.17732   0.00000  Uiso   1.00
C154   C     0.93539   0.72434   0.13945   0.00000  Uiso   1.00
C155   C     0.87551   0.72511   0.11886   0.00000  Uiso   1.00
C156   C     0.98618   0.68028   0.28384   0.00000  Uiso   1.00
C157   C     0.03195   0.72933   0.33551   0.00000  Uiso   1.00
C158   C     0.01624   0.73239   0.40459   0.00000  Uiso   1.00
C159   C     0.98515   0.59017   0.17505   0.00000  Uiso   1.00
C160   C     0.03005   0.56346   0.13528   0.00000  Uiso   1.00
C161   C     0.01348   0.49065   0.11278   0.00000  Uiso   1.00
H162   H     0.83783   0.55162   0.24884   0.00000  Uiso   1.00
H163   H     0.76857   0.59944   0.18646   0.00000  Uiso   1.00
H164   H     0.86512   0.60442   0.38249   0.00000  Uiso   1.00
H165   H     0.86322   0.43858   0.18228   0.00000  Uiso   1.00
H166   H     0.71795   0.67207   0.10995   0.00000  Uiso   1.00
H167   H     0.92154   0.68256   0.52329   0.00000  Uiso   1.00
H168   H     0.91754   0.33284   0.10112   0.00000  Uiso   1.00
H169   H     0.03952   0.70262   0.19202   0.00000  Uiso   1.00
H170   H     0.98132   0.75872   0.12652   0.00000  Uiso   1.00
H171   H     0.07787   0.76371   0.32255   0.00000  Uiso   1.00
H172   H     0.07597   0.59786   0.12235   0.00000  Uiso   1.00
H173   H     0.89063   0.80135   0.06130   0.00000  Uiso   1.00
H174   H     0.09422   0.81184   0.47465   0.00000  Uiso   1.00
H175   H     0.09022   0.46213   0.05248   0.00000  Uiso   1.00
O176   O     0.76237   0.77091   0.04358   0.00000  Uiso   1.00
O177   O     0.02948   0.78467   0.58587   0.00000  Uiso   1.00
O178   O     0.02423   0.32585   0.03199   0.00000  Uiso   1.00
N179   N     0.76658   0.69478   0.10747   0.00000  Uiso   1.00
N180   N     0.95692   0.70461   0.49393   0.00000  Uiso   1.00
N181   N     0.95319   0.37765   0.09925   0.00000  Uiso   1.00
N182   N     0.85950   0.76435   0.08130   0.00000  Uiso   1.00
N183   N     0.04984   0.77417   0.46775   0.00000  Uiso   1.00
N184   N     0.04610   0.44721   0.07308   0.00000  Uiso   1.00
C185   C     0.53645   0.15277   0.06753   0.00000  Uiso   1.00
C186   C     0.52349   0.11447   0.98955   0.00000  Uiso   1.00
C187   C     0.50348   0.13889   0.93952   0.00000  Uiso   1.00
C188   C     0.49428   0.09604   0.87096   0.00000  Uiso   1.00
C189   C     0.47259   0.04647   0.75258   0.00000  Uiso   1.00
C190   C     0.60659   0.15998   0.08480   0.00000  Uiso   1.00
C191   C     0.65646   0.22266   0.11488   0.00000  Uiso   1.00
C192   C     0.71721   0.21811   0.12651   0.00000  Uiso   1.00
C193   C     0.82452   0.23918   0.15607   0.00000  Uiso   1.00
C194   C     0.49247   0.10196   0.10574   0.00000  Uiso   1.00
C195   C     0.44639   0.11585   0.15344   0.00000  Uiso   1.00
C196   C     0.41108   0.06246   0.18271   0.00000  Uiso   1.00
C197   C     0.34120   0.99344   0.24478   0.00000  Uiso   1.00
C198   C     0.55568   0.03325   0.03471   0.00000  Uiso   1.00
C199   C     0.53393   0.04956   0.97173   0.00000  Uiso   1.00
C200   C     0.52476   0.00666   0.90322   0.00000  Uiso   1.00
C201   C     0.50474   0.03101   0.85310   0.00000  Uiso   1.00
C202   C     0.61703   0.09506   0.06698   0.00000  Uiso   1.00
C203   C     0.67773   0.09042   0.07857   0.00000  Uiso   1.00
C204   C     0.72767   0.15308   0.10865   0.00000  Uiso   1.00
C205   C     0.50291   0.03704   0.08792   0.00000  Uiso   1.00
C206   C     0.46766   0.98361   0.11713   0.00000  Uiso   1.00
C207   C     0.42154   0.99742   0.16486   0.00000  Uiso   1.00
H208   H     0.52833   0.20331   0.08140   0.00000  Uiso   1.00
H209   H     0.49541   0.18914   0.95334   0.00000  Uiso   1.00
H210   H     0.64836   0.27289   0.12867   0.00000  Uiso   1.00
H211   H     0.43833   0.16610   0.16722   0.00000  Uiso   1.00
H212   H     0.46355   0.14480   0.80349   0.00000  Uiso   1.00
H213   H     0.78604   0.32139   0.17321   0.00000  Uiso   1.00
H214   H     0.34315   0.09621   0.25450   0.00000  Uiso   1.00
H215   H     0.56381   0.98271   0.02084   0.00000  Uiso   1.00
H216   H     0.53284   0.95642   0.88944   0.00000  Uiso   1.00
H217   H     0.68579   0.04017   0.06478   0.00000  Uiso   1.00
H218   H     0.47576   0.93338   0.10333   0.00000  Uiso   1.00
H219   H     0.49393   0.95592   0.75163   0.00000  Uiso   1.00
H220   H     0.81642   0.13251   0.12136   0.00000  Uiso   1.00
H221   H     0.37353   0.90732   0.20264   0.00000  Uiso   1.00
O222   O     0.45775   0.03706   0.69221   0.00000  Uiso   1.00
O223   O     0.88083   0.26874   0.17729   0.00000  Uiso   1.00
O224   O     0.29977   0.97330   0.28393   0.00000  Uiso   1.00
N225   N     0.47494   0.10395   0.80931   0.00000  Uiso   1.00
N226   N     0.77645   0.26905   0.15497   0.00000  Uiso   1.00
N227   N     0.36239   0.05853   0.23099   0.00000  Uiso   1.00
N228   N     0.49129   0.00232   0.78141   0.00000  Uiso   1.00
N229   N     0.79279   0.16742   0.12707   0.00000  Uiso   1.00
N230   N     0.37874   0.95689   0.20308   0.00000  Uiso   1.00
C231   C     0.98767   0.94538   0.63646   0.00000  Uiso   1.00
C232   C     0.91481   0.90899   0.64341   0.00000  Uiso   1.00
C233   C     0.88468   0.83791   0.63791   0.00000  Uiso   1.00
C234   C     0.81750   0.81486   0.64590   0.00000  Uiso   1.00
C235   C     0.70979   0.75130   0.65475   0.00000  Uiso   1.00
C236   C     0.01106   0.00492   0.70402   0.00000  Uiso   1.00
C237   C     0.06187   0.01450   0.74947   0.00000  Uiso   1.00
C238   C     0.07571   0.07221   0.80848   0.00000  Uiso   1.00
C239   C     0.11746   0.15761   0.91139   0.00000  Uiso   1.00
C240   C     0.99211   0.98081   0.57839   0.00000  Uiso   1.00
C241   C     0.02700   0.97014   0.51822   0.00000  Uiso   1.00
C242   C     0.02490   0.00757   0.47146   0.00000  Uiso   1.00
C243   C     0.03723   0.05554   0.37932   0.00000  Uiso   1.00
C244   C     0.92193   0.03086   0.66044   0.00000  Uiso   1.00
C245   C     0.87910   0.95542   0.65644   0.00000  Uiso   1.00
C246   C     0.81194   0.93248   0.66444   0.00000  Uiso   1.00
C247   C     0.78172   0.86137   0.65894   0.00000  Uiso   1.00
C248   C     0.97535   0.05135   0.71705   0.00000  Uiso   1.00
C249   C     0.98912   0.10907   0.77600   0.00000  Uiso   1.00
C250   C     0.03994   0.11873   0.82152   0.00000  Uiso   1.00
C251   C     0.95639   0.02724   0.59142   0.00000  Uiso   1.00
C252   C     0.95425   0.06471   0.54475   0.00000  Uiso   1.00
C253   C     0.98912   0.05409   0.48451   0.00000  Uiso   1.00
H254   H     0.01548   0.90924   0.62633   0.00000  Uiso   1.00
H255   H     0.91234   0.80199   0.62784   0.00000  Uiso   1.00
H256   H     0.08950   0.97856   0.73937   0.00000  Uiso   1.00
H257   H     0.05463   0.93421   0.50816   0.00000  Uiso   1.00
H258   H     0.78224   0.70357   0.63528   0.00000  Uiso   1.00
H259   H     0.15580   0.07589   0.87045   0.00000  Uiso   1.00
H260   H     0.08228   0.98236   0.38289   0.00000  Uiso   1.00
H261   H     0.89412   0.06701   0.67058   0.00000  Uiso   1.00
H262   H     0.78432   0.96842   0.67452   0.00000  Uiso   1.00
H263   H     0.96148   0.14499   0.78606   0.00000  Uiso   1.00
H264   H     0.92661   0.10063   0.55484   0.00000  Uiso   1.00
H265   H     0.67834   0.83865   0.67317   0.00000  Uiso   1.00
H266   H     0.05190   0.21097   0.90834   0.00000  Uiso   1.00
H267   H     0.97837   0.11744   0.42078   0.00000  Uiso   1.00
O268   O     0.66025   0.70341   0.65604   0.00000  Uiso   1.00
O269   O     0.15036   0.19188   0.96456   0.00000  Uiso   1.00
O270   O     0.05389   0.06917   0.32490   0.00000  Uiso   1.00
N271   N     0.77286   0.74889   0.64364   0.00000  Uiso   1.00
N272   N     0.12211   0.09698   0.86352   0.00000  Uiso   1.00
N273   N     0.05338   0.00955   0.40770   0.00000  Uiso   1.00
N274   N     0.71694   0.82157   0.66403   0.00000  Uiso   1.00
N275   N     0.06620   0.16966   0.88390   0.00000  Uiso   1.00
N276   N     0.99747   0.08223   0.42809   0.00000  Uiso   1.00
C277   C     0.38445   0.25280   0.91389   0.00000  Uiso   1.00
C278   C     0.44519   0.29256   0.88145   0.00000  Uiso   1.00
C279   C     0.50793   0.32376   0.91265   0.00000  Uiso   1.00
C280   C     0.55689   0.35763   0.87438   0.00000  Uiso   1.00
C281   C     0.65325   0.41894   0.83419   0.00000  Uiso   1.00
C282   C     0.35687   0.17981   0.86213   0.00000  Uiso   1.00
C283   C     0.34533   0.11622   0.87709   0.00000  Uiso   1.00
C284   C     0.31992   0.05518   0.82255   0.00000  Uiso   1.00
C285   C     0.27911   0.94145   0.75238   0.00000  Uiso   1.00
C286   C     0.33442   0.28924   0.91347   0.00000  Uiso   1.00
C287   C     0.30399   0.31764   0.97160   0.00000  Uiso   1.00
C288   C     0.25967   0.34872   0.96028   0.00000  Uiso   1.00
C289   C     0.18399   0.40489   0.96983   0.00000  Uiso   1.00
C290   C     0.35983   0.25748   0.79041   0.00000  Uiso   1.00
C291   C     0.43182   0.29509   0.81438   0.00000  Uiso   1.00
C292   C     0.48069   0.32893   0.77604   0.00000  Uiso   1.00
C293   C     0.54349   0.36017   0.80719   0.00000  Uiso   1.00
C294   C     0.34349   0.18235   0.79506   0.00000  Uiso   1.00
C295   C     0.31809   0.12139   0.74048   0.00000  Uiso   1.00
C296   C     0.30653   0.05772   0.75536   0.00000  Uiso   1.00
C297   C     0.32104   0.29178   0.84640   0.00000  Uiso   1.00
C298   C     0.27675   0.32281   0.83499   0.00000  Uiso   1.00
C299   C     0.24627   0.35126   0.89309   0.00000  Uiso   1.00
H300   H     0.39486   0.25082   0.96610   0.00000  Uiso   1.00
H301   H     0.51826   0.32178   0.96456   0.00000  Uiso   1.00
H302   H     0.35568   0.11427   0.92900   0.00000  Uiso   1.00
H303   H     0.31435   0.31567   0.02349   0.00000  Uiso   1.00
H304   H     0.64918   0.40154   0.93326   0.00000  Uiso   1.00
H305   H     0.30635   0.96401   0.85829   0.00000  Uiso   1.00
H306   H     0.21919   0.38868   0.05755   0.00000  Uiso   1.00
H307   H     0.34942   0.25945   0.73819   0.00000  Uiso   1.00
H308   H     0.47033   0.33088   0.72414   0.00000  Uiso   1.00
H309   H     0.30775   0.12337   0.68859   0.00000  Uiso   1.00
H310   H     0.26642   0.32477   0.78308   0.00000  Uiso   1.00
H311   H     0.61028   0.40892   0.73813   0.00000  Uiso   1.00
H312   H     0.26745   0.97139   0.66317   0.00000  Uiso   1.00
H313   H     0.18029   0.39606   0.86242   0.00000  Uiso   1.00
O314   O     0.71009   0.45204   0.83055   0.00000  Uiso   1.00
O315   O     0.26030   0.87802   0.73221   0.00000  Uiso   1.00
O316   O     0.14596   0.43518   0.99363   0.00000  Uiso   1.00
N317   N     0.62343   0.39349   0.88927   0.00000  Uiso   1.00
N318   N     0.30291   0.98442   0.81918   0.00000  Uiso   1.00
N319   N     0.22141   0.38144   0.00547   0.00000  Uiso   1.00
N320   N     0.60250   0.39746   0.78427   0.00000  Uiso   1.00
N321   N     0.28198   0.98839   0.71418   0.00000  Uiso   1.00
N322   N     0.20048   0.38541   0.90047   0.00000  Uiso   1.00
C323   C     0.67348   0.50284   0.30608   0.00000  Uiso   1.00
C324   C     0.66492   0.56788   0.35816   0.00000  Uiso   1.00
C325   C     0.69232   0.63661   0.35413   0.00000  Uiso   1.00
C326   C     0.67862   0.68873   0.40693   0.00000  Uiso   1.00
C327   C     0.67133   0.79216   0.47943   0.00000  Uiso   1.00
C328   C     0.60452   0.45261   0.28042   0.00000  Uiso   1.00
C329   C     0.58115   0.42442   0.21103   0.00000  Uiso   1.00
C330   C     0.51660   0.37949   0.19840   0.00000  Uiso   1.00
C331   C     0.41557   0.30391   0.15021   0.00000  Uiso   1.00
C332   C     0.70093   0.46771   0.34882   0.00000  Uiso   1.00
C333   C     0.75861   0.45220   0.33694   0.00000  Uiso   1.00
C334   C     0.77522   0.41997   0.38188   0.00000  Uiso   1.00
C335   C     0.82387   0.36785   0.43990   0.00000  Uiso   1.00
C336   C     0.60042   0.47317   0.40701   0.00000  Uiso   1.00
C337   C     0.62524   0.55176   0.41298   0.00000  Uiso   1.00
C338   C     0.61149   0.60379   0.46580   0.00000  Uiso   1.00
C339   C     0.63887   0.67259   0.46185   0.00000  Uiso   1.00
C340   C     0.56484   0.43649   0.33524   0.00000  Uiso   1.00
C341   C     0.50032   0.39159   0.32271   0.00000  Uiso   1.00
C342   C     0.47685   0.36334   0.25332   0.00000  Uiso   1.00
C343   C     0.66125   0.45160   0.40365   0.00000  Uiso   1.00
C344   C     0.67778   0.41938   0.44861   0.00000  Uiso   1.00
C345   C     0.73547   0.40382   0.43680   0.00000  Uiso   1.00
H346   H     0.70437   0.51539   0.26339   0.00000  Uiso   1.00
H347   H     0.72302   0.64906   0.31169   0.00000  Uiso   1.00
H348   H     0.61187   0.43689   0.16862   0.00000  Uiso   1.00
H349   H     0.78930   0.46468   0.29451   0.00000  Uiso   1.00
H350   H     0.72618   0.79016   0.38940   0.00000  Uiso   1.00
H351   H     0.49181   0.34276   0.08772   0.00000  Uiso   1.00
H352   H     0.86596   0.40135   0.35318   0.00000  Uiso   1.00
H353   H     0.56953   0.46062   0.44970   0.00000  Uiso   1.00
H354   H     0.58078   0.59130   0.50822   0.00000  Uiso   1.00
H355   H     0.46963   0.37913   0.36514   0.00000  Uiso   1.00
H356   H     0.64706   0.40691   0.49103   0.00000  Uiso   1.00
H357   H     0.61073   0.74327   0.54890   0.00000  Uiso   1.00
H358   H     0.37636   0.29588   0.24723   0.00000  Uiso   1.00
H359   H     0.75051   0.35447   0.51269   0.00000  Uiso   1.00
O360   O     0.67827   0.85366   0.50427   0.00000  Uiso   1.00
O361   O     0.37080   0.26669   0.10849   0.00000  Uiso   1.00
O362   O     0.86167   0.34356   0.45677   0.00000  Uiso   1.00
N363   N     0.69747   0.76119   0.41891   0.00000  Uiso   1.00
N364   N     0.47835   0.34291   0.13687   0.00000  Uiso   1.00
N365   N     0.82814   0.39767   0.38504   0.00000  Uiso   1.00
N366   N     0.63535   0.73596   0.50474   0.00000  Uiso   1.00
N367   N     0.41623   0.31769   0.22270   0.00000  Uiso   1.00
N368   N     0.76602   0.37245   0.47087   0.00000  Uiso   1.00
C369   C     0.19747   0.74215   0.51212   0.00000  Uiso   1.00
C370   C     0.26261   0.72869   0.50777   0.00000  Uiso   1.00
C371   C     0.29569   0.72320   0.56256   0.00000  Uiso   1.00
C372   C     0.35459   0.71075   0.54793   0.00000  Uiso   1.00
C373   C     0.45194   0.69083   0.55136   0.00000  Uiso   1.00
C374   C     0.15136   0.68139   0.45617   0.00000  Uiso   1.00
C375   C     0.09090   0.63615   0.46756   0.00000  Uiso   1.00
C376   C     0.05616   0.58390   0.40949   0.00000  Uiso   1.00
C377   C     0.98078   0.49058   0.33279   0.00000  Uiso   1.00
C378   C     0.20980   0.80791   0.48788   0.00000  Uiso   1.00
C379   C     0.19846   0.86905   0.52593   0.00000  Uiso   1.00
C380   C     0.21289   0.92332   0.49455   0.00000  Uiso   1.00
C381   C     0.22824   0.02644   0.46709   0.00000  Uiso   1.00
C382   C     0.24325   0.72980   0.38874   0.00000  Uiso   1.00
C383   C     0.28748   0.72198   0.44075   0.00000  Uiso   1.00
C384   C     0.34635   0.70954   0.42604   0.00000  Uiso   1.00
C385   C     0.37951   0.70404   0.48080   0.00000  Uiso   1.00
C386   C     0.17623   0.67468   0.38915   0.00000  Uiso   1.00
C387   C     0.14157   0.62249   0.33105   0.00000  Uiso   1.00
C388   C     0.08107   0.57717   0.34235   0.00000  Uiso   1.00
C389   C     0.23467   0.80121   0.42086   0.00000  Uiso   1.00
C390   C     0.24912   0.85539   0.38942   0.00000  Uiso   1.00
C391   C     0.23781   0.91659   0.42741   0.00000  Uiso   1.00
H392   H     0.17810   0.74737   0.56430   0.00000  Uiso   1.00
H393   H     0.27642   0.72839   0.61441   0.00000  Uiso   1.00
H394   H     0.07167   0.64136   0.51943   0.00000  Uiso   1.00
H395   H     0.17921   0.87422   0.57779   0.00000  Uiso   1.00
H396   H     0.39639   0.70436   0.64041   0.00000  Uiso   1.00
H397   H     0.96464   0.52086   0.44012   0.00000  Uiso   1.00
H398   H     0.19141   0.01190   0.56319   0.00000  Uiso   1.00
H399   H     0.26262   0.72458   0.33656   0.00000  Uiso   1.00
H400   H     0.36558   0.70435   0.37418   0.00000  Uiso   1.00
H401   H     0.16083   0.61731   0.27919   0.00000  Uiso   1.00
H402   H     0.26837   0.85018   0.33755   0.00000  Uiso   1.00
H403   H     0.46875   0.68484   0.44542   0.00000  Uiso   1.00
H404   H     0.03700   0.50135   0.24514   0.00000  Uiso   1.00
H405   H     0.26377   0.99239   0.36820   0.00000  Uiso   1.00
O406   O     0.49876   0.68168   0.57176   0.00000  Uiso   1.00
O407   O     0.93233   0.44095   0.30900   0.00000  Uiso   1.00
O408   O     0.22985   0.08518   0.47046   0.00000  Uiso   1.00
N409   N     0.39929   0.70256   0.58936   0.00000  Uiso   1.00
N410   N     0.99564   0.53099   0.40211   0.00000  Uiso   1.00
N411   N     0.20764   0.99006   0.51716   0.00000  Uiso   1.00
N412   N     0.43823   0.69206   0.48444   0.00000  Uiso   1.00
N413   N     0.03458   0.52049   0.29719   0.00000  Uiso   1.00
N414   N     0.24657   0.97956   0.41224   0.00000  Uiso   1.00
C415   C     0.87091   0.23571   0.90096   0.00000  Uiso   1.00
C416   C     0.86468   0.17546   0.93219   0.00000  Uiso   1.00
C417   C     0.91531   0.16639   0.96403   0.00000  Uiso   1.00
C418   C     0.89959   0.10786   0.98926   0.00000  Uiso   1.00
C419   C     0.89967   0.02154   0.03869   0.00000  Uiso   1.00
C420   C     0.84528   0.20128   0.82489   0.00000  Uiso   1.00
C421   C     0.87962   0.21393   0.76653   0.00000  Uiso   1.00
C422   C     0.84756   0.17714   0.70144   0.00000  Uiso   1.00
C423   C     0.81752   0.13094   0.58430   0.00000  Uiso   1.00
C424   C     0.82192   0.27021   0.93769   0.00000  Uiso   1.00
C425   C     0.83661   0.34083   0.97415   0.00000  Uiso   1.00
C426   C     0.78489   0.36208   0.00402   0.00000  Uiso   1.00
C427   C     0.71858   0.42292   0.06201   0.00000  Uiso   1.00
C428   C     0.75294   0.14789   0.88914   0.00000  Uiso   1.00
C429   C     0.80060   0.12776   0.92576   0.00000  Uiso   1.00
C430   C     0.78480   0.06922   0.95095   0.00000  Uiso   1.00
C431   C     0.83540   0.06007   0.98283   0.00000  Uiso   1.00
C432   C     0.78121   0.15358   0.81847   0.00000  Uiso   1.00
C433   C     0.74910   0.11676   0.75345   0.00000  Uiso   1.00
C434   C     0.78337   0.12935   0.69500   0.00000  Uiso   1.00
C435   C     0.75785   0.22251   0.93127   0.00000  Uiso   1.00
C436   C     0.70609   0.24366   0.96107   0.00000  Uiso   1.00
C437   C     0.72070   0.31429   0.99758   0.00000  Uiso   1.00
H438   H     0.92079   0.27285   0.90595   0.00000  Uiso   1.00
H439   H     0.96490   0.20332   0.96899   0.00000  Uiso   1.00
H440   H     0.92920   0.25085   0.77152   0.00000  Uiso   1.00
H441   H     0.88620   0.37773   0.97911   0.00000  Uiso   1.00
H442   H     0.98554   0.10518   0.03601   0.00000  Uiso   1.00
H443   H     0.91026   0.20542   0.61964   0.00000  Uiso   1.00
H444   H     0.81960   0.47298   0.05739   0.00000  Uiso   1.00
H445   H     0.70305   0.11075   0.88413   0.00000  Uiso   1.00
H446   H     0.73521   0.03232   0.94597   0.00000  Uiso   1.00
H447   H     0.69951   0.07985   0.74850   0.00000  Uiso   1.00
H448   H     0.65651   0.20673   0.95609   0.00000  Uiso   1.00
H449   H     0.79912   0.96638   0.01733   0.00000  Uiso   1.00
H450   H     0.72384   0.06663   0.60096   0.00000  Uiso   1.00
H451   H     0.63317   0.33418   0.03871   0.00000  Uiso   1.00
O452   O     0.91741   0.98710   0.06773   0.00000  Uiso   1.00
O453   O     0.81865   0.11863   0.52146   0.00000  Uiso   1.00
O454   O     0.69970   0.46965   0.09578   0.00000  Uiso   1.00
N455   N     0.93725   0.08328   0.02314   0.00000  Uiso   1.00
N456   N     0.86687   0.17700   0.63386   0.00000  Uiso   1.00
N457   N     0.78211   0.42714   0.04310   0.00000  Uiso   1.00
N458   N     0.83694   0.00860   0.01309   0.00000  Uiso   1.00
N459   N     0.76656   0.10232   0.62381   0.00000  Uiso   1.00
N460   N     0.68179   0.35246   0.03305   0.00000  Uiso   1.00
C461   C     0.21533   0.70476   0.01189   0.00000  Uiso   1.00
C462   C     0.18718   0.75720   0.06110   0.00000  Uiso   1.00
C463   C     0.19784   0.78189   0.13337   0.00000  Uiso   1.00
C464   C     0.16770   0.82966   0.16901   0.00000  Uiso   1.00
C465   C     0.12996   0.90768   0.25081   0.00000  Uiso   1.00
C466   C     0.15670   0.64404   0.97159   0.00000  Uiso   1.00
C467   C     0.14173   0.57359   0.96860   0.00000  Uiso   1.00
C468   C     0.08593   0.52611   0.92888   0.00000  Uiso   1.00
C469   C     0.00089   0.42845   0.87168   0.00000  Uiso   1.00
C470   C     0.25243   0.74108   0.95829   0.00000  Uiso   1.00
C471   C     0.31795   0.75221   0.94409   0.00000  Uiso   1.00
C472   C     0.34275   0.78642   0.89316   0.00000  Uiso   1.00
C473   C     0.40635   0.83942   0.81530   0.00000  Uiso   1.00
C474   C     0.14285   0.74570   0.94668   0.00000  Uiso   1.00
C475   C     0.14781   0.77943   0.02568   0.00000  Uiso   1.00
C476   C     0.11765   0.82719   0.06122   0.00000  Uiso   1.00
C477   C     0.12826   0.85194   0.13353   0.00000  Uiso   1.00
C478   C     0.11733   0.66628   0.93617   0.00000  Uiso   1.00
C479   C     0.06154   0.61889   0.89644   0.00000  Uiso   1.00
C480   C     0.04649   0.54839   0.89339   0.00000  Uiso   1.00
C481   C     0.21306   0.76332   0.92287   0.00000  Uiso   1.00
C482   C     0.23776   0.79751   0.87194   0.00000  Uiso   1.00
C483   C     0.30331   0.80869   0.85767   0.00000  Uiso   1.00
H484   H     0.24598   0.68744   0.03947   0.00000  Uiso   1.00
H485   H     0.22831   0.76466   0.16076   0.00000  Uiso   1.00
H486   H     0.17221   0.55640   0.99601   0.00000  Uiso   1.00
H487   H     0.34840   0.73499   0.97151   0.00000  Uiso   1.00
H488   H     0.19134   0.86006   0.27963   0.00000  Uiso   1.00
H489   H     0.07306   0.42093   0.93221   0.00000  Uiso   1.00
H490   H     0.44461   0.79752   0.88055   0.00000  Uiso   1.00
H491   H     0.11219   0.76301   0.91910   0.00000  Uiso   1.00
H492   H     0.08719   0.84438   0.03379   0.00000  Uiso   1.00
H493   H     0.03109   0.63612   0.86904   0.00000  Uiso   1.00
H494   H     0.20728   0.81471   0.84454   0.00000  Uiso   1.00
H495   H     0.07680   0.92477   0.17657   0.00000  Uiso   1.00
H496   H     0.95852   0.48563   0.82915   0.00000  Uiso   1.00
H497   H     0.33006   0.86223   0.77750   0.00000  Uiso   1.00
O498   O     0.12001   0.94456   0.30572   0.00000  Uiso   1.00
O499   O     0.96485   0.36843   0.84992   0.00000  Uiso   1.00
O500   O     0.45230   0.86252   0.78214   0.00000  Uiso   1.00
N501   N     0.16782   0.86413   0.23963   0.00000  Uiso   1.00
N502   N     0.05724   0.45357   0.91483   0.00000  Uiso   1.00
N503   N     0.40459   0.80564   0.86652   0.00000  Uiso   1.00
N504   N     0.10619   0.89895   0.18418   0.00000  Uiso   1.00
N505   N     0.99560   0.48839   0.85937   0.00000  Uiso   1.00
N506   N     0.34296   0.84046   0.81106   0.00000  Uiso   1.00
C507   C     0.79014   0.03537   0.34246   0.00000  Uiso   1.00
C508   C     0.84774   0.09629   0.33023   0.00000  Uiso   1.00
C509   C     0.86235   0.16683   0.36691   0.00000  Uiso   1.00
C510   C     0.91717   0.21450   0.34781   0.00000  Uiso   1.00
C511   C     0.00070   0.31246   0.33699   0.00000  Uiso   1.00
C512   C     0.75193   0.99799   0.27217   0.00000  Uiso   1.00
C513   C     0.68597   0.98588   0.26005   0.00000  Uiso   1.00
C514   C     0.66014   0.95078   0.19207   0.00000  Uiso   1.00
C515   C     0.59489   0.89609   0.09113   0.00000  Uiso   1.00
C516   C     0.81968   0.98387   0.35701   0.00000  Uiso   1.00
C517   C     0.81068   0.95988   0.41621   0.00000  Uiso   1.00
C518   C     0.84188   0.91289   0.41965   0.00000  Uiso   1.00
C519   C     0.88183   0.83628   0.45043   0.00000  Uiso   1.00
C520   C     0.86154   0.99456   0.24330   0.00000  Uiso   1.00
C521   C     0.88652   0.07412   0.27637   0.00000  Uiso   1.00
C522   C     0.94134   0.12169   0.25721   0.00000  Uiso   1.00
C523   C     0.95603   0.19229   0.29385   0.00000  Uiso   1.00
C524   C     0.79070   0.97582   0.21832   0.00000  Uiso   1.00
C525   C     0.76496   0.94073   0.15034   0.00000  Uiso   1.00
C526   C     0.69899   0.92858   0.13811   0.00000  Uiso   1.00
C527   C     0.85846   0.96171   0.30315   0.00000  Uiso   1.00
C528   C     0.88968   0.91474   0.30650   0.00000  Uiso   1.00
C529   C     0.88073   0.89068   0.36569   0.00000  Uiso   1.00
H530   H     0.75995   0.05262   0.38439   0.00000  Uiso   1.00
H531   H     0.83232   0.18397   0.40859   0.00000  Uiso   1.00
H532   H     0.65597   0.00303   0.30174   0.00000  Uiso   1.00
H533   H     0.78066   0.97704   0.45788   0.00000  Uiso   1.00
H534   H     0.92965   0.31981   0.41165   0.00000  Uiso   1.00
H535   H     0.55780   0.93828   0.18636   0.00000  Uiso   1.00
H536   H     0.82074   0.88347   0.51560   0.00000  Uiso   1.00
H537   H     0.89173   0.97731   0.20137   0.00000  Uiso   1.00
H538   H     0.97135   0.10452   0.21552   0.00000  Uiso   1.00
H539   H     0.79499   0.92359   0.10867   0.00000  Uiso   1.00
H540   H     0.91969   0.89760   0.26481   0.00000  Uiso   1.00
H541   H     0.04249   0.25533   0.25495   0.00000  Uiso   1.00
H542   H     0.67063   0.87380   0.02966   0.00000  Uiso   1.00
H543   H     0.93357   0.81900   0.35890   0.00000  Uiso   1.00
O544   O     0.03605   0.37262   0.34590   0.00000  Uiso   1.00
O545   O     0.54819   0.87205   0.05033   0.00000  Uiso   1.00
O546   O     0.89316   0.80015   0.48230   0.00000  Uiso   1.00
N547   N     0.94529   0.28718   0.37283   0.00000  Uiso   1.00
N548   N     0.59763   0.93048   0.16220   0.00000  Uiso   1.00
N549   N     0.84344   0.87922   0.47001   0.00000  Uiso   1.00
N550   N     0.00600   0.25248   0.28852   0.00000  Uiso   1.00
N551   N     0.65835   0.89578   0.07788   0.00000  Uiso   1.00
N552   N     0.90416   0.84453   0.38569   0.00000  Uiso   1.00
