data_job_04711
_audit_creation_date              2018-12-19
_audit_creation_method            'Materials Studio'
_symmetry_space_group_name_H-M    'P1'
_symmetry_Int_Tables_number       1
_symmetry_cell_setting            triclinic
loop_
_symmetry_equiv_pos_as_xyz
  x,y,z
_cell_length_a                    20.8563
_cell_length_b                    31.1060
_cell_length_c                    14.3081
_cell_angle_alpha                 90.0000
_cell_angle_beta                  148.6365
_cell_angle_gamma                 90.0000
loop_
_atom_site_label
_atom_site_type_symbol
_atom_site_fract_x
_atom_site_fract_y
_atom_site_fract_z
_atom_site_U_iso_or_equiv
_atom_site_adp_type
_atom_site_occupancy
C1     C     0.90173   0.92188   0.16836   0.00000  Uiso   1.00
C2     C     0.81585   0.88523   0.03383   0.00000  Uiso   1.00
C3     C     0.69796   0.88979   0.85090   0.00000  Uiso   1.00
C4     C     0.63423   0.85230   0.75072   0.00000  Uiso   1.00
C5     C     0.49292   0.80156   0.52963   0.00000  Uiso   1.00
C6     C     0.01995   0.91514   0.25982   0.00000  Uiso   1.00
C7     C     0.07368   0.94486   0.26692   0.00000  Uiso   1.00
C8     C     0.18177   0.93254   0.35700   0.00000  Uiso   1.00
C9     C     0.35739   0.92825   0.48689   0.00000  Uiso   1.00
C10    C     0.93549   0.91409   0.31243   0.00000  Uiso   1.00
C11    C     0.91825   0.94293   0.36381   0.00000  Uiso   1.00
C12    C     0.95526   0.92973   0.49823   0.00000  Uiso   1.00
C13    C     0.99974   0.92381   0.70980   0.00000  Uiso   1.00
C14    C     0.99816   0.84719   0.31574   0.00000  Uiso   1.00
C15    C     0.86823   0.84466   0.11388   0.00000  Uiso   1.00
C16    C     0.80465   0.80715   0.01396   0.00000  Uiso   1.00
C17    C     0.68669   0.81166   0.83091   0.00000  Uiso   1.00
C18    C     0.07233   0.87457   0.33987   0.00000  Uiso   1.00
C19    C     0.18037   0.86221   0.42998   0.00000  Uiso   1.00
C20    C     0.23425   0.89190   0.43720   0.00000  Uiso   1.00
C21    C     0.98787   0.87352   0.39248   0.00000  Uiso   1.00
C22    C     0.02493   0.86028   0.52686   0.00000  Uiso   1.00
C23    C     0.00773   0.88909   0.57843   0.00000  Uiso   1.00
H24    H     0.86096   0.95347   0.10604   0.00000  Uiso   1.00
H25    H     0.65747   0.92120   0.78899   0.00000  Uiso   1.00
H26    H     0.03313   0.97625   0.20497   0.00000  Uiso   1.00
H27    H     0.87771   0.97432   0.30183   0.00000  Uiso   1.00
H28    H     0.45497   0.86752   0.47278   0.00000  Uiso   1.00
H29    H     0.24711   0.98362   0.34994   0.00000  Uiso   1.00
H30    H     0.91937   0.97954   0.55420   0.00000  Uiso   1.00
H31    H     0.03895   0.81560   0.37807   0.00000  Uiso   1.00
H32    H     0.84521   0.77576   0.07595   0.00000  Uiso   1.00
H33    H     0.22088   0.83081   0.49192   0.00000  Uiso   1.00
H34    H     0.06545   0.82888   0.58878   0.00000  Uiso   1.00
H35    H     0.60735   0.74948   0.70568   0.00000  Uiso   1.00
H36    H     0.39949   0.86557   0.58285   0.00000  Uiso   1.00
H37    H     0.07175   0.86150   0.78710   0.00000  Uiso   1.00
O38    O     0.40052   0.78478   0.38557   0.00000  Uiso   1.00
O39    O     0.43978   0.93709   0.53639   0.00000  Uiso   1.00
O40    O     0.00979   0.93175   0.80437   0.00000  Uiso   1.00
N41    N     0.51741   0.84521   0.56906   0.00000  Uiso   1.00
N42    N     0.25800   0.95375   0.38913   0.00000  Uiso   1.00
N43    N     0.95163   0.94994   0.58013   0.00000  Uiso   1.00
N44    N     0.59940   0.78169   0.69439   0.00000  Uiso   1.00
N45    N     0.33999   0.89023   0.51445   0.00000  Uiso   1.00
N46    N     0.03362   0.88642   0.70545   0.00000  Uiso   1.00
C47    C     0.32398   0.38459   0.05367   0.00000  Uiso   1.00
C48    C     0.26827   0.34763   0.92852   0.00000  Uiso   1.00
C49    C     0.14612   0.34435   0.74876   0.00000  Uiso   1.00
C50    C     0.11333   0.30802   0.65736   0.00000  Uiso   1.00
C51    C     0.01370   0.25548   0.45001   0.00000  Uiso   1.00
C52    C     0.43077   0.40164   0.12809   0.00000  Uiso   1.00
C53    C     0.44525   0.44377   0.11614   0.00000  Uiso   1.00
C54    C     0.54928   0.45291   0.19276   0.00000  Uiso   1.00
C55    C     0.70198   0.48422   0.29536   0.00000  Uiso   1.00
C56    C     0.38187   0.36430   0.21223   0.00000  Uiso   1.00
C57    C     0.35526   0.37505   0.27106   0.00000  Uiso   1.00
C58    C     0.41814   0.35276   0.41856   0.00000  Uiso   1.00
C59    C     0.49491   0.32611   0.65179   0.00000  Uiso   1.00
C60    C     0.48298   0.32591   0.21102   0.00000  Uiso   1.00
C61    C     0.35463   0.31576   0.01399   0.00000  Uiso   1.00
C62    C     0.32203   0.27942   0.92284   0.00000  Uiso   1.00
C63    C     0.19985   0.27609   0.74298   0.00000  Uiso   1.00
C64    C     0.51713   0.36976   0.21355   0.00000  Uiso   1.00
C65    C     0.62116   0.37884   0.29022   0.00000  Uiso   1.00
C66    C     0.63580   0.42097   0.27838   0.00000  Uiso   1.00
C67    C     0.46823   0.33243   0.29769   0.00000  Uiso   1.00
C68    C     0.53117   0.31012   0.44514   0.00000  Uiso   1.00
C69    C     0.50466   0.32083   0.50418   0.00000  Uiso   1.00
H70    H     0.25675   0.40941   0.98714   0.00000  Uiso   1.00
H71    H     0.07931   0.36902   0.68267   0.00000  Uiso   1.00
H72    H     0.37841   0.46843   0.05001   0.00000  Uiso   1.00
H73    H     0.28843   0.39972   0.20490   0.00000  Uiso   1.00
H74    H     0.92068   0.31020   0.38278   0.00000  Uiso   1.00
H75    H     0.55137   0.51980   0.15739   0.00000  Uiso   1.00
H76    H     0.36163   0.37491   0.48400   0.00000  Uiso   1.00
H77    H     0.55022   0.30109   0.27756   0.00000  Uiso   1.00
H78    H     0.38888   0.25476   0.98902   0.00000  Uiso   1.00
H79    H     0.68798   0.35417   0.35635   0.00000  Uiso   1.00
H80    H     0.59800   0.28546   0.51124   0.00000  Uiso   1.00
H81    H     0.17194   0.21746   0.63141   0.00000  Uiso   1.00
H82    H     0.80263   0.42707   0.40603   0.00000  Uiso   1.00
H83    H     0.61289   0.28217   0.73264   0.00000  Uiso   1.00
O84    O     0.93489   0.23531   0.31203   0.00000  Uiso   1.00
O85    O     0.76234   0.51031   0.32832   0.00000  Uiso   1.00
O86    O     0.51339   0.32021   0.75682   0.00000  Uiso   1.00
N87    N     0.00195   0.29473   0.48090   0.00000  Uiso   1.00
N88    N     0.59160   0.49069   0.20509   0.00000  Uiso   1.00
N89    N     0.41423   0.35524   0.51048   0.00000  Uiso   1.00
N90    N     0.13715   0.24483   0.61469   0.00000  Uiso   1.00
N91    N     0.72680   0.44079   0.33888   0.00000  Uiso   1.00
N92    N     0.54943   0.30534   0.64427   0.00000  Uiso   1.00
C93    C     0.09827   0.42188   0.33164   0.00000  Uiso   1.00
C94    C     0.18415   0.38523   0.46617   0.00000  Uiso   1.00
C95    C     0.30204   0.38979   0.64910   0.00000  Uiso   1.00
C96    C     0.36577   0.35230   0.74928   0.00000  Uiso   1.00
C97    C     0.50708   0.30156   0.97037   0.00000  Uiso   1.00
C98    C     0.98005   0.41514   0.24018   0.00000  Uiso   1.00
C99    C     0.92632   0.44486   0.23308   0.00000  Uiso   1.00
C100   C     0.81823   0.43254   0.14300   0.00000  Uiso   1.00
C101   C     0.64261   0.42825   0.01311   0.00000  Uiso   1.00
C102   C     0.06451   0.41409   0.18757   0.00000  Uiso   1.00
C103   C     0.08175   0.44293   0.13619   0.00000  Uiso   1.00
C104   C     0.04474   0.42973   0.00177   0.00000  Uiso   1.00
C105   C     0.00026   0.42381   0.79020   0.00000  Uiso   1.00
C106   C     0.00184   0.34719   0.18426   0.00000  Uiso   1.00
C107   C     0.13177   0.34466   0.38612   0.00000  Uiso   1.00
C108   C     0.19535   0.30715   0.48604   0.00000  Uiso   1.00
C109   C     0.31331   0.31166   0.66909   0.00000  Uiso   1.00
C110   C     0.92767   0.37457   0.16013   0.00000  Uiso   1.00
C111   C     0.81963   0.36221   0.07002   0.00000  Uiso   1.00
C112   C     0.76575   0.39190   0.06280   0.00000  Uiso   1.00
C113   C     0.01213   0.37352   0.10752   0.00000  Uiso   1.00
C114   C     0.97507   0.36028   0.97314   0.00000  Uiso   1.00
C115   C     0.99227   0.38909   0.92157   0.00000  Uiso   1.00
H116   H     0.13904   0.45347   0.39396   0.00000  Uiso   1.00
H117   H     0.34253   0.42120   0.71101   0.00000  Uiso   1.00
H118   H     0.96687   0.47625   0.29503   0.00000  Uiso   1.00
H119   H     0.12229   0.47432   0.19817   0.00000  Uiso   1.00
H120   H     0.54503   0.36752   0.02722   0.00000  Uiso   1.00
H121   H     0.75289   0.48362   0.15006   0.00000  Uiso   1.00
H122   H     0.08063   0.47954   0.94580   0.00000  Uiso   1.00
H123   H     0.96105   0.31560   0.12193   0.00000  Uiso   1.00
H124   H     0.15479   0.27576   0.42405   0.00000  Uiso   1.00
H125   H     0.77912   0.33081   0.00808   0.00000  Uiso   1.00
H126   H     0.93455   0.32888   0.91122   0.00000  Uiso   1.00
H127   H     0.39265   0.24948   0.79432   0.00000  Uiso   1.00
H128   H     0.60051   0.36557   0.91715   0.00000  Uiso   1.00
H129   H     0.92825   0.36150   0.71290   0.00000  Uiso   1.00
O130   O     0.59948   0.28478   0.11443   0.00000  Uiso   1.00
O131   O     0.56022   0.43709   0.96361   0.00000  Uiso   1.00
O132   O     0.99021   0.43175   0.69563   0.00000  Uiso   1.00
N133   N     0.48259   0.34521   0.93094   0.00000  Uiso   1.00
N134   N     0.74200   0.45375   0.11087   0.00000  Uiso   1.00
N135   N     0.04837   0.44994   0.91987   0.00000  Uiso   1.00
N136   N     0.40060   0.28169   0.80561   0.00000  Uiso   1.00
N137   N     0.66001   0.39023   0.98555   0.00000  Uiso   1.00
N138   N     0.96638   0.38642   0.79455   0.00000  Uiso   1.00
C139   C     0.67602   0.88459   0.44633   0.00000  Uiso   1.00
C140   C     0.73173   0.84763   0.57148   0.00000  Uiso   1.00
C141   C     0.85388   0.84435   0.75124   0.00000  Uiso   1.00
C142   C     0.88667   0.80802   0.84264   0.00000  Uiso   1.00
C143   C     0.98630   0.75548   0.04999   0.00000  Uiso   1.00
C144   C     0.56923   0.90164   0.37191   0.00000  Uiso   1.00
C145   C     0.55475   0.94377   0.38386   0.00000  Uiso   1.00
C146   C     0.45072   0.95291   0.30724   0.00000  Uiso   1.00
C147   C     0.29802   0.98422   0.20464   0.00000  Uiso   1.00
C148   C     0.61813   0.86430   0.28777   0.00000  Uiso   1.00
C149   C     0.64474   0.87505   0.22894   0.00000  Uiso   1.00
C150   C     0.58186   0.85276   0.08144   0.00000  Uiso   1.00
C151   C     0.50509   0.82611   0.84821   0.00000  Uiso   1.00
C152   C     0.51702   0.82591   0.28898   0.00000  Uiso   1.00
C153   C     0.64537   0.81576   0.48601   0.00000  Uiso   1.00
C154   C     0.67797   0.77942   0.57716   0.00000  Uiso   1.00
C155   C     0.80015   0.77609   0.75702   0.00000  Uiso   1.00
C156   C     0.48287   0.86976   0.28645   0.00000  Uiso   1.00
C157   C     0.37884   0.87884   0.20978   0.00000  Uiso   1.00
C158   C     0.36420   0.92097   0.22162   0.00000  Uiso   1.00
C159   C     0.53177   0.83243   0.20231   0.00000  Uiso   1.00
C160   C     0.46883   0.81012   0.05486   0.00000  Uiso   1.00
C161   C     0.49534   0.82083   0.99582   0.00000  Uiso   1.00
H162   H     0.74325   0.90941   0.51286   0.00000  Uiso   1.00
H163   H     0.92069   0.86902   0.81733   0.00000  Uiso   1.00
H164   H     0.62159   0.96843   0.44999   0.00000  Uiso   1.00
H165   H     0.71157   0.89972   0.29510   0.00000  Uiso   1.00
H166   H     0.07932   0.81020   0.11722   0.00000  Uiso   1.00
H167   H     0.44863   0.01980   0.34261   0.00000  Uiso   1.00
H168   H     0.63837   0.87491   0.01600   0.00000  Uiso   1.00
H169   H     0.44978   0.80109   0.22244   0.00000  Uiso   1.00
H170   H     0.61112   0.75476   0.51098   0.00000  Uiso   1.00
H171   H     0.31202   0.85417   0.14365   0.00000  Uiso   1.00
H172   H     0.40200   0.78546   0.98876   0.00000  Uiso   1.00
H173   H     0.82806   0.71746   0.86859   0.00000  Uiso   1.00
H174   H     0.19737   0.92707   0.09397   0.00000  Uiso   1.00
H175   H     0.38711   0.78217   0.76736   0.00000  Uiso   1.00
O176   O     0.06511   0.73531   0.18797   0.00000  Uiso   1.00
O177   O     0.23766   0.01031   0.17168   0.00000  Uiso   1.00
O178   O     0.48661   0.82021   0.74318   0.00000  Uiso   1.00
N179   N     0.99805   0.79473   0.01910   0.00000  Uiso   1.00
N180   N     0.40840   0.99069   0.29491   0.00000  Uiso   1.00
N181   N     0.58577   0.85524   0.98952   0.00000  Uiso   1.00
N182   N     0.86285   0.74483   0.88531   0.00000  Uiso   1.00
N183   N     0.27320   0.94079   0.16112   0.00000  Uiso   1.00
N184   N     0.45057   0.80534   0.85573   0.00000  Uiso   1.00
C185   C     0.09827   0.07812   0.83164   0.00000  Uiso   1.00
C186   C     0.18415   0.11477   0.96617   0.00000  Uiso   1.00
C187   C     0.30204   0.11021   0.14910   0.00000  Uiso   1.00
C188   C     0.36577   0.14770   0.24928   0.00000  Uiso   1.00
C189   C     0.50708   0.19844   0.47037   0.00000  Uiso   1.00
C190   C     0.98005   0.08486   0.74018   0.00000  Uiso   1.00
C191   C     0.92632   0.05514   0.73308   0.00000  Uiso   1.00
C192   C     0.81823   0.06746   0.64300   0.00000  Uiso   1.00
C193   C     0.64261   0.07175   0.51311   0.00000  Uiso   1.00
C194   C     0.06451   0.08591   0.68757   0.00000  Uiso   1.00
C195   C     0.08175   0.05707   0.63619   0.00000  Uiso   1.00
C196   C     0.04474   0.07027   0.50177   0.00000  Uiso   1.00
C197   C     0.00026   0.07619   0.29020   0.00000  Uiso   1.00
C198   C     0.00184   0.15281   0.68426   0.00000  Uiso   1.00
C199   C     0.13177   0.15534   0.88612   0.00000  Uiso   1.00
C200   C     0.19535   0.19285   0.98604   0.00000  Uiso   1.00
C201   C     0.31331   0.18834   0.16909   0.00000  Uiso   1.00
C202   C     0.92767   0.12543   0.66013   0.00000  Uiso   1.00
C203   C     0.81963   0.13779   0.57002   0.00000  Uiso   1.00
C204   C     0.76575   0.10810   0.56280   0.00000  Uiso   1.00
C205   C     0.01213   0.12648   0.60752   0.00000  Uiso   1.00
C206   C     0.97507   0.13972   0.47314   0.00000  Uiso   1.00
C207   C     0.99227   0.11091   0.42157   0.00000  Uiso   1.00
H208   H     0.13904   0.04653   0.89396   0.00000  Uiso   1.00
H209   H     0.34253   0.07880   0.21101   0.00000  Uiso   1.00
H210   H     0.96687   0.02375   0.79503   0.00000  Uiso   1.00
H211   H     0.12229   0.02568   0.69817   0.00000  Uiso   1.00
H212   H     0.54503   0.13248   0.52722   0.00000  Uiso   1.00
H213   H     0.75289   0.01638   0.65006   0.00000  Uiso   1.00
H214   H     0.08063   0.02046   0.44580   0.00000  Uiso   1.00
H215   H     0.96105   0.18440   0.62193   0.00000  Uiso   1.00
H216   H     0.15479   0.22424   0.92405   0.00000  Uiso   1.00
H217   H     0.77912   0.16919   0.50808   0.00000  Uiso   1.00
H218   H     0.93455   0.17112   0.41122   0.00000  Uiso   1.00
H219   H     0.39265   0.25052   0.29432   0.00000  Uiso   1.00
H220   H     0.60051   0.13443   0.41715   0.00000  Uiso   1.00
H221   H     0.92825   0.13850   0.21290   0.00000  Uiso   1.00
O222   O     0.59948   0.21522   0.61443   0.00000  Uiso   1.00
O223   O     0.56022   0.06291   0.46361   0.00000  Uiso   1.00
O224   O     0.99021   0.06825   0.19563   0.00000  Uiso   1.00
N225   N     0.48259   0.15479   0.43094   0.00000  Uiso   1.00
N226   N     0.74200   0.04625   0.61087   0.00000  Uiso   1.00
N227   N     0.04837   0.05006   0.41987   0.00000  Uiso   1.00
N228   N     0.40060   0.21831   0.30561   0.00000  Uiso   1.00
N229   N     0.66001   0.10977   0.48555   0.00000  Uiso   1.00
N230   N     0.96638   0.11358   0.29455   0.00000  Uiso   1.00
C231   C     0.67602   0.61541   0.94633   0.00000  Uiso   1.00
C232   C     0.73173   0.65237   0.07148   0.00000  Uiso   1.00
C233   C     0.85388   0.65565   0.25124   0.00000  Uiso   1.00
C234   C     0.88667   0.69198   0.34264   0.00000  Uiso   1.00
C235   C     0.98630   0.74452   0.54999   0.00000  Uiso   1.00
C236   C     0.56923   0.59836   0.87191   0.00000  Uiso   1.00
C237   C     0.55475   0.55623   0.88386   0.00000  Uiso   1.00
C238   C     0.45072   0.54709   0.80724   0.00000  Uiso   1.00
C239   C     0.29802   0.51578   0.70464   0.00000  Uiso   1.00
C240   C     0.61813   0.63570   0.78777   0.00000  Uiso   1.00
C241   C     0.64474   0.62495   0.72894   0.00000  Uiso   1.00
C242   C     0.58186   0.64724   0.58144   0.00000  Uiso   1.00
C243   C     0.50509   0.67389   0.34821   0.00000  Uiso   1.00
C244   C     0.51702   0.67409   0.78898   0.00000  Uiso   1.00
C245   C     0.64537   0.68424   0.98601   0.00000  Uiso   1.00
C246   C     0.67797   0.72058   0.07716   0.00000  Uiso   1.00
C247   C     0.80015   0.72391   0.25702   0.00000  Uiso   1.00
C248   C     0.48287   0.63024   0.78645   0.00000  Uiso   1.00
C249   C     0.37884   0.62116   0.70978   0.00000  Uiso   1.00
C250   C     0.36420   0.57903   0.72162   0.00000  Uiso   1.00
C251   C     0.53177   0.66757   0.70231   0.00000  Uiso   1.00
C252   C     0.46883   0.68988   0.55486   0.00000  Uiso   1.00
C253   C     0.49534   0.67917   0.49582   0.00000  Uiso   1.00
H254   H     0.74325   0.59059   0.01286   0.00000  Uiso   1.00
H255   H     0.92069   0.63098   0.31733   0.00000  Uiso   1.00
H256   H     0.62159   0.53157   0.94999   0.00000  Uiso   1.00
H257   H     0.71157   0.60028   0.79510   0.00000  Uiso   1.00
H258   H     0.07932   0.68980   0.61722   0.00000  Uiso   1.00
H259   H     0.44863   0.48020   0.84261   0.00000  Uiso   1.00
H260   H     0.63837   0.62509   0.51600   0.00000  Uiso   1.00
H261   H     0.44978   0.69891   0.72244   0.00000  Uiso   1.00
H262   H     0.61112   0.74524   0.01098   0.00000  Uiso   1.00
H263   H     0.31202   0.64583   0.64365   0.00000  Uiso   1.00
H264   H     0.40200   0.71454   0.48876   0.00000  Uiso   1.00
H265   H     0.82806   0.78254   0.36859   0.00000  Uiso   1.00
H266   H     0.19737   0.57293   0.59397   0.00000  Uiso   1.00
H267   H     0.38711   0.71783   0.26736   0.00000  Uiso   1.00
O268   O     0.06511   0.76469   0.68797   0.00000  Uiso   1.00
O269   O     0.23766   0.48969   0.67168   0.00000  Uiso   1.00
O270   O     0.48661   0.67979   0.24318   0.00000  Uiso   1.00
N271   N     0.99805   0.70527   0.51910   0.00000  Uiso   1.00
N272   N     0.40840   0.50931   0.79491   0.00000  Uiso   1.00
N273   N     0.58577   0.64476   0.48952   0.00000  Uiso   1.00
N274   N     0.86285   0.75517   0.38531   0.00000  Uiso   1.00
N275   N     0.27320   0.55921   0.66112   0.00000  Uiso   1.00
N276   N     0.45057   0.69466   0.35573   0.00000  Uiso   1.00
C277   C     0.90173   0.57812   0.66836   0.00000  Uiso   1.00
C278   C     0.81585   0.61477   0.53383   0.00000  Uiso   1.00
C279   C     0.69796   0.61021   0.35090   0.00000  Uiso   1.00
C280   C     0.63423   0.64770   0.25072   0.00000  Uiso   1.00
C281   C     0.49292   0.69844   0.02963   0.00000  Uiso   1.00
C282   C     0.01995   0.58486   0.75982   0.00000  Uiso   1.00
C283   C     0.07368   0.55514   0.76692   0.00000  Uiso   1.00
C284   C     0.18177   0.56746   0.85700   0.00000  Uiso   1.00
C285   C     0.35739   0.57175   0.98689   0.00000  Uiso   1.00
C286   C     0.93549   0.58591   0.81243   0.00000  Uiso   1.00
C287   C     0.91825   0.55707   0.86381   0.00000  Uiso   1.00
C288   C     0.95526   0.57027   0.99823   0.00000  Uiso   1.00
C289   C     0.99974   0.57619   0.20980   0.00000  Uiso   1.00
C290   C     0.99816   0.65281   0.81574   0.00000  Uiso   1.00
C291   C     0.86823   0.65534   0.61388   0.00000  Uiso   1.00
C292   C     0.80465   0.69285   0.51396   0.00000  Uiso   1.00
C293   C     0.68669   0.68834   0.33091   0.00000  Uiso   1.00
C294   C     0.07233   0.62543   0.83987   0.00000  Uiso   1.00
C295   C     0.18037   0.63779   0.92998   0.00000  Uiso   1.00
C296   C     0.23425   0.60810   0.93720   0.00000  Uiso   1.00
C297   C     0.98787   0.62648   0.89248   0.00000  Uiso   1.00
C298   C     0.02493   0.63972   0.02686   0.00000  Uiso   1.00
C299   C     0.00773   0.61091   0.07843   0.00000  Uiso   1.00
H300   H     0.86096   0.54653   0.60604   0.00000  Uiso   1.00
H301   H     0.65747   0.57880   0.28899   0.00000  Uiso   1.00
H302   H     0.03313   0.52375   0.70497   0.00000  Uiso   1.00
H303   H     0.87771   0.52568   0.80183   0.00000  Uiso   1.00
H304   H     0.45497   0.63248   0.97278   0.00000  Uiso   1.00
H305   H     0.24711   0.51638   0.84994   0.00000  Uiso   1.00
H306   H     0.91937   0.52046   0.05420   0.00000  Uiso   1.00
H307   H     0.03895   0.68440   0.87807   0.00000  Uiso   1.00
H308   H     0.84521   0.72424   0.57595   0.00000  Uiso   1.00
H309   H     0.22088   0.66919   0.99192   0.00000  Uiso   1.00
H310   H     0.06545   0.67112   0.08878   0.00000  Uiso   1.00
H311   H     0.60735   0.75052   0.20568   0.00000  Uiso   1.00
H312   H     0.39949   0.63443   0.08285   0.00000  Uiso   1.00
H313   H     0.07175   0.63850   0.28710   0.00000  Uiso   1.00
O314   O     0.40052   0.71522   0.88557   0.00000  Uiso   1.00
O315   O     0.43978   0.56291   0.03639   0.00000  Uiso   1.00
O316   O     0.00979   0.56825   0.30437   0.00000  Uiso   1.00
N317   N     0.51741   0.65479   0.06906   0.00000  Uiso   1.00
N318   N     0.25800   0.54625   0.88913   0.00000  Uiso   1.00
N319   N     0.95163   0.55006   0.08013   0.00000  Uiso   1.00
N320   N     0.59940   0.71831   0.19439   0.00000  Uiso   1.00
N321   N     0.33999   0.60977   0.01445   0.00000  Uiso   1.00
N322   N     0.03362   0.61358   0.20545   0.00000  Uiso   1.00
C323   C     0.32398   0.11541   0.55367   0.00000  Uiso   1.00
C324   C     0.26827   0.15237   0.42852   0.00000  Uiso   1.00
C325   C     0.14612   0.15565   0.24876   0.00000  Uiso   1.00
C326   C     0.11333   0.19198   0.15736   0.00000  Uiso   1.00
C327   C     0.01370   0.24452   0.95001   0.00000  Uiso   1.00
C328   C     0.43077   0.09836   0.62809   0.00000  Uiso   1.00
C329   C     0.44525   0.05623   0.61614   0.00000  Uiso   1.00
C330   C     0.54928   0.04709   0.69276   0.00000  Uiso   1.00
C331   C     0.70198   0.01578   0.79536   0.00000  Uiso   1.00
C332   C     0.38187   0.13570   0.71223   0.00000  Uiso   1.00
C333   C     0.35526   0.12495   0.77106   0.00000  Uiso   1.00
C334   C     0.41814   0.14724   0.91856   0.00000  Uiso   1.00
C335   C     0.49491   0.17389   0.15179   0.00000  Uiso   1.00
C336   C     0.48298   0.17409   0.71102   0.00000  Uiso   1.00
C337   C     0.35463   0.18424   0.51399   0.00000  Uiso   1.00
C338   C     0.32203   0.22058   0.42284   0.00000  Uiso   1.00
C339   C     0.19985   0.22391   0.24298   0.00000  Uiso   1.00
C340   C     0.51713   0.13024   0.71355   0.00000  Uiso   1.00
C341   C     0.62116   0.12116   0.79022   0.00000  Uiso   1.00
C342   C     0.63580   0.07903   0.77838   0.00000  Uiso   1.00
C343   C     0.46823   0.16757   0.79769   0.00000  Uiso   1.00
C344   C     0.53117   0.18988   0.94514   0.00000  Uiso   1.00
C345   C     0.50466   0.17917   0.00418   0.00000  Uiso   1.00
H346   H     0.25675   0.09059   0.48714   0.00000  Uiso   1.00
H347   H     0.07931   0.13098   0.18267   0.00000  Uiso   1.00
H348   H     0.37841   0.03157   0.55001   0.00000  Uiso   1.00
H349   H     0.28843   0.10028   0.70490   0.00000  Uiso   1.00
H350   H     0.92068   0.18980   0.88278   0.00000  Uiso   1.00
H351   H     0.55137   0.98020   0.65739   0.00000  Uiso   1.00
H352   H     0.36163   0.12509   0.98400   0.00000  Uiso   1.00
H353   H     0.55022   0.19891   0.77756   0.00000  Uiso   1.00
H354   H     0.38888   0.24524   0.48902   0.00000  Uiso   1.00
H355   H     0.68798   0.14583   0.85635   0.00000  Uiso   1.00
H356   H     0.59800   0.21454   0.01124   0.00000  Uiso   1.00
H357   H     0.17194   0.28254   0.13141   0.00000  Uiso   1.00
H358   H     0.80263   0.07293   0.90603   0.00000  Uiso   1.00
H359   H     0.61289   0.21783   0.23264   0.00000  Uiso   1.00
O360   O     0.93489   0.26469   0.81203   0.00000  Uiso   1.00
O361   O     0.76234   0.98969   0.82832   0.00000  Uiso   1.00
O362   O     0.51339   0.17979   0.25682   0.00000  Uiso   1.00
N363   N     0.00195   0.20527   0.98090   0.00000  Uiso   1.00
N364   N     0.59160   0.00931   0.70509   0.00000  Uiso   1.00
N365   N     0.41423   0.14476   0.01048   0.00000  Uiso   1.00
N366   N     0.13715   0.25517   0.11469   0.00000  Uiso   1.00
N367   N     0.72680   0.05921   0.83888   0.00000  Uiso   1.00
N368   N     0.54943   0.19466   0.14427   0.00000  Uiso   1.00
