data_job_00944
_audit_creation_date              2018-12-19
_audit_creation_method            'Materials Studio'
_symmetry_space_group_name_H-M    'P1'
_symmetry_Int_Tables_number       1
_symmetry_cell_setting            triclinic
loop_
_symmetry_equiv_pos_as_xyz
  x,y,z
_cell_length_a                    9.3881
_cell_length_b                    12.3663
_cell_length_c                    14.3896
_cell_angle_alpha                 74.8974
_cell_angle_beta                  82.1535
_cell_angle_gamma                 101.4382
loop_
_atom_site_label
_atom_site_type_symbol
_atom_site_fract_x
_atom_site_fract_y
_atom_site_fract_z
_atom_site_U_iso_or_equiv
_atom_site_adp_type
_atom_site_occupancy
C1     C     0.66057   0.74178   0.10120   0.00000  Uiso   1.00
C2     C     0.82602   0.74714   0.08840   0.00000  Uiso   1.00
C3     C     0.92963   0.79760   0.00128   0.00000  Uiso   1.00
C4     C     0.07556   0.79347   0.00482   0.00000  Uiso   1.00
C5     C     0.32626   0.80976   0.97163   0.00000  Uiso   1.00
C6     C     0.58131   0.61419   0.14398   0.00000  Uiso   1.00
C7     C     0.47914   0.55288   0.10358   0.00000  Uiso   1.00
C8     C     0.41907   0.43684   0.15392   0.00000  Uiso   1.00
C9     C     0.28976   0.24674   0.20704   0.00000  Uiso   1.00
C10    C     0.62575   0.79750   0.18169   0.00000  Uiso   1.00
C11    C     0.56091   0.89030   0.17302   0.00000  Uiso   1.00
C12    C     0.53821   0.92857   0.25512   0.00000  Uiso   1.00
C13    C     0.47790   0.02309   0.36681   0.00000  Uiso   1.00
C14    C     0.73552   0.64473   0.26243   0.00000  Uiso   1.00
C15    C     0.86672   0.69442   0.17598   0.00000  Uiso   1.00
C16    C     0.01255   0.69022   0.17966   0.00000  Uiso   1.00
C17    C     0.11635   0.74067   0.09255   0.00000  Uiso   1.00
C18    C     0.62201   0.56147   0.23155   0.00000  Uiso   1.00
C19    C     0.56206   0.44550   0.28196   0.00000  Uiso   1.00
C20    C     0.45985   0.38402   0.24165   0.00000  Uiso   1.00
C21    C     0.66645   0.74479   0.26927   0.00000  Uiso   1.00
C22    C     0.64384   0.78292   0.35140   0.00000  Uiso   1.00
C23    C     0.57899   0.87576   0.34286   0.00000  Uiso   1.00
H24    H     0.62887   0.78282   0.03302   0.00000  Uiso   1.00
H25    H     0.89808   0.83838   0.93352   0.00000  Uiso   1.00
H26    H     0.44766   0.59370   0.03581   0.00000  Uiso   1.00
H27    H     0.52942   0.93107   0.10524   0.00000  Uiso   1.00
H28    H     0.21448   0.87669   0.86181   0.00000  Uiso   1.00
H29    H     0.26471   0.36078   0.07753   0.00000  Uiso   1.00
H30    H     0.43712   0.07219   0.22393   0.00000  Uiso   1.00
H31    H     0.76721   0.60368   0.33061   0.00000  Uiso   1.00
H32    H     0.04401   0.64942   0.24744   0.00000  Uiso   1.00
H33    H     0.59359   0.40474   0.34973   0.00000  Uiso   1.00
H34    H     0.67535   0.74211   0.41916   0.00000  Uiso   1.00
H35    H     0.33293   0.72332   0.11661   0.00000  Uiso   1.00
H36    H     0.38314   0.20741   0.33232   0.00000  Uiso   1.00
H37    H     0.55556   0.91882   0.47872   0.00000  Uiso   1.00
O38    O     0.45329   0.83329   0.92912   0.00000  Uiso   1.00
O39    O     0.20720   0.15644   0.21213   0.00000  Uiso   1.00
O40    O     0.43341   0.08980   0.40421   0.00000  Uiso   1.00
N41    N     0.20438   0.83434   0.93320   0.00000  Uiso   1.00
N42    N     0.31641   0.35199   0.13487   0.00000  Uiso   1.00
N43    N     0.47756   0.01708   0.27175   0.00000  Uiso   1.00
N44    N     0.26811   0.75181   0.07030   0.00000  Uiso   1.00
N45    N     0.38014   0.26946   0.27197   0.00000  Uiso   1.00
N46    N     0.54130   0.93455   0.40885   0.00000  Uiso   1.00
C47    C     0.33943   0.25822   0.89880   0.00000  Uiso   1.00
C48    C     0.17398   0.25286   0.91160   0.00000  Uiso   1.00
C49    C     0.07037   0.20240   0.99872   0.00000  Uiso   1.00
C50    C     0.92444   0.20653   0.99518   0.00000  Uiso   1.00
C51    C     0.67374   0.19024   0.02837   0.00000  Uiso   1.00
C52    C     0.41869   0.38581   0.85602   0.00000  Uiso   1.00
C53    C     0.52086   0.44712   0.89642   0.00000  Uiso   1.00
C54    C     0.58093   0.56316   0.84608   0.00000  Uiso   1.00
C55    C     0.71024   0.75326   0.79296   0.00000  Uiso   1.00
C56    C     0.37425   0.20250   0.81831   0.00000  Uiso   1.00
C57    C     0.43909   0.10970   0.82698   0.00000  Uiso   1.00
C58    C     0.46179   0.07143   0.74488   0.00000  Uiso   1.00
C59    C     0.52210   0.97691   0.63319   0.00000  Uiso   1.00
C60    C     0.26448   0.35527   0.73757   0.00000  Uiso   1.00
C61    C     0.13328   0.30558   0.82402   0.00000  Uiso   1.00
C62    C     0.98745   0.30978   0.82034   0.00000  Uiso   1.00
C63    C     0.88365   0.25933   0.90745   0.00000  Uiso   1.00
C64    C     0.37799   0.43853   0.76845   0.00000  Uiso   1.00
C65    C     0.43794   0.55450   0.71804   0.00000  Uiso   1.00
C66    C     0.54015   0.61598   0.75835   0.00000  Uiso   1.00
C67    C     0.33355   0.25521   0.73073   0.00000  Uiso   1.00
C68    C     0.35616   0.21708   0.64860   0.00000  Uiso   1.00
C69    C     0.42101   0.12424   0.65714   0.00000  Uiso   1.00
H70    H     0.37113   0.21718   0.96698   0.00000  Uiso   1.00
H71    H     0.10192   0.16162   0.06648   0.00000  Uiso   1.00
H72    H     0.55234   0.40630   0.96419   0.00000  Uiso   1.00
H73    H     0.47058   0.06893   0.89476   0.00000  Uiso   1.00
H74    H     0.78552   0.12331   0.13819   0.00000  Uiso   1.00
H75    H     0.73529   0.63922   0.92247   0.00000  Uiso   1.00
H76    H     0.56288   0.92781   0.77607   0.00000  Uiso   1.00
H77    H     0.23279   0.39632   0.66939   0.00000  Uiso   1.00
H78    H     0.95599   0.35058   0.75256   0.00000  Uiso   1.00
H79    H     0.40641   0.59526   0.65027   0.00000  Uiso   1.00
H80    H     0.32465   0.25789   0.58084   0.00000  Uiso   1.00
H81    H     0.66707   0.27668   0.88339   0.00000  Uiso   1.00
H82    H     0.61686   0.79259   0.66768   0.00000  Uiso   1.00
H83    H     0.44444   0.08118   0.52128   0.00000  Uiso   1.00
O84    O     0.54671   0.16671   0.07088   0.00000  Uiso   1.00
O85    O     0.79280   0.84356   0.78787   0.00000  Uiso   1.00
O86    O     0.56659   0.91020   0.59579   0.00000  Uiso   1.00
N87    N     0.79562   0.16566   0.06680   0.00000  Uiso   1.00
N88    N     0.68359   0.64801   0.86513   0.00000  Uiso   1.00
N89    N     0.52244   0.98292   0.72825   0.00000  Uiso   1.00
N90    N     0.73189   0.24819   0.92970   0.00000  Uiso   1.00
N91    N     0.61986   0.73054   0.72803   0.00000  Uiso   1.00
N92    N     0.45870   0.06545   0.59115   0.00000  Uiso   1.00
