data_job_06703
_audit_creation_date              2018-12-19
_audit_creation_method            'Materials Studio'
_symmetry_space_group_name_H-M    'P1'
_symmetry_Int_Tables_number       1
_symmetry_cell_setting            triclinic
loop_
_symmetry_equiv_pos_as_xyz
  x,y,z
_cell_length_a                    20.8490
_cell_length_b                    21.1496
_cell_length_c                    24.8862
_cell_angle_alpha                 98.0055
_cell_angle_beta                  77.7215
_cell_angle_gamma                 111.6952
loop_
_atom_site_label
_atom_site_type_symbol
_atom_site_fract_x
_atom_site_fract_y
_atom_site_fract_z
_atom_site_U_iso_or_equiv
_atom_site_adp_type
_atom_site_occupancy
C1     C     0.42897   0.26602   0.10303   0.00000  Uiso   1.00
C2     C     0.35180   0.25470   0.10560   0.00000  Uiso   1.00
C3     C     0.30578   0.20248   0.07724   0.00000  Uiso   1.00
C4     C     0.23728   0.20096   0.08512   0.00000  Uiso   1.00
C5     C     0.12077   0.17596   0.08376   0.00000  Uiso   1.00
C6     C     0.46973   0.33837   0.08529   0.00000  Uiso   1.00
C7     C     0.52286   0.35648   0.03986   0.00000  Uiso   1.00
C8     C     0.55364   0.42540   0.03065   0.00000  Uiso   1.00
C9     C     0.62024   0.53029   0.99778   0.00000  Uiso   1.00
C10    C     0.43810   0.26679   0.16233   0.00000  Uiso   1.00
C11    C     0.46466   0.22475   0.18169   0.00000  Uiso   1.00
C12    C     0.46882   0.23342   0.23734   0.00000  Uiso   1.00
C13    C     0.48631   0.22718   0.32410   0.00000  Uiso   1.00
C14    C     0.38917   0.35619   0.16744   0.00000  Uiso   1.00
C15    C     0.33019   0.30368   0.14058   0.00000  Uiso   1.00
C16    C     0.26174   0.30224   0.14850   0.00000  Uiso   1.00
C17    C     0.21563   0.25003   0.12017   0.00000  Uiso   1.00
C18    C     0.44811   0.38734   0.12027   0.00000  Uiso   1.00
C19    C     0.47883   0.45625   0.11112   0.00000  Uiso   1.00
C20    C     0.53199   0.47447   0.06569   0.00000  Uiso   1.00
C21    C     0.41648   0.31577   0.19732   0.00000  Uiso   1.00
C22    C     0.42061   0.32451   0.25295   0.00000  Uiso   1.00
C23    C     0.44717   0.28248   0.27239   0.00000  Uiso   1.00
H24    H     0.44580   0.22789   0.07579   0.00000  Uiso   1.00
H25    H     0.32253   0.16459   0.05017   0.00000  Uiso   1.00
H26    H     0.53958   0.31857   0.01280   0.00000  Uiso   1.00
H27    H     0.48138   0.18685   0.15460   0.00000  Uiso   1.00
H28    H     0.17634   0.11602   0.03717   0.00000  Uiso   1.00
H29    H     0.63402   0.44070   0.95839   0.00000  Uiso   1.00
H30    H     0.51129   0.16295   0.25741   0.00000  Uiso   1.00
H31    H     0.37234   0.39433   0.19467   0.00000  Uiso   1.00
H32    H     0.24503   0.34015   0.17558   0.00000  Uiso   1.00
H33    H     0.46209   0.49414   0.13820   0.00000  Uiso   1.00
H34    H     0.40388   0.36242   0.28001   0.00000  Uiso   1.00
H35    H     0.11343   0.25852   0.13896   0.00000  Uiso   1.00
H36    H     0.57112   0.58320   0.06017   0.00000  Uiso   1.00
H37    H     0.44839   0.30544   0.35920   0.00000  Uiso   1.00
O38    O     0.06247   0.14864   0.07334   0.00000  Uiso   1.00
O39    O     0.66294   0.57461   0.96999   0.00000  Uiso   1.00
O40    O     0.50192   0.21020   0.36230   0.00000  Uiso   1.00
N41    N     0.17900   0.15698   0.06376   0.00000  Uiso   1.00
N42    N     0.60690   0.46054   0.99009   0.00000  Uiso   1.00
N43    N     0.49217   0.20088   0.26965   0.00000  Uiso   1.00
N44    N     0.14515   0.23366   0.11853   0.00000  Uiso   1.00
N45    N     0.57305   0.53721   0.04486   0.00000  Uiso   1.00
N46    N     0.45832   0.27755   0.32442   0.00000  Uiso   1.00
C47    C     0.90500   0.37276   0.12106   0.00000  Uiso   1.00
C48    C     0.88655   0.29814   0.13132   0.00000  Uiso   1.00
C49    C     0.93092   0.26096   0.11549   0.00000  Uiso   1.00
C50    C     0.90415   0.19335   0.12870   0.00000  Uiso   1.00
C51    C     0.88593   0.08193   0.14034   0.00000  Uiso   1.00
C52    C     0.85021   0.37427   0.08975   0.00000  Uiso   1.00
C53    C     0.86404   0.40112   0.03898   0.00000  Uiso   1.00
C54    C     0.80668   0.39759   0.01720   0.00000  Uiso   1.00
C55    C     0.73206   0.40442   0.96433   0.00000  Uiso   1.00
C56    C     0.89159   0.40888   0.17748   0.00000  Uiso   1.00
C57    C     0.94020   0.46483   0.20046   0.00000  Uiso   1.00
C58    C     0.91767   0.49046   0.25254   0.00000  Uiso   1.00
C59    C     0.90729   0.55101   0.33587   0.00000  Uiso   1.00
C60    C     0.77854   0.31878   0.17268   0.00000  Uiso   1.00
C61    C     0.81786   0.26882   0.15936   0.00000  Uiso   1.00
C62    C     0.79101   0.20124   0.17260   0.00000  Uiso   1.00
C63    C     0.83534   0.16397   0.15679   0.00000  Uiso   1.00
C64    C     0.78153   0.34495   0.11779   0.00000  Uiso   1.00
C65    C     0.72413   0.34139   0.09609   0.00000  Uiso   1.00
C66    C     0.73787   0.36822   0.04529   0.00000  Uiso   1.00
C67    C     0.82290   0.37956   0.20552   0.00000  Uiso   1.00
C68    C     0.80029   0.40510   0.25757   0.00000  Uiso   1.00
C69    C     0.84886   0.46108   0.28063   0.00000  Uiso   1.00
H70    H     0.95848   0.39559   0.09923   0.00000  Uiso   1.00
H71    H     0.98407   0.28367   0.09378   0.00000  Uiso   1.00
H72    H     0.91720   0.42381   0.01729   0.00000  Uiso   1.00
H73    H     0.99335   0.48751   0.17875   0.00000  Uiso   1.00
H74    H     0.98215   0.14665   0.10010   0.00000  Uiso   1.00
H75    H     0.84116   0.44216   0.93881   0.00000  Uiso   1.00
H76    H     0.00173   0.57649   0.27928   0.00000  Uiso   1.00
H77    H     0.72507   0.29595   0.19451   0.00000  Uiso   1.00
H78    H     0.73785   0.17857   0.19430   0.00000  Uiso   1.00
H79    H     0.67099   0.31870   0.11780   0.00000  Uiso   1.00
H80    H     0.74713   0.38240   0.27926   0.00000  Uiso   1.00
H81    H     0.78231   0.06134   0.18168   0.00000  Uiso   1.00
H82    H     0.64132   0.35686   0.02039   0.00000  Uiso   1.00
H83    H     0.80189   0.49118   0.36086   0.00000  Uiso   1.00
O84    O     0.89485   0.02857   0.13901   0.00000  Uiso   1.00
O85    O     0.70987   0.41627   0.92742   0.00000  Uiso   1.00
O86    O     0.92054   0.59251   0.37410   0.00000  Uiso   1.00
N87    N     0.93337   0.14269   0.11934   0.00000  Uiso   1.00
N88    N     0.80155   0.41896   0.96854   0.00000  Uiso   1.00
N89    N     0.95166   0.54456   0.28684   0.00000  Uiso   1.00
N90    N     0.82583   0.09679   0.16323   0.00000  Uiso   1.00
N91    N     0.69401   0.37306   0.01244   0.00000  Uiso   1.00
N92    N     0.84413   0.49865   0.33074   0.00000  Uiso   1.00
C93    C     0.88157   0.75295   0.08578   0.00000  Uiso   1.00
C94    C     0.92585   0.81365   0.11873   0.00000  Uiso   1.00
C95    C     0.95151   0.88112   0.10533   0.00000  Uiso   1.00
C96    C     0.99097   0.92914   0.14077   0.00000  Uiso   1.00
C97    C     0.05774   0.02625   0.18476   0.00000  Uiso   1.00
C98    C     0.92094   0.70304   0.07238   0.00000  Uiso   1.00
C99    C     0.94246   0.67750   0.02000   0.00000  Uiso   1.00
C100   C     0.97778   0.63240   0.01642   0.00000  Uiso   1.00
C101   C     0.03687   0.55775   0.98844   0.00000  Uiso   1.00
C102   C     0.81468   0.71838   0.12569   0.00000  Uiso   1.00
C103   C     0.74685   0.70572   0.11814   0.00000  Uiso   1.00
C104   C     0.69270   0.67352   0.15945   0.00000  Uiso   1.00
C105   C     0.58682   0.62269   0.21425   0.00000  Uiso   1.00
C106   C     0.90602   0.71824   0.17255   0.00000  Uiso   1.00
C107   C     0.93914   0.79480   0.16586   0.00000  Uiso   1.00
C108   C     0.97857   0.84273   0.20133   0.00000  Uiso   1.00
C109   C     0.00428   0.91026   0.18799   0.00000  Uiso   1.00
C110   C     0.93422   0.68419   0.11950   0.00000  Uiso   1.00
C111   C     0.96951   0.63911   0.11600   0.00000  Uiso   1.00
C112   C     0.99108   0.61352   0.06364   0.00000  Uiso   1.00
C113   C     0.82796   0.69953   0.17282   0.00000  Uiso   1.00
C114   C     0.77391   0.66733   0.21415   0.00000  Uiso   1.00
C115   C     0.70601   0.65464   0.20666   0.00000  Uiso   1.00
H116   H     0.87123   0.76762   0.04909   0.00000  Uiso   1.00
H117   H     0.94122   0.89568   0.06885   0.00000  Uiso   1.00
H118   H     0.93217   0.69209   0.98354   0.00000  Uiso   1.00
H119   H     0.73659   0.72031   0.08167   0.00000  Uiso   1.00
H120   H     0.02471   0.02935   0.11154   0.00000  Uiso   1.00
H121   H     0.00558   0.60005   0.93165   0.00000  Uiso   1.00
H122   H     0.59318   0.65956   0.13857   0.00000  Uiso   1.00
H123   H     0.91637   0.70357   0.20924   0.00000  Uiso   1.00
H124   H     0.98884   0.82812   0.23780   0.00000  Uiso   1.00
H125   H     0.97978   0.62453   0.15248   0.00000  Uiso   1.00
H126   H     0.78421   0.65275   0.25061   0.00000  Uiso   1.00
H127   H     0.06335   0.97452   0.24866   0.00000  Uiso   1.00
H128   H     0.04423   0.54521   0.06877   0.00000  Uiso   1.00
H129   H     0.63182   0.60473   0.27569   0.00000  Uiso   1.00
O130   O     0.09091   0.08502   0.19599   0.00000  Uiso   1.00
O131   O     0.06581   0.52179   0.95998   0.00000  Uiso   1.00
O132   O     0.52474   0.59987   0.23146   0.00000  Uiso   1.00
N133   N     0.02384   0.99935   0.13990   0.00000  Uiso   1.00
N134   N     0.00598   0.59799   0.97171   0.00000  Uiso   1.00
N135   N     0.62041   0.65361   0.16516   0.00000  Uiso   1.00
N136   N     0.04464   0.96985   0.21369   0.00000  Uiso   1.00
N137   N     0.02677   0.56849   0.04549   0.00000  Uiso   1.00
N138   N     0.64120   0.62411   0.23894   0.00000  Uiso   1.00
C139   C     0.37611   0.81219   0.63650   0.00000  Uiso   1.00
C140   C     0.36980   0.73792   0.63578   0.00000  Uiso   1.00
C141   C     0.33301   0.68438   0.60244   0.00000  Uiso   1.00
C142   C     0.33361   0.62018   0.60796   0.00000  Uiso   1.00
C143   C     0.31835   0.50642   0.60111   0.00000  Uiso   1.00
C144   C     0.45445   0.85329   0.62518   0.00000  Uiso   1.00
C145   C     0.48883   0.89675   0.58292   0.00000  Uiso   1.00
C146   C     0.56069   0.92968   0.57952   0.00000  Uiso   1.00
C147   C     0.67684   0.99506   0.55623   0.00000  Uiso   1.00
C148   C     0.34965   0.83249   0.69590   0.00000  Uiso   1.00
C149   C     0.29592   0.85848   0.71312   0.00000  Uiso   1.00
C150   C     0.27955   0.87391   0.76926   0.00000  Uiso   1.00
C151   C     0.23298   0.90700   0.85578   0.00000  Uiso   1.00
C152   C     0.44259   0.79339   0.70560   0.00000  Uiso   1.00
C153   C     0.40591   0.72771   0.67331   0.00000  Uiso   1.00
C154   C     0.40656   0.66358   0.67889   0.00000  Uiso   1.00
C155   C     0.36978   0.60995   0.64556   0.00000  Uiso   1.00
C156   C     0.49056   0.84308   0.66271   0.00000  Uiso   1.00
C157   C     0.56238   0.87595   0.65937   0.00000  Uiso   1.00
C158   C     0.59687   0.91945   0.61712   0.00000  Uiso   1.00
C159   C     0.38575   0.82228   0.73344   0.00000  Uiso   1.00
C160   C     0.36947   0.83768   0.78957   0.00000  Uiso   1.00
C161   C     0.31573   0.86369   0.80686   0.00000  Uiso   1.00
H162   H     0.34800   0.82014   0.60728   0.00000  Uiso   1.00
H163   H     0.30508   0.69230   0.57339   0.00000  Uiso   1.00
H164   H     0.46088   0.90465   0.55389   0.00000  Uiso   1.00
H165   H     0.26799   0.86638   0.68406   0.00000  Uiso   1.00
H166   H     0.27344   0.54607   0.55236   0.00000  Uiso   1.00
H167   H     0.60193   0.99383   0.51124   0.00000  Uiso   1.00
H168   H     0.19520   0.91313   0.78573   0.00000  Uiso   1.00
H169   H     0.47070   0.78545   0.73482   0.00000  Uiso   1.00
H170   H     0.43451   0.65569   0.70794   0.00000  Uiso   1.00
H171   H     0.59031   0.86804   0.68843   0.00000  Uiso   1.00
H172   H     0.39742   0.82977   0.81860   0.00000  Uiso   1.00
H173   H     0.37849   0.51636   0.66156   0.00000  Uiso   1.00
H174   H     0.70699   0.96412   0.62043   0.00000  Uiso   1.00
H175   H     0.30025   0.88342   0.89493   0.00000  Uiso   1.00
O176   O     0.29996   0.44649   0.58696   0.00000  Uiso   1.00
O177   O     0.73093   0.03394   0.53301   0.00000  Uiso   1.00
O178   O     0.19731   0.92806   0.89314   0.00000  Uiso   1.00
N179   N     0.30312   0.55688   0.58176   0.00000  Uiso   1.00
N180   N     0.61024   0.97550   0.54330   0.00000  Uiso   1.00
N181   N     0.23000   0.90007   0.79993   0.00000  Uiso   1.00
N182   N     0.35964   0.54089   0.64052   0.00000  Uiso   1.00
N183   N     0.66677   0.95951   0.60206   0.00000  Uiso   1.00
N184   N     0.28652   0.88408   0.85869   0.00000  Uiso   1.00
C185   C     0.87788   0.79174   0.60025   0.00000  Uiso   1.00
C186   C     0.81125   0.76672   0.64298   0.00000  Uiso   1.00
C187   C     0.74624   0.76825   0.63963   0.00000  Uiso   1.00
C188   C     0.69182   0.74294   0.68296   0.00000  Uiso   1.00
C189   C     0.58679   0.70801   0.74244   0.00000  Uiso   1.00
C190   C     0.90277   0.73132   0.58358   0.00000  Uiso   1.00
C191   C     0.91473   0.70309   0.53029   0.00000  Uiso   1.00
C192   C     0.93737   0.64799   0.52361   0.00000  Uiso   1.00
C193   C     0.97448   0.55812   0.49087   0.00000  Uiso   1.00
C194   C     0.93261   0.84451   0.63100   0.00000  Uiso   1.00
C195   C     0.96967   0.91145   0.61759   0.00000  Uiso   1.00
C196   C     0.01744   0.95164   0.65083   0.00000  Uiso   1.00
C197   C     0.10087   0.03752   0.69172   0.00000  Uiso   1.00
C198   C     0.89683   0.74408   0.68315   0.00000  Uiso   1.00
C199   C     0.82154   0.74083   0.68800   0.00000  Uiso   1.00
C200   C     0.76721   0.71553   0.73134   0.00000  Uiso   1.00
C201   C     0.70214   0.71702   0.72807   0.00000  Uiso   1.00
C202   C     0.91307   0.70543   0.62860   0.00000  Uiso   1.00
C203   C     0.93570   0.65037   0.62200   0.00000  Uiso   1.00
C204   C     0.94769   0.62206   0.56872   0.00000  Uiso   1.00
C205   C     0.94290   0.81863   0.67603   0.00000  Uiso   1.00
C206   C     0.99063   0.85872   0.70930   0.00000  Uiso   1.00
C207   C     0.02775   0.92571   0.69594   0.00000  Uiso   1.00
H208   H     0.86987   0.81188   0.56520   0.00000  Uiso   1.00
H209   H     0.73829   0.78828   0.60478   0.00000  Uiso   1.00
H210   H     0.90677   0.72313   0.49546   0.00000  Uiso   1.00
H211   H     0.96169   0.93146   0.58274   0.00000  Uiso   1.00
H212   H     0.59696   0.75067   0.66851   0.00000  Uiso   1.00
H213   H     0.95221   0.61332   0.43799   0.00000  Uiso   1.00
H214   H     0.06802   0.05262   0.62205   0.00000  Uiso   1.00
H215   H     0.90485   0.72393   0.71820   0.00000  Uiso   1.00
H216   H     0.77519   0.69550   0.76618   0.00000  Uiso   1.00
H217   H     0.94367   0.63035   0.65685   0.00000  Uiso   1.00
H218   H     0.99859   0.83868   0.74414   0.00000  Uiso   1.00
H219   H     0.62690   0.67536   0.79951   0.00000  Uiso   1.00
H220   H     0.98216   0.53802   0.56898   0.00000  Uiso   1.00
H221   H     0.09797   0.97731   0.75304   0.00000  Uiso   1.00
O222   O     0.52600   0.69588   0.76280   0.00000  Uiso   1.00
O223   O     0.99209   0.51570   0.46037   0.00000  Uiso   1.00
O224   O     0.14403   0.09204   0.70185   0.00000  Uiso   1.00
N225   N     0.62180   0.73686   0.69276   0.00000  Uiso   1.00
N226   N     0.95393   0.60844   0.47724   0.00000  Uiso   1.00
N227   N     0.06222   0.01914   0.64931   0.00000  Uiso   1.00
N228   N     0.63792   0.69634   0.76325   0.00000  Uiso   1.00
N229   N     0.97005   0.56792   0.54773   0.00000  Uiso   1.00
N230   N     0.07834   0.97862   0.71980   0.00000  Uiso   1.00
C231   C     0.49024   0.13306   0.61505   0.00000  Uiso   1.00
C232   C     0.53895   0.20744   0.61420   0.00000  Uiso   1.00
C233   C     0.60725   0.23135   0.58564   0.00000  Uiso   1.00
C234   C     0.64313   0.30121   0.59014   0.00000  Uiso   1.00
C235   C     0.72352   0.40997   0.58393   0.00000  Uiso   1.00
C236   C     0.42462   0.13045   0.59565   0.00000  Uiso   1.00
C237   C     0.39680   0.08960   0.55150   0.00000  Uiso   1.00
C238   C     0.33643   0.09465   0.54038   0.00000  Uiso   1.00
C239   C     0.23929   0.08382   0.50541   0.00000  Uiso   1.00
C240   C     0.46758   0.11720   0.67558   0.00000  Uiso   1.00
C241   C     0.47585   0.06520   0.69863   0.00000  Uiso   1.00
C242   C     0.45162   0.05907   0.75480   0.00000  Uiso   1.00
C243   C     0.42118   0.02768   0.84392   0.00000  Uiso   1.00
C244   C     0.43250   0.21462   0.67382   0.00000  Uiso   1.00
C245   C     0.50758   0.25174   0.64612   0.00000  Uiso   1.00
C246   C     0.54337   0.32159   0.65066   0.00000  Uiso   1.00
C247   C     0.61171   0.34559   0.62211   0.00000  Uiso   1.00
C248   C     0.39326   0.17474   0.62757   0.00000  Uiso   1.00
C249   C     0.33291   0.17984   0.61652   0.00000  Uiso   1.00
C250   C     0.30500   0.13903   0.57236   0.00000  Uiso   1.00
C251   C     0.43621   0.16150   0.70750   0.00000  Uiso   1.00
C252   C     0.41196   0.15544   0.76364   0.00000  Uiso   1.00
C253   C     0.42020   0.10345   0.78678   0.00000  Uiso   1.00
H254   H     0.51466   0.09857   0.59020   0.00000  Uiso   1.00
H255   H     0.63151   0.19705   0.56094   0.00000  Uiso   1.00
H256   H     0.42108   0.05532   0.52681   0.00000  Uiso   1.00
H257   H     0.50012   0.03093   0.67391   0.00000  Uiso   1.00
H258   H     0.74721   0.32577   0.54256   0.00000  Uiso   1.00
H259   H     0.30350   0.02691   0.47061   0.00000  Uiso   1.00
H260   H     0.47018   0.97547   0.78080   0.00000  Uiso   1.00
H261   H     0.40808   0.24912   0.69867   0.00000  Uiso   1.00
H262   H     0.51908   0.35586   0.67536   0.00000  Uiso   1.00
H263   H     0.30865   0.21413   0.64123   0.00000  Uiso   1.00
H264   H     0.38769   0.18973   0.78833   0.00000  Uiso   1.00
H265   H     0.65596   0.45467   0.63543   0.00000  Uiso   1.00
H266   H     0.21225   0.15580   0.56347   0.00000  Uiso   1.00
H267   H     0.37893   0.10436   0.87366   0.00000  Uiso   1.00
O268   O     0.77652   0.45772   0.57169   0.00000  Uiso   1.00
O269   O     0.19439   0.06562   0.47729   0.00000  Uiso   1.00
O270   O     0.41307   0.99813   0.88426   0.00000  Uiso   1.00
N271   N     0.71051   0.34146   0.56763   0.00000  Uiso   1.00
N272   N     0.29567   0.06205   0.50034   0.00000  Uiso   1.00
N273   N     0.45148   0.01394   0.79035   0.00000  Uiso   1.00
N274   N     0.66141   0.41081   0.61760   0.00000  Uiso   1.00
N275   N     0.24657   0.13141   0.55031   0.00000  Uiso   1.00
N276   N     0.40238   0.08330   0.84032   0.00000  Uiso   1.00
C277   C     0.81768   0.95734   0.93102   0.00000  Uiso   1.00
C278   C     0.89273   0.96540   0.93365   0.00000  Uiso   1.00
C279   C     0.93808   0.01798   0.96226   0.00000  Uiso   1.00
C280   C     0.00460   0.01618   0.95953   0.00000  Uiso   1.00
C281   C     0.11804   0.03667   0.96824   0.00000  Uiso   1.00
C282   C     0.77180   0.88715   0.95125   0.00000  Uiso   1.00
C283   C     0.71546   0.87394   0.99465   0.00000  Uiso   1.00
C284   C     0.68016   0.80626   0.00673   0.00000  Uiso   1.00
C285   C     0.60581   0.70527   0.04273   0.00000  Uiso   1.00
C286   C     0.81418   0.95319   0.86999   0.00000  Uiso   1.00
C287   C     0.79346   0.99549   0.84506   0.00000  Uiso   1.00
C288   C     0.79384   0.98339   0.78873   0.00000  Uiso   1.00
C289   C     0.78529   0.98493   0.69856   0.00000  Uiso   1.00
C290   C     0.85516   0.86063   0.87530   0.00000  Uiso   1.00
C291   C     0.91309   0.91287   0.90339   0.00000  Uiso   1.00
C292   C     0.97956   0.91099   0.90061   0.00000  Uiso   1.00
C293   C     0.02500   0.96356   0.92921   0.00000  Uiso   1.00
C294   C     0.79215   0.83462   0.92099   0.00000  Uiso   1.00
C295   C     0.75693   0.76695   0.93300   0.00000  Uiso   1.00
C296   C     0.70056   0.75364   0.97641   0.00000  Uiso   1.00
C297   C     0.83454   0.90066   0.83972   0.00000  Uiso   1.00
C298   C     0.83494   0.88850   0.78342   0.00000  Uiso   1.00
C299   C     0.81423   0.93077   0.75841   0.00000  Uiso   1.00
H300   H     0.80182   0.99823   0.95458   0.00000  Uiso   1.00
H301   H     0.92230   0.05862   0.98568   0.00000  Uiso   1.00
H302   H     0.69971   0.91460   0.01806   0.00000  Uiso   1.00
H303   H     0.77771   0.03613   0.86849   0.00000  Uiso   1.00
H304   H     0.06485   0.10239   0.00682   0.00000  Uiso   1.00
H305   H     0.59548   0.79872   0.07508   0.00000  Uiso   1.00
H306   H     0.75996   0.05499   0.75970   0.00000  Uiso   1.00
H307   H     0.87101   0.81973   0.85174   0.00000  Uiso   1.00
H308   H     0.99530   0.87033   0.87719   0.00000  Uiso   1.00
H309   H     0.77270   0.72631   0.90957   0.00000  Uiso   1.00
H310   H     0.85070   0.84784   0.76001   0.00000  Uiso   1.00
H311   H     0.12410   0.94957   0.91877   0.00000  Uiso   1.00
H312   H     0.65472   0.64590   0.98703   0.00000  Uiso   1.00
H313   H     0.81920   0.90217   0.67165   0.00000  Uiso   1.00
O314   O     0.17498   0.06248   0.98141   0.00000  Uiso   1.00
O315   O     0.55917   0.66407   0.07096   0.00000  Uiso   1.00
O316   O     0.77497   0.00029   0.65719   0.00000  Uiso   1.00
N317   N     0.06175   0.05949   0.98260   0.00000  Uiso   1.00
N318   N     0.62292   0.77558   0.04642   0.00000  Uiso   1.00
N319   N     0.77667   0.01515   0.75157   0.00000  Uiso   1.00
N320   N     0.09363   0.97726   0.93522   0.00000  Uiso   1.00
N321   N     0.65480   0.69335   0.99904   0.00000  Uiso   1.00
N322   N     0.80855   0.93292   0.70419   0.00000  Uiso   1.00
C323   C     0.37826   0.81393   0.07807   0.00000  Uiso   1.00
C324   C     0.32260   0.82848   0.05601   0.00000  Uiso   1.00
C325   C     0.25063   0.79674   0.07065   0.00000  Uiso   1.00
C326   C     0.20848   0.81725   0.04586   0.00000  Uiso   1.00
C327   C     0.11765   0.83219   0.01740   0.00000  Uiso   1.00
C328   C     0.42326   0.88208   0.10248   0.00000  Uiso   1.00
C329   C     0.43593   0.89541   0.15620   0.00000  Uiso   1.00
C330   C     0.47852   0.96103   0.17052   0.00000  Uiso   1.00
C331   C     0.54402   0.05918   0.21421   0.00000  Uiso   1.00
C332   C     0.42535   0.79487   0.02772   0.00000  Uiso   1.00
C333   C     0.43980   0.73486   0.01858   0.00000  Uiso   1.00
C334   C     0.48417   0.72706   0.96997   0.00000  Uiso   1.00
C335   C     0.55291   0.68979   0.89758   0.00000  Uiso   1.00
C336   C     0.43140   0.90679   0.00801   0.00000  Uiso   1.00
C337   C     0.35146   0.87892   0.01796   0.00000  Uiso   1.00
C338   C     0.30942   0.89948   0.99313   0.00000  Uiso   1.00
C339   C     0.23739   0.86777   0.00773   0.00000  Uiso   1.00
C340   C     0.45212   0.93252   0.06443   0.00000  Uiso   1.00
C341   C     0.49472   0.99814   0.07868   0.00000  Uiso   1.00
C342   C     0.50744   0.01156   0.13240   0.00000  Uiso   1.00
C343   C     0.45421   0.84530   0.98967   0.00000  Uiso   1.00
C344   C     0.49858   0.83759   0.94106   0.00000  Uiso   1.00
C345   C     0.51309   0.77759   0.93185   0.00000  Uiso   1.00
H346   H     0.35580   0.77467   0.10770   0.00000  Uiso   1.00
H347   H     0.22831   0.75772   0.10010   0.00000  Uiso   1.00
H348   H     0.41359   0.85636   0.18563   0.00000  Uiso   1.00
H349   H     0.41745   0.69584   0.04804   0.00000  Uiso   1.00
H350   H     0.09969   0.76118   0.07491   0.00000  Uiso   1.00
H351   H     0.49038   0.96918   0.25525   0.00000  Uiso   1.00
H352   H     0.49853   0.63069   0.96511   0.00000  Uiso   1.00
H353   H     0.45387   0.94605   0.97838   0.00000  Uiso   1.00
H354   H     0.33177   0.93851   0.96369   0.00000  Uiso   1.00
H355   H     0.51704   0.03715   0.04922   0.00000  Uiso   1.00
H356   H     0.52091   0.87663   0.91163   0.00000  Uiso   1.00
H357   H     0.18366   0.90792   0.96419   0.00000  Uiso   1.00
H358   H     0.57435   0.11591   0.14453   0.00000  Uiso   1.00
H359   H     0.58250   0.77742   0.85439   0.00000  Uiso   1.00
O360   O     0.05958   0.82651   0.01223   0.00000  Uiso   1.00
O361   O     0.57216   0.09938   0.24883   0.00000  Uiso   1.00
O362   O     0.58285   0.65529   0.86817   0.00000  Uiso   1.00
N363   N     0.13621   0.79675   0.05086   0.00000  Uiso   1.00
N364   N     0.50147   0.99121   0.21947   0.00000  Uiso   1.00
N365   N     0.50911   0.67476   0.94822   0.00000  Uiso   1.00
N366   N     0.18140   0.87570   0.99128   0.00000  Uiso   1.00
N367   N     0.54666   0.07017   0.15990   0.00000  Uiso   1.00
N368   N     0.55429   0.75371   0.88864   0.00000  Uiso   1.00
C369   C     0.32571   0.32784   0.93619   0.00000  Uiso   1.00
C370   C     0.29044   0.26767   0.89814   0.00000  Uiso   1.00
C371   C     0.27881   0.19971   0.90361   0.00000  Uiso   1.00
C372   C     0.24573   0.15231   0.86456   0.00000  Uiso   1.00
C373   C     0.19409   0.05584   0.81203   0.00000  Uiso   1.00
C374   C     0.27349   0.36450   0.95685   0.00000  Uiso   1.00
C375   C     0.24762   0.37796   0.01168   0.00000  Uiso   1.00
C376   C     0.20028   0.41208   0.02205   0.00000  Uiso   1.00
C377   C     0.12236   0.46599   0.06066   0.00000  Uiso   1.00
C378   C     0.38709   0.37648   0.89939   0.00000  Uiso   1.00
C379   C     0.45674   0.40004   0.90592   0.00000  Uiso   1.00
C380   C     0.50504   0.44425   0.86793   0.00000  Uiso   1.00
C381   C     0.60351   0.51677   0.81733   0.00000  Uiso   1.00
C382   C     0.28764   0.36450   0.85711   0.00000  Uiso   1.00
C383   C     0.26976   0.28758   0.85519   0.00000  Uiso   1.00
C384   C     0.23670   0.24027   0.81612   0.00000  Uiso   1.00
C385   C     0.22502   0.17225   0.82153   0.00000  Uiso   1.00
C386   C     0.25281   0.38441   0.91390   0.00000  Uiso   1.00
C387   C     0.20550   0.41852   0.92419   0.00000  Uiso   1.00
C388   C     0.17956   0.43203   0.97902   0.00000  Uiso   1.00
C389   C     0.36642   0.39639   0.85644   0.00000  Uiso   1.00
C390   C     0.41462   0.44059   0.81843   0.00000  Uiso   1.00
C391   C     0.48433   0.46420   0.82490   0.00000  Uiso   1.00
H392   H     0.34180   0.31234   0.96963   0.00000  Uiso   1.00
H393   H     0.29482   0.18432   0.93686   0.00000  Uiso   1.00
H394   H     0.26364   0.36255   0.04490   0.00000  Uiso   1.00
H395   H     0.47272   0.38462   0.93916   0.00000  Uiso   1.00
H396   H     0.23358   0.05117   0.88159   0.00000  Uiso   1.00
H397   H     0.16785   0.42699   0.10942   0.00000  Uiso   1.00
H398   H     0.60875   0.47352   0.88644   0.00000  Uiso   1.00
H399   H     0.27154   0.38001   0.82368   0.00000  Uiso   1.00
H400   H     0.22070   0.25569   0.78289   0.00000  Uiso   1.00
H401   H     0.18952   0.43392   0.89094   0.00000  Uiso   1.00
H402   H     0.39860   0.45599   0.78520   0.00000  Uiso   1.00
H403   H     0.17343   0.10909   0.75663   0.00000  Uiso   1.00
H404   H     0.10770   0.48492   0.98446   0.00000  Uiso   1.00
H405   H     0.54860   0.53145   0.76148   0.00000  Uiso   1.00
O406   O     0.17131   0.99713   0.79493   0.00000  Uiso   1.00
O407   O     0.08509   0.49021   0.09383   0.00000  Uiso   1.00
O408   O     0.66353   0.55125   0.80129   0.00000  Uiso   1.00
N409   N     0.22642   0.08186   0.85777   0.00000  Uiso   1.00
N410   N     0.16495   0.43323   0.07078   0.00000  Uiso   1.00
N411   N     0.57716   0.47674   0.86232   0.00000  Uiso   1.00
N412   N     0.19405   0.11303   0.79053   0.00000  Uiso   1.00
N413   N     0.13258   0.46440   0.00354   0.00000  Uiso   1.00
N414   N     0.54479   0.50791   0.79508   0.00000  Uiso   1.00
C415   C     0.87506   0.35597   0.43595   0.00000  Uiso   1.00
C416   C     0.80066   0.34686   0.43039   0.00000  Uiso   1.00
C417   C     0.77031   0.39669   0.44320   0.00000  Uiso   1.00
C418   C     0.70163   0.37824   0.43525   0.00000  Uiso   1.00
C419   C     0.59171   0.37412   0.42969   0.00000  Uiso   1.00
C420   C     0.86779   0.30126   0.47311   0.00000  Uiso   1.00
C421   C     0.89389   0.31274   0.52183   0.00000  Uiso   1.00
C422   C     0.88172   0.25590   0.54983   0.00000  Uiso   1.00
C423   C     0.87607   0.18097   0.61056   0.00000  Uiso   1.00
C424   C     0.91013   0.33662   0.37908   0.00000  Uiso   1.00
C425   C     0.97185   0.37783   0.34874   0.00000  Uiso   1.00
C426   C     0.99534   0.35076   0.29758   0.00000  Uiso   1.00
C427   C     0.05544   0.33074   0.21232   0.00000  Uiso   1.00
C428   C     0.80706   0.23462   0.39905   0.00000  Uiso   1.00
C429   C     0.76372   0.28095   0.41035   0.00000  Uiso   1.00
C430   C     0.69507   0.26242   0.40237   0.00000  Uiso   1.00
C431   C     0.66463   0.31221   0.41517   0.00000  Uiso   1.00
C432   C     0.83085   0.23535   0.45306   0.00000  Uiso   1.00
C433   C     0.81865   0.17848   0.48099   0.00000  Uiso   1.00
C434   C     0.84472   0.18987   0.52975   0.00000  Uiso   1.00
C435   C     0.87320   0.27071   0.35903   0.00000  Uiso   1.00
C436   C     0.89661   0.24357   0.30791   0.00000  Uiso   1.00
C437   C     0.95834   0.28473   0.27750   0.00000  Uiso   1.00
H438   H     0.90381   0.40728   0.45156   0.00000  Uiso   1.00
H439   H     0.79890   0.44769   0.45872   0.00000  Uiso   1.00
H440   H     0.92247   0.36375   0.53733   0.00000  Uiso   1.00
H441   H     0.00041   0.42883   0.36427   0.00000  Uiso   1.00
H442   H     0.66630   0.46341   0.45784   0.00000  Uiso   1.00
H443   H     0.92686   0.28642   0.62357   0.00000  Uiso   1.00
H444   H     0.09122   0.42366   0.25864   0.00000  Uiso   1.00
H445   H     0.77831   0.18330   0.38344   0.00000  Uiso   1.00
H446   H     0.66651   0.21141   0.38686   0.00000  Uiso   1.00
H447   H     0.79007   0.12748   0.46547   0.00000  Uiso   1.00
H448   H     0.86802   0.19256   0.29241   0.00000  Uiso   1.00
H449   H     0.55884   0.27164   0.39951   0.00000  Uiso   1.00
H450   H     0.81941   0.09465   0.56525   0.00000  Uiso   1.00
H451   H     0.98376   0.23189   0.20032   0.00000  Uiso   1.00
O452   O     0.54128   0.39005   0.43217   0.00000  Uiso   1.00
O453   O     0.88315   0.15786   0.64960   0.00000  Uiso   1.00
O454   O     0.09878   0.33791   0.17083   0.00000  Uiso   1.00
N455   N     0.65635   0.41442   0.44363   0.00000  Uiso   1.00
N456   N     0.89996   0.24895   0.59859   0.00000  Uiso   1.00
N457   N     0.05363   0.37725   0.25742   0.00000  Uiso   1.00
N458   N     0.59853   0.31123   0.41225   0.00000  Uiso   1.00
N459   N     0.84214   0.14576   0.56720   0.00000  Uiso   1.00
N460   N     0.99581   0.27406   0.22603   0.00000  Uiso   1.00
C461   C     0.25841   0.33095   0.44849   0.00000  Uiso   1.00
C462   C     0.32158   0.38178   0.41485   0.00000  Uiso   1.00
C463   C     0.38975   0.40604   0.42506   0.00000  Uiso   1.00
C464   C     0.44010   0.45230   0.38953   0.00000  Uiso   1.00
C465   C     0.54079   0.52801   0.34403   0.00000  Uiso   1.00
C466   C     0.20438   0.36585   0.46708   0.00000  Uiso   1.00
C467   C     0.17402   0.37670   0.52120   0.00000  Uiso   1.00
C468   C     0.12570   0.40954   0.52964   0.00000  Uiso   1.00
C469   C     0.04442   0.46048   0.56522   0.00000  Uiso   1.00
C470   C     0.22748   0.27198   0.40786   0.00000  Uiso   1.00
C471   C     0.21651   0.20391   0.41219   0.00000  Uiso   1.00
C472   C     0.18763   0.15772   0.37077   0.00000  Uiso   1.00
C473   C     0.14221   0.06292   0.31441   0.00000  Uiso   1.00
C474   C     0.22661   0.36997   0.36725   0.00000  Uiso   1.00
C475   C     0.30430   0.40297   0.37073   0.00000  Uiso   1.00
C476   C     0.35456   0.44920   0.33517   0.00000  Uiso   1.00
C477   C     0.42279   0.47352   0.34532   0.00000  Uiso   1.00
C478   C     0.18711   0.38704   0.42296   0.00000  Uiso   1.00
C479   C     0.13882   0.41987   0.43132   0.00000  Uiso   1.00
C480   C     0.10839   0.43077   0.48543   0.00000  Uiso   1.00
C481   C     0.21021   0.29317   0.36373   0.00000  Uiso   1.00
C482   C     0.18133   0.24708   0.32230   0.00000  Uiso   1.00
C483   C     0.17032   0.17895   0.32657   0.00000  Uiso   1.00
H484   H     0.27186   0.31446   0.48284   0.00000  Uiso   1.00
H485   H     0.40310   0.38963   0.45921   0.00000  Uiso   1.00
H486   H     0.18739   0.36029   0.55534   0.00000  Uiso   1.00
H487   H     0.22989   0.18753   0.44634   0.00000  Uiso   1.00
H488   H     0.54097   0.48234   0.41357   0.00000  Uiso   1.00
H489   H     0.08613   0.42045   0.61625   0.00000  Uiso   1.00
H490   H     0.17574   0.05615   0.38641   0.00000  Uiso   1.00
H491   H     0.21315   0.38647   0.33289   0.00000  Uiso   1.00
H492   H     0.34117   0.46559   0.30103   0.00000  Uiso   1.00
H493   H     0.12547   0.43625   0.39716   0.00000  Uiso   1.00
H494   H     0.16796   0.26349   0.28816   0.00000  Uiso   1.00
H495   H     0.49071   0.54399   0.28518   0.00000  Uiso   1.00
H496   H     0.03586   0.48211   0.48787   0.00000  Uiso   1.00
H497   H     0.12548   0.11780   0.25803   0.00000  Uiso   1.00
O498   O     0.60111   0.56393   0.33113   0.00000  Uiso   1.00
O499   O     0.00436   0.48273   0.59705   0.00000  Uiso   1.00
O500   O     0.12194   0.00477   0.29550   0.00000  Uiso   1.00
N501   N     0.51157   0.48598   0.38772   0.00000  Uiso   1.00
N502   N     0.08633   0.42813   0.57722   0.00000  Uiso   1.00
N503   N     0.17010   0.08753   0.36235   0.00000  Uiso   1.00
N504   N     0.48453   0.51915   0.31863   0.00000  Uiso   1.00
N505   N     0.05929   0.46131   0.50813   0.00000  Uiso   1.00
N506   N     0.14305   0.12071   0.29326   0.00000  Uiso   1.00
C507   C     0.79559   0.90558   0.46051   0.00000  Uiso   1.00
C508   C     0.79660   0.83313   0.45251   0.00000  Uiso   1.00
C509   C     0.74858   0.77784   0.48069   0.00000  Uiso   1.00
C510   C     0.75860   0.71579   0.46742   0.00000  Uiso   1.00
C511   C     0.75167   0.60427   0.46111   0.00000  Uiso   1.00
C512   C     0.86678   0.95117   0.47461   0.00000  Uiso   1.00
C513   C     0.87777   0.99514   0.52138   0.00000  Uiso   1.00
C514   C     0.94688   0.03246   0.52671   0.00000  Uiso   1.00
C515   C     0.04890   0.10424   0.55470   0.00000  Uiso   1.00
C516   C     0.79409   0.92431   0.40391   0.00000  Uiso   1.00
C517   C     0.74397   0.94571   0.39122   0.00000  Uiso   1.00
C518   C     0.75189   0.96044   0.33702   0.00000  Uiso   1.00
C519   C     0.74105   0.99052   0.25523   0.00000  Uiso   1.00
C520   C     0.89877   0.89370   0.38682   0.00000  Uiso   1.00
C521   C     0.85265   0.82668   0.41248   0.00000  Uiso   1.00
C522   C     0.86274   0.76470   0.39916   0.00000  Uiso   1.00
C523   C     0.81475   0.70932   0.42732   0.00000  Uiso   1.00
C524   C     0.92283   0.94472   0.43459   0.00000  Uiso   1.00
C525   C     0.99193   0.98199   0.43985   0.00000  Uiso   1.00
C526   C     0.00302   0.02600   0.48661   0.00000  Uiso   1.00
C527   C     0.85014   0.91786   0.36388   0.00000  Uiso   1.00
C528   C     0.85813   0.93256   0.30969   0.00000  Uiso   1.00
C529   C     0.80803   0.95398   0.29693   0.00000  Uiso   1.00
H530   H     0.75196   0.91061   0.49167   0.00000  Uiso   1.00
H531   H     0.70522   0.78286   0.51167   0.00000  Uiso   1.00
H532   H     0.83439   0.00012   0.55235   0.00000  Uiso   1.00
H533   H     0.70061   0.95070   0.42221   0.00000  Uiso   1.00
H534   H     0.67813   0.63837   0.51621   0.00000  Uiso   1.00
H535   H     0.95050   0.09651   0.60196   0.00000  Uiso   1.00
H536   H     0.66840   0.99230   0.32754   0.00000  Uiso   1.00
H537   H     0.94241   0.88868   0.35565   0.00000  Uiso   1.00
H538   H     0.90612   0.75972   0.36818   0.00000  Uiso   1.00
H539   H     0.03529   0.97699   0.40886   0.00000  Uiso   1.00
H540   H     0.90151   0.92756   0.27873   0.00000  Uiso   1.00
H541   H     0.84119   0.61960   0.39975   0.00000  Uiso   1.00
H542   H     0.11356   0.07774   0.48551   0.00000  Uiso   1.00
H543   H     0.83146   0.97352   0.21109   0.00000  Uiso   1.00
O544   O     0.73237   0.54455   0.46869   0.00000  Uiso   1.00
O545   O     0.08970   0.14562   0.58120   0.00000  Uiso   1.00
O546   O     0.71959   0.00889   0.22116   0.00000  Uiso   1.00
N547   N     0.72148   0.65165   0.48707   0.00000  Uiso   1.00
N548   N     0.97613   0.07997   0.56725   0.00000  Uiso   1.00
N549   N     0.71240   0.98256   0.31070   0.00000  Uiso   1.00
N550   N     0.80922   0.64155   0.42441   0.00000  Uiso   1.00
N551   N     0.06386   0.06987   0.50459   0.00000  Uiso   1.00
N552   N     0.80014   0.97246   0.24803   0.00000  Uiso   1.00
