data_job_04982
_audit_creation_date              2018-12-19
_audit_creation_method            'Materials Studio'
_symmetry_space_group_name_H-M    'P1'
_symmetry_Int_Tables_number       1
_symmetry_cell_setting            triclinic
loop_
_symmetry_equiv_pos_as_xyz
  x,y,z
_cell_length_a                    17.1947
_cell_length_b                    14.2140
_cell_length_c                    20.3709
_cell_angle_alpha                 90.0000
_cell_angle_beta                  58.9993
_cell_angle_gamma                 90.0000
loop_
_atom_site_label
_atom_site_type_symbol
_atom_site_fract_x
_atom_site_fract_y
_atom_site_fract_z
_atom_site_U_iso_or_equiv
_atom_site_adp_type
_atom_site_occupancy
C1     C     0.24340   0.57355   0.14249   0.00000  Uiso   1.00
C2     C     0.29663   0.51965   0.06733   0.00000  Uiso   1.00
C3     C     0.38677   0.53480   0.01154   0.00000  Uiso   1.00
C4     C     0.42308   0.47809   0.94687   0.00000  Uiso   1.00
C5     C     0.51365   0.40496   0.83144   0.00000  Uiso   1.00
C6     C     0.16051   0.61375   0.14359   0.00000  Uiso   1.00
C7     C     0.13619   0.70802   0.15191   0.00000  Uiso   1.00
C8     C     0.05790   0.73052   0.15145   0.00000  Uiso   1.00
C9     C     0.93709   0.80348   0.15446   0.00000  Uiso   1.00
C10    C     0.20739   0.49979   0.20585   0.00000  Uiso   1.00
C11    C     0.22246   0.49825   0.26653   0.00000  Uiso   1.00
C12    C     0.18362   0.42482   0.31850   0.00000  Uiso   1.00
C13    C     0.13560   0.32084   0.41818   0.00000  Uiso   1.00
C14    C     0.14759   0.44589   0.12688   0.00000  Uiso   1.00
C15    C     0.24459   0.45031   0.05886   0.00000  Uiso   1.00
C16    C     0.28077   0.39355   0.99426   0.00000  Uiso   1.00
C17    C     0.37095   0.40862   0.93837   0.00000  Uiso   1.00
C18    C     0.10847   0.54441   0.13511   0.00000  Uiso   1.00
C19    C     0.03019   0.56677   0.13464   0.00000  Uiso   1.00
C20    C     0.00576   0.66105   0.14295   0.00000  Uiso   1.00
C21    C     0.15535   0.43044   0.19737   0.00000  Uiso   1.00
C22    C     0.11647   0.35700   0.24925   0.00000  Uiso   1.00
C23    C     0.13149   0.35535   0.31000   0.00000  Uiso   1.00
H24    H     0.28390   0.62754   0.14910   0.00000  Uiso   1.00
H25    H     0.42702   0.58848   0.01812   0.00000  Uiso   1.00
H26    H     0.17647   0.76166   0.15848   0.00000  Uiso   1.00
H27    H     0.26273   0.55193   0.27308   0.00000  Uiso   1.00
H28    H     0.56273   0.51460   0.86915   0.00000  Uiso   1.00
H29    H     0.03441   0.87978   0.16514   0.00000  Uiso   1.00
H30    H     0.21632   0.43751   0.40680   0.00000  Uiso   1.00
H31    H     0.10707   0.39190   0.12027   0.00000  Uiso   1.00
H32    H     0.24049   0.33990   0.98771   0.00000  Uiso   1.00
H33    H     0.98993   0.51309   0.12808   0.00000  Uiso   1.00
H34    H     0.07620   0.30336   0.24267   0.00000  Uiso   1.00
H35    H     0.41133   0.31285   0.84447   0.00000  Uiso   1.00
H36    H     0.88301   0.67803   0.14047   0.00000  Uiso   1.00
H37    H     0.06492   0.23576   0.38212   0.00000  Uiso   1.00
O38    O     0.57798   0.38379   0.77012   0.00000  Uiso   1.00
O39    O     0.88484   0.86289   0.15846   0.00000  Uiso   1.00
O40    O     0.12350   0.28264   0.47550   0.00000  Uiso   1.00
N41    N     0.50879   0.47425   0.88154   0.00000  Uiso   1.00
N42    N     0.01486   0.81567   0.15826   0.00000  Uiso   1.00
N43    N     0.18490   0.40220   0.38420   0.00000  Uiso   1.00
N44    N     0.42733   0.36568   0.86826   0.00000  Uiso   1.00
N45    N     0.93339   0.70711   0.14499   0.00000  Uiso   1.00
N46    N     0.10344   0.29364   0.37092   0.00000  Uiso   1.00
C47    C     0.74340   0.07355   0.14249   0.00000  Uiso   1.00
C48    C     0.79663   0.01965   0.06733   0.00000  Uiso   1.00
C49    C     0.88677   0.03480   0.01154   0.00000  Uiso   1.00
C50    C     0.92308   0.97809   0.94687   0.00000  Uiso   1.00
C51    C     0.01365   0.90496   0.83144   0.00000  Uiso   1.00
C52    C     0.66051   0.11375   0.14359   0.00000  Uiso   1.00
C53    C     0.63619   0.20802   0.15191   0.00000  Uiso   1.00
C54    C     0.55790   0.23052   0.15145   0.00000  Uiso   1.00
C55    C     0.43709   0.30348   0.15446   0.00000  Uiso   1.00
C56    C     0.70739   0.99979   0.20585   0.00000  Uiso   1.00
C57    C     0.72246   0.99825   0.26653   0.00000  Uiso   1.00
C58    C     0.68362   0.92482   0.31850   0.00000  Uiso   1.00
C59    C     0.63560   0.82084   0.41818   0.00000  Uiso   1.00
C60    C     0.64759   0.94589   0.12688   0.00000  Uiso   1.00
C61    C     0.74459   0.95031   0.05886   0.00000  Uiso   1.00
C62    C     0.78077   0.89355   0.99426   0.00000  Uiso   1.00
C63    C     0.87095   0.90862   0.93837   0.00000  Uiso   1.00
C64    C     0.60847   0.04441   0.13511   0.00000  Uiso   1.00
C65    C     0.53019   0.06677   0.13464   0.00000  Uiso   1.00
C66    C     0.50576   0.16105   0.14295   0.00000  Uiso   1.00
C67    C     0.65535   0.93044   0.19737   0.00000  Uiso   1.00
C68    C     0.61647   0.85700   0.24925   0.00000  Uiso   1.00
C69    C     0.63149   0.85535   0.31000   0.00000  Uiso   1.00
H70    H     0.78390   0.12754   0.14910   0.00000  Uiso   1.00
H71    H     0.92702   0.08848   0.01812   0.00000  Uiso   1.00
H72    H     0.67647   0.26166   0.15848   0.00000  Uiso   1.00
H73    H     0.76273   0.05193   0.27308   0.00000  Uiso   1.00
H74    H     0.06273   0.01460   0.86915   0.00000  Uiso   1.00
H75    H     0.53441   0.37978   0.16514   0.00000  Uiso   1.00
H76    H     0.71632   0.93751   0.40680   0.00000  Uiso   1.00
H77    H     0.60707   0.89190   0.12027   0.00000  Uiso   1.00
H78    H     0.74049   0.83990   0.98771   0.00000  Uiso   1.00
H79    H     0.48993   0.01309   0.12808   0.00000  Uiso   1.00
H80    H     0.57620   0.80336   0.24267   0.00000  Uiso   1.00
H81    H     0.91133   0.81285   0.84447   0.00000  Uiso   1.00
H82    H     0.38301   0.17803   0.14047   0.00000  Uiso   1.00
H83    H     0.56492   0.73576   0.38212   0.00000  Uiso   1.00
O84    O     0.07798   0.88379   0.77012   0.00000  Uiso   1.00
O85    O     0.38484   0.36289   0.15846   0.00000  Uiso   1.00
O86    O     0.62350   0.78264   0.47550   0.00000  Uiso   1.00
N87    N     0.00879   0.97425   0.88154   0.00000  Uiso   1.00
N88    N     0.51486   0.31567   0.15826   0.00000  Uiso   1.00
N89    N     0.68490   0.90220   0.38420   0.00000  Uiso   1.00
N90    N     0.92733   0.86568   0.86826   0.00000  Uiso   1.00
N91    N     0.43339   0.20711   0.14499   0.00000  Uiso   1.00
N92    N     0.60344   0.79364   0.37092   0.00000  Uiso   1.00
C93    C     0.75660   0.57355   0.35751   0.00000  Uiso   1.00
C94    C     0.70337   0.51965   0.43267   0.00000  Uiso   1.00
C95    C     0.61323   0.53480   0.48846   0.00000  Uiso   1.00
C96    C     0.57692   0.47809   0.55313   0.00000  Uiso   1.00
C97    C     0.48635   0.40496   0.66856   0.00000  Uiso   1.00
C98    C     0.83949   0.61375   0.35641   0.00000  Uiso   1.00
C99    C     0.86381   0.70802   0.34809   0.00000  Uiso   1.00
C100   C     0.94210   0.73052   0.34855   0.00000  Uiso   1.00
C101   C     0.06291   0.80348   0.34554   0.00000  Uiso   1.00
C102   C     0.79261   0.49979   0.29415   0.00000  Uiso   1.00
C103   C     0.77754   0.49825   0.23347   0.00000  Uiso   1.00
C104   C     0.81638   0.42482   0.18150   0.00000  Uiso   1.00
C105   C     0.86440   0.32084   0.08182   0.00000  Uiso   1.00
C106   C     0.85241   0.44589   0.37312   0.00000  Uiso   1.00
C107   C     0.75541   0.45031   0.44114   0.00000  Uiso   1.00
C108   C     0.71923   0.39355   0.50574   0.00000  Uiso   1.00
C109   C     0.62905   0.40862   0.56163   0.00000  Uiso   1.00
C110   C     0.89153   0.54441   0.36489   0.00000  Uiso   1.00
C111   C     0.96981   0.56677   0.36536   0.00000  Uiso   1.00
C112   C     0.99424   0.66105   0.35705   0.00000  Uiso   1.00
C113   C     0.84465   0.43044   0.30263   0.00000  Uiso   1.00
C114   C     0.88353   0.35700   0.25075   0.00000  Uiso   1.00
C115   C     0.86851   0.35535   0.19000   0.00000  Uiso   1.00
H116   H     0.71610   0.62754   0.35090   0.00000  Uiso   1.00
H117   H     0.57298   0.58848   0.48188   0.00000  Uiso   1.00
H118   H     0.82353   0.76166   0.34152   0.00000  Uiso   1.00
H119   H     0.73727   0.55193   0.22692   0.00000  Uiso   1.00
H120   H     0.43727   0.51460   0.63085   0.00000  Uiso   1.00
H121   H     0.96559   0.87978   0.33486   0.00000  Uiso   1.00
H122   H     0.78368   0.43751   0.09320   0.00000  Uiso   1.00
H123   H     0.89293   0.39190   0.37973   0.00000  Uiso   1.00
H124   H     0.75951   0.33990   0.51229   0.00000  Uiso   1.00
H125   H     0.01007   0.51309   0.37192   0.00000  Uiso   1.00
H126   H     0.92380   0.30336   0.25733   0.00000  Uiso   1.00
H127   H     0.58867   0.31285   0.65553   0.00000  Uiso   1.00
H128   H     0.11699   0.67803   0.35953   0.00000  Uiso   1.00
H129   H     0.93508   0.23576   0.11788   0.00000  Uiso   1.00
O130   O     0.42202   0.38379   0.72988   0.00000  Uiso   1.00
O131   O     0.11516   0.86289   0.34154   0.00000  Uiso   1.00
O132   O     0.87650   0.28264   0.02450   0.00000  Uiso   1.00
N133   N     0.49121   0.47425   0.61846   0.00000  Uiso   1.00
N134   N     0.98514   0.81567   0.34174   0.00000  Uiso   1.00
N135   N     0.81510   0.40220   0.11580   0.00000  Uiso   1.00
N136   N     0.57267   0.36568   0.63174   0.00000  Uiso   1.00
N137   N     0.06661   0.70711   0.35501   0.00000  Uiso   1.00
N138   N     0.89656   0.29364   0.12908   0.00000  Uiso   1.00
C139   C     0.25660   0.07355   0.35751   0.00000  Uiso   1.00
C140   C     0.20337   0.01965   0.43267   0.00000  Uiso   1.00
C141   C     0.11323   0.03480   0.48846   0.00000  Uiso   1.00
C142   C     0.07692   0.97809   0.55313   0.00000  Uiso   1.00
C143   C     0.98635   0.90496   0.66856   0.00000  Uiso   1.00
C144   C     0.33949   0.11375   0.35641   0.00000  Uiso   1.00
C145   C     0.36381   0.20802   0.34809   0.00000  Uiso   1.00
C146   C     0.44210   0.23052   0.34855   0.00000  Uiso   1.00
C147   C     0.56291   0.30348   0.34554   0.00000  Uiso   1.00
C148   C     0.29261   0.99979   0.29415   0.00000  Uiso   1.00
C149   C     0.27754   0.99825   0.23347   0.00000  Uiso   1.00
C150   C     0.31638   0.92482   0.18150   0.00000  Uiso   1.00
C151   C     0.36440   0.82084   0.08182   0.00000  Uiso   1.00
C152   C     0.35241   0.94589   0.37312   0.00000  Uiso   1.00
C153   C     0.25541   0.95031   0.44114   0.00000  Uiso   1.00
C154   C     0.21923   0.89355   0.50574   0.00000  Uiso   1.00
C155   C     0.12905   0.90862   0.56163   0.00000  Uiso   1.00
C156   C     0.39153   0.04441   0.36489   0.00000  Uiso   1.00
C157   C     0.46981   0.06677   0.36536   0.00000  Uiso   1.00
C158   C     0.49424   0.16105   0.35705   0.00000  Uiso   1.00
C159   C     0.34465   0.93044   0.30263   0.00000  Uiso   1.00
C160   C     0.38353   0.85700   0.25075   0.00000  Uiso   1.00
C161   C     0.36851   0.85535   0.19000   0.00000  Uiso   1.00
H162   H     0.21610   0.12754   0.35090   0.00000  Uiso   1.00
H163   H     0.07298   0.08848   0.48188   0.00000  Uiso   1.00
H164   H     0.32353   0.26166   0.34152   0.00000  Uiso   1.00
H165   H     0.23727   0.05193   0.22692   0.00000  Uiso   1.00
H166   H     0.93727   0.01460   0.63085   0.00000  Uiso   1.00
H167   H     0.46559   0.37978   0.33486   0.00000  Uiso   1.00
H168   H     0.28368   0.93751   0.09320   0.00000  Uiso   1.00
H169   H     0.39293   0.89190   0.37973   0.00000  Uiso   1.00
H170   H     0.25951   0.83990   0.51229   0.00000  Uiso   1.00
H171   H     0.51007   0.01309   0.37192   0.00000  Uiso   1.00
H172   H     0.42380   0.80336   0.25733   0.00000  Uiso   1.00
H173   H     0.08867   0.81285   0.65553   0.00000  Uiso   1.00
H174   H     0.61699   0.17803   0.35953   0.00000  Uiso   1.00
H175   H     0.43508   0.73576   0.11788   0.00000  Uiso   1.00
O176   O     0.92202   0.88379   0.72988   0.00000  Uiso   1.00
O177   O     0.61516   0.36289   0.34154   0.00000  Uiso   1.00
O178   O     0.37650   0.78264   0.02450   0.00000  Uiso   1.00
N179   N     0.99121   0.97425   0.61846   0.00000  Uiso   1.00
N180   N     0.48514   0.31567   0.34174   0.00000  Uiso   1.00
N181   N     0.31510   0.90220   0.11580   0.00000  Uiso   1.00
N182   N     0.07267   0.86568   0.63174   0.00000  Uiso   1.00
N183   N     0.56661   0.20711   0.35501   0.00000  Uiso   1.00
N184   N     0.39656   0.79364   0.12908   0.00000  Uiso   1.00
C185   C     0.75660   0.42645   0.85751   0.00000  Uiso   1.00
C186   C     0.70337   0.48035   0.93267   0.00000  Uiso   1.00
C187   C     0.61323   0.46520   0.98846   0.00000  Uiso   1.00
C188   C     0.57692   0.52191   0.05313   0.00000  Uiso   1.00
C189   C     0.48635   0.59504   0.16856   0.00000  Uiso   1.00
C190   C     0.83949   0.38625   0.85641   0.00000  Uiso   1.00
C191   C     0.86381   0.29198   0.84809   0.00000  Uiso   1.00
C192   C     0.94210   0.26948   0.84855   0.00000  Uiso   1.00
C193   C     0.06291   0.19652   0.84554   0.00000  Uiso   1.00
C194   C     0.79261   0.50021   0.79415   0.00000  Uiso   1.00
C195   C     0.77754   0.50175   0.73347   0.00000  Uiso   1.00
C196   C     0.81638   0.57518   0.68150   0.00000  Uiso   1.00
C197   C     0.86440   0.67916   0.58182   0.00000  Uiso   1.00
C198   C     0.85241   0.55411   0.87312   0.00000  Uiso   1.00
C199   C     0.75541   0.54969   0.94114   0.00000  Uiso   1.00
C200   C     0.71923   0.60645   0.00574   0.00000  Uiso   1.00
C201   C     0.62905   0.59138   0.06163   0.00000  Uiso   1.00
C202   C     0.89153   0.45559   0.86489   0.00000  Uiso   1.00
C203   C     0.96981   0.43323   0.86536   0.00000  Uiso   1.00
C204   C     0.99424   0.33895   0.85705   0.00000  Uiso   1.00
C205   C     0.84465   0.56956   0.80263   0.00000  Uiso   1.00
C206   C     0.88353   0.64300   0.75075   0.00000  Uiso   1.00
C207   C     0.86851   0.64465   0.69000   0.00000  Uiso   1.00
H208   H     0.71610   0.37246   0.85090   0.00000  Uiso   1.00
H209   H     0.57298   0.41152   0.98188   0.00000  Uiso   1.00
H210   H     0.82353   0.23834   0.84152   0.00000  Uiso   1.00
H211   H     0.73727   0.44807   0.72692   0.00000  Uiso   1.00
H212   H     0.43727   0.48540   0.13085   0.00000  Uiso   1.00
H213   H     0.96559   0.12022   0.83486   0.00000  Uiso   1.00
H214   H     0.78368   0.56249   0.59320   0.00000  Uiso   1.00
H215   H     0.89293   0.60810   0.87973   0.00000  Uiso   1.00
H216   H     0.75951   0.66010   0.01229   0.00000  Uiso   1.00
H217   H     0.01007   0.48691   0.87192   0.00000  Uiso   1.00
H218   H     0.92380   0.69664   0.75733   0.00000  Uiso   1.00
H219   H     0.58867   0.68715   0.15553   0.00000  Uiso   1.00
H220   H     0.11699   0.32197   0.85953   0.00000  Uiso   1.00
H221   H     0.93508   0.76424   0.61788   0.00000  Uiso   1.00
O222   O     0.42202   0.61621   0.22988   0.00000  Uiso   1.00
O223   O     0.11516   0.13711   0.84154   0.00000  Uiso   1.00
O224   O     0.87650   0.71736   0.52450   0.00000  Uiso   1.00
N225   N     0.49121   0.52575   0.11846   0.00000  Uiso   1.00
N226   N     0.98514   0.18433   0.84174   0.00000  Uiso   1.00
N227   N     0.81510   0.59780   0.61580   0.00000  Uiso   1.00
N228   N     0.57267   0.63432   0.13174   0.00000  Uiso   1.00
N229   N     0.06661   0.29289   0.85501   0.00000  Uiso   1.00
N230   N     0.89656   0.70636   0.62908   0.00000  Uiso   1.00
C231   C     0.25660   0.92645   0.85751   0.00000  Uiso   1.00
C232   C     0.20337   0.98035   0.93267   0.00000  Uiso   1.00
C233   C     0.11323   0.96520   0.98846   0.00000  Uiso   1.00
C234   C     0.07692   0.02191   0.05313   0.00000  Uiso   1.00
C235   C     0.98635   0.09504   0.16856   0.00000  Uiso   1.00
C236   C     0.33949   0.88625   0.85641   0.00000  Uiso   1.00
C237   C     0.36381   0.79198   0.84809   0.00000  Uiso   1.00
C238   C     0.44210   0.76948   0.84855   0.00000  Uiso   1.00
C239   C     0.56291   0.69652   0.84554   0.00000  Uiso   1.00
C240   C     0.29261   0.00021   0.79415   0.00000  Uiso   1.00
C241   C     0.27754   0.00175   0.73347   0.00000  Uiso   1.00
C242   C     0.31638   0.07518   0.68150   0.00000  Uiso   1.00
C243   C     0.36440   0.17916   0.58182   0.00000  Uiso   1.00
C244   C     0.35241   0.05411   0.87312   0.00000  Uiso   1.00
C245   C     0.25541   0.04969   0.94114   0.00000  Uiso   1.00
C246   C     0.21923   0.10645   0.00574   0.00000  Uiso   1.00
C247   C     0.12905   0.09138   0.06163   0.00000  Uiso   1.00
C248   C     0.39153   0.95559   0.86489   0.00000  Uiso   1.00
C249   C     0.46981   0.93323   0.86536   0.00000  Uiso   1.00
C250   C     0.49424   0.83895   0.85705   0.00000  Uiso   1.00
C251   C     0.34465   0.06956   0.80263   0.00000  Uiso   1.00
C252   C     0.38353   0.14300   0.75075   0.00000  Uiso   1.00
C253   C     0.36851   0.14465   0.69000   0.00000  Uiso   1.00
H254   H     0.21610   0.87246   0.85090   0.00000  Uiso   1.00
H255   H     0.07298   0.91152   0.98188   0.00000  Uiso   1.00
H256   H     0.32353   0.73834   0.84152   0.00000  Uiso   1.00
H257   H     0.23727   0.94807   0.72692   0.00000  Uiso   1.00
H258   H     0.93727   0.98540   0.13085   0.00000  Uiso   1.00
H259   H     0.46559   0.62022   0.83486   0.00000  Uiso   1.00
H260   H     0.28368   0.06249   0.59320   0.00000  Uiso   1.00
H261   H     0.39293   0.10810   0.87973   0.00000  Uiso   1.00
H262   H     0.25951   0.16010   0.01229   0.00000  Uiso   1.00
H263   H     0.51007   0.98691   0.87192   0.00000  Uiso   1.00
H264   H     0.42380   0.19664   0.75733   0.00000  Uiso   1.00
H265   H     0.08867   0.18715   0.15553   0.00000  Uiso   1.00
H266   H     0.61699   0.82197   0.85953   0.00000  Uiso   1.00
H267   H     0.43508   0.26424   0.61788   0.00000  Uiso   1.00
O268   O     0.92202   0.11621   0.22988   0.00000  Uiso   1.00
O269   O     0.61516   0.63711   0.84154   0.00000  Uiso   1.00
O270   O     0.37650   0.21736   0.52450   0.00000  Uiso   1.00
N271   N     0.99121   0.02575   0.11846   0.00000  Uiso   1.00
N272   N     0.48514   0.68433   0.84174   0.00000  Uiso   1.00
N273   N     0.31510   0.09780   0.61580   0.00000  Uiso   1.00
N274   N     0.07267   0.13432   0.13174   0.00000  Uiso   1.00
N275   N     0.56661   0.79289   0.85501   0.00000  Uiso   1.00
N276   N     0.39656   0.20636   0.62908   0.00000  Uiso   1.00
C277   C     0.24340   0.42645   0.64249   0.00000  Uiso   1.00
C278   C     0.29663   0.48035   0.56733   0.00000  Uiso   1.00
C279   C     0.38677   0.46520   0.51154   0.00000  Uiso   1.00
C280   C     0.42308   0.52191   0.44687   0.00000  Uiso   1.00
C281   C     0.51365   0.59504   0.33144   0.00000  Uiso   1.00
C282   C     0.16051   0.38625   0.64359   0.00000  Uiso   1.00
C283   C     0.13619   0.29198   0.65191   0.00000  Uiso   1.00
C284   C     0.05790   0.26948   0.65145   0.00000  Uiso   1.00
C285   C     0.93709   0.19652   0.65446   0.00000  Uiso   1.00
C286   C     0.20739   0.50021   0.70585   0.00000  Uiso   1.00
C287   C     0.22246   0.50175   0.76653   0.00000  Uiso   1.00
C288   C     0.18362   0.57518   0.81850   0.00000  Uiso   1.00
C289   C     0.13560   0.67916   0.91818   0.00000  Uiso   1.00
C290   C     0.14759   0.55411   0.62688   0.00000  Uiso   1.00
C291   C     0.24459   0.54969   0.55886   0.00000  Uiso   1.00
C292   C     0.28077   0.60645   0.49426   0.00000  Uiso   1.00
C293   C     0.37095   0.59138   0.43837   0.00000  Uiso   1.00
C294   C     0.10847   0.45559   0.63511   0.00000  Uiso   1.00
C295   C     0.03019   0.43323   0.63464   0.00000  Uiso   1.00
C296   C     0.00576   0.33895   0.64295   0.00000  Uiso   1.00
C297   C     0.15535   0.56956   0.69737   0.00000  Uiso   1.00
C298   C     0.11647   0.64300   0.74925   0.00000  Uiso   1.00
C299   C     0.13149   0.64465   0.81000   0.00000  Uiso   1.00
H300   H     0.28390   0.37246   0.64910   0.00000  Uiso   1.00
H301   H     0.42702   0.41152   0.51812   0.00000  Uiso   1.00
H302   H     0.17647   0.23834   0.65848   0.00000  Uiso   1.00
H303   H     0.26273   0.44807   0.77308   0.00000  Uiso   1.00
H304   H     0.56273   0.48540   0.36915   0.00000  Uiso   1.00
H305   H     0.03441   0.12022   0.66514   0.00000  Uiso   1.00
H306   H     0.21632   0.56249   0.90680   0.00000  Uiso   1.00
H307   H     0.10707   0.60810   0.62027   0.00000  Uiso   1.00
H308   H     0.24049   0.66010   0.48771   0.00000  Uiso   1.00
H309   H     0.98993   0.48691   0.62808   0.00000  Uiso   1.00
H310   H     0.07620   0.69664   0.74267   0.00000  Uiso   1.00
H311   H     0.41133   0.68715   0.34447   0.00000  Uiso   1.00
H312   H     0.88301   0.32197   0.64047   0.00000  Uiso   1.00
H313   H     0.06492   0.76424   0.88212   0.00000  Uiso   1.00
O314   O     0.57798   0.61621   0.27012   0.00000  Uiso   1.00
O315   O     0.88484   0.13711   0.65846   0.00000  Uiso   1.00
O316   O     0.12350   0.71736   0.97550   0.00000  Uiso   1.00
N317   N     0.50879   0.52575   0.38154   0.00000  Uiso   1.00
N318   N     0.01486   0.18433   0.65826   0.00000  Uiso   1.00
N319   N     0.18490   0.59780   0.88420   0.00000  Uiso   1.00
N320   N     0.42733   0.63432   0.36826   0.00000  Uiso   1.00
N321   N     0.93339   0.29289   0.64499   0.00000  Uiso   1.00
N322   N     0.10344   0.70636   0.87092   0.00000  Uiso   1.00
C323   C     0.74340   0.92645   0.64249   0.00000  Uiso   1.00
C324   C     0.79663   0.98035   0.56733   0.00000  Uiso   1.00
C325   C     0.88677   0.96520   0.51154   0.00000  Uiso   1.00
C326   C     0.92308   0.02191   0.44687   0.00000  Uiso   1.00
C327   C     0.01365   0.09504   0.33144   0.00000  Uiso   1.00
C328   C     0.66051   0.88625   0.64359   0.00000  Uiso   1.00
C329   C     0.63619   0.79198   0.65191   0.00000  Uiso   1.00
C330   C     0.55790   0.76948   0.65145   0.00000  Uiso   1.00
C331   C     0.43709   0.69652   0.65446   0.00000  Uiso   1.00
C332   C     0.70739   0.00021   0.70585   0.00000  Uiso   1.00
C333   C     0.72246   0.00175   0.76653   0.00000  Uiso   1.00
C334   C     0.68362   0.07518   0.81850   0.00000  Uiso   1.00
C335   C     0.63560   0.17916   0.91818   0.00000  Uiso   1.00
C336   C     0.64759   0.05411   0.62688   0.00000  Uiso   1.00
C337   C     0.74459   0.04969   0.55886   0.00000  Uiso   1.00
C338   C     0.78077   0.10645   0.49426   0.00000  Uiso   1.00
C339   C     0.87095   0.09138   0.43837   0.00000  Uiso   1.00
C340   C     0.60847   0.95559   0.63511   0.00000  Uiso   1.00
C341   C     0.53019   0.93323   0.63464   0.00000  Uiso   1.00
C342   C     0.50576   0.83895   0.64295   0.00000  Uiso   1.00
C343   C     0.65535   0.06956   0.69737   0.00000  Uiso   1.00
C344   C     0.61647   0.14300   0.74925   0.00000  Uiso   1.00
C345   C     0.63149   0.14465   0.81000   0.00000  Uiso   1.00
H346   H     0.78390   0.87246   0.64910   0.00000  Uiso   1.00
H347   H     0.92702   0.91152   0.51812   0.00000  Uiso   1.00
H348   H     0.67647   0.73834   0.65848   0.00000  Uiso   1.00
H349   H     0.76273   0.94807   0.77308   0.00000  Uiso   1.00
H350   H     0.06273   0.98540   0.36915   0.00000  Uiso   1.00
H351   H     0.53441   0.62022   0.66514   0.00000  Uiso   1.00
H352   H     0.71632   0.06249   0.90680   0.00000  Uiso   1.00
H353   H     0.60707   0.10810   0.62027   0.00000  Uiso   1.00
H354   H     0.74049   0.16010   0.48771   0.00000  Uiso   1.00
H355   H     0.48993   0.98691   0.62808   0.00000  Uiso   1.00
H356   H     0.57620   0.19664   0.74267   0.00000  Uiso   1.00
H357   H     0.91133   0.18715   0.34447   0.00000  Uiso   1.00
H358   H     0.38301   0.82197   0.64047   0.00000  Uiso   1.00
H359   H     0.56492   0.26424   0.88212   0.00000  Uiso   1.00
O360   O     0.07798   0.11621   0.27012   0.00000  Uiso   1.00
O361   O     0.38484   0.63711   0.65846   0.00000  Uiso   1.00
O362   O     0.62350   0.21736   0.97550   0.00000  Uiso   1.00
N363   N     0.00879   0.02575   0.38154   0.00000  Uiso   1.00
N364   N     0.51486   0.68433   0.65826   0.00000  Uiso   1.00
N365   N     0.68490   0.09780   0.88420   0.00000  Uiso   1.00
N366   N     0.92733   0.13432   0.36826   0.00000  Uiso   1.00
N367   N     0.43339   0.79289   0.64499   0.00000  Uiso   1.00
N368   N     0.60344   0.20636   0.87092   0.00000  Uiso   1.00
