data_job_00889
_audit_creation_date              2018-12-19
_audit_creation_method            'Materials Studio'
_symmetry_space_group_name_H-M    'P1'
_symmetry_Int_Tables_number       1
_symmetry_cell_setting            triclinic
loop_
_symmetry_equiv_pos_as_xyz
  x,y,z
_cell_length_a                    15.3064
_cell_length_b                    13.2428
_cell_length_c                    12.4687
_cell_angle_alpha                 90.0000
_cell_angle_beta                  90.0000
_cell_angle_gamma                 90.0000
loop_
_atom_site_label
_atom_site_type_symbol
_atom_site_fract_x
_atom_site_fract_y
_atom_site_fract_z
_atom_site_U_iso_or_equiv
_atom_site_adp_type
_atom_site_occupancy
C1     C     0.97506   0.60249   0.71540   0.00000  Uiso   1.00
C2     C     0.94479   0.55399   0.81991   0.00000  Uiso   1.00
C3     C     0.87425   0.58514   0.88150   0.00000  Uiso   1.00
C4     C     0.85723   0.53084   0.97443   0.00000  Uiso   1.00
C5     C     0.80239   0.46810   0.13215   0.00000  Uiso   1.00
C6     C     0.07058   0.63101   0.73249   0.00000  Uiso   1.00
C7     C     0.10579   0.72693   0.72056   0.00000  Uiso   1.00
C8     C     0.19465   0.73746   0.73987   0.00000  Uiso   1.00
C9     C     0.33510   0.79429   0.76179   0.00000  Uiso   1.00
C10    C     0.97507   0.51841   0.63184   0.00000  Uiso   1.00
C11    C     0.93001   0.51967   0.53527   0.00000  Uiso   1.00
C12    C     0.93849   0.43540   0.46984   0.00000  Uiso   1.00
C13    C     0.93066   0.31740   0.33549   0.00000  Uiso   1.00
C14    C     0.07028   0.45063   0.77090   0.00000  Uiso   1.00
C15    C     0.99652   0.47150   0.85006   0.00000  Uiso   1.00
C16    C     0.97960   0.41713   0.94291   0.00000  Uiso   1.00
C17    C     0.90904   0.44820   0.00463   0.00000  Uiso   1.00
C18    C     0.12229   0.54853   0.76263   0.00000  Uiso   1.00
C19    C     0.21113   0.55892   0.78197   0.00000  Uiso   1.00
C20    C     0.24647   0.65483   0.77007   0.00000  Uiso   1.00
C21    C     0.02679   0.43593   0.66199   0.00000  Uiso   1.00
C22    C     0.03535   0.35164   0.59669   0.00000  Uiso   1.00
C23    C     0.99030   0.35276   0.50004   0.00000  Uiso   1.00
H24    H     0.93480   0.66671   0.69193   0.00000  Uiso   1.00
H25    H     0.83425   0.64899   0.85815   0.00000  Uiso   1.00
H26    H     0.06575   0.79075   0.69722   0.00000  Uiso   1.00
H27    H     0.88999   0.58351   0.51197   0.00000  Uiso   1.00
H28    H     0.74559   0.59299   0.05575   0.00000  Uiso   1.00
H29    H     0.23373   0.89189   0.71638   0.00000  Uiso   1.00
H30    H     0.86312   0.45489   0.32574   0.00000  Uiso   1.00
H31    H     0.11055   0.38641   0.79437   0.00000  Uiso   1.00
H32    H     0.01963   0.35330   0.96622   0.00000  Uiso   1.00
H33    H     0.25114   0.49506   0.80529   0.00000  Uiso   1.00
H34    H     0.07538   0.28783   0.62004   0.00000  Uiso   1.00
H35    H     0.89606   0.35300   0.14347   0.00000  Uiso   1.00
H36    H     0.38420   0.65190   0.80409   0.00000  Uiso   1.00
H37    H     0.01359   0.21490   0.41346   0.00000  Uiso   1.00
O38    O     0.75787   0.45629   0.21083   0.00000  Uiso   1.00
O39    O     0.39828   0.84843   0.76556   0.00000  Uiso   1.00
O40    O     0.91205   0.27510   0.25306   0.00000  Uiso   1.00
N41    N     0.79347   0.54103   0.05280   0.00000  Uiso   1.00
N42    N     0.24985   0.82050   0.73553   0.00000  Uiso   1.00
N43    N     0.90337   0.41195   0.37030   0.00000  Uiso   1.00
N44    N     0.87444   0.41190   0.10000   0.00000  Uiso   1.00
N45    N     0.33081   0.69136   0.78273   0.00000  Uiso   1.00
N46    N     0.98434   0.28281   0.41750   0.00000  Uiso   1.00
C47    C     0.52494   0.39751   0.21540   0.00000  Uiso   1.00
C48    C     0.55521   0.44601   0.31991   0.00000  Uiso   1.00
C49    C     0.62575   0.41486   0.38150   0.00000  Uiso   1.00
C50    C     0.64277   0.46916   0.47443   0.00000  Uiso   1.00
C51    C     0.69761   0.53190   0.63215   0.00000  Uiso   1.00
C52    C     0.42942   0.36899   0.23249   0.00000  Uiso   1.00
C53    C     0.39421   0.27307   0.22056   0.00000  Uiso   1.00
C54    C     0.30535   0.26254   0.23987   0.00000  Uiso   1.00
C55    C     0.16490   0.20571   0.26179   0.00000  Uiso   1.00
C56    C     0.52493   0.48159   0.13184   0.00000  Uiso   1.00
C57    C     0.56999   0.48033   0.03527   0.00000  Uiso   1.00
C58    C     0.56151   0.56460   0.96984   0.00000  Uiso   1.00
C59    C     0.56934   0.68260   0.83549   0.00000  Uiso   1.00
C60    C     0.42972   0.54937   0.27090   0.00000  Uiso   1.00
C61    C     0.50348   0.52850   0.35006   0.00000  Uiso   1.00
C62    C     0.52040   0.58287   0.44291   0.00000  Uiso   1.00
C63    C     0.59096   0.55180   0.50463   0.00000  Uiso   1.00
C64    C     0.37771   0.45147   0.26263   0.00000  Uiso   1.00
C65    C     0.28887   0.44108   0.28197   0.00000  Uiso   1.00
C66    C     0.25353   0.34517   0.27007   0.00000  Uiso   1.00
C67    C     0.47321   0.56407   0.16199   0.00000  Uiso   1.00
C68    C     0.46465   0.64836   0.09669   0.00000  Uiso   1.00
C69    C     0.50970   0.64724   0.00004   0.00000  Uiso   1.00
H70    H     0.56520   0.33329   0.19193   0.00000  Uiso   1.00
H71    H     0.66575   0.35101   0.35815   0.00000  Uiso   1.00
H72    H     0.43425   0.20925   0.19722   0.00000  Uiso   1.00
H73    H     0.61001   0.41649   0.01197   0.00000  Uiso   1.00
H74    H     0.75441   0.40701   0.55575   0.00000  Uiso   1.00
H75    H     0.26627   0.10811   0.21638   0.00000  Uiso   1.00
H76    H     0.63688   0.54511   0.82574   0.00000  Uiso   1.00
H77    H     0.38945   0.61359   0.29437   0.00000  Uiso   1.00
H78    H     0.48037   0.64670   0.46622   0.00000  Uiso   1.00
H79    H     0.24886   0.50494   0.30529   0.00000  Uiso   1.00
H80    H     0.42462   0.71217   0.12004   0.00000  Uiso   1.00
H81    H     0.60394   0.64700   0.64347   0.00000  Uiso   1.00
H82    H     0.11580   0.34810   0.30409   0.00000  Uiso   1.00
H83    H     0.48641   0.78510   0.91346   0.00000  Uiso   1.00
O84    O     0.74213   0.54371   0.71083   0.00000  Uiso   1.00
O85    O     0.10172   0.15157   0.26556   0.00000  Uiso   1.00
O86    O     0.58795   0.72490   0.75306   0.00000  Uiso   1.00
N87    N     0.70653   0.45897   0.55280   0.00000  Uiso   1.00
N88    N     0.25015   0.17950   0.23553   0.00000  Uiso   1.00
N89    N     0.59663   0.58805   0.87030   0.00000  Uiso   1.00
N90    N     0.62556   0.58810   0.60000   0.00000  Uiso   1.00
N91    N     0.16919   0.30864   0.28273   0.00000  Uiso   1.00
N92    N     0.51566   0.71719   0.91750   0.00000  Uiso   1.00
C93    C     0.02494   0.10249   0.78460   0.00000  Uiso   1.00
C94    C     0.05521   0.05399   0.68009   0.00000  Uiso   1.00
C95    C     0.12575   0.08514   0.61850   0.00000  Uiso   1.00
C96    C     0.14277   0.03084   0.52557   0.00000  Uiso   1.00
C97    C     0.19761   0.96810   0.36785   0.00000  Uiso   1.00
C98    C     0.92942   0.13101   0.76751   0.00000  Uiso   1.00
C99    C     0.89421   0.22693   0.77944   0.00000  Uiso   1.00
C100   C     0.80535   0.23746   0.76013   0.00000  Uiso   1.00
C101   C     0.66490   0.29429   0.73821   0.00000  Uiso   1.00
C102   C     0.02493   0.01841   0.86816   0.00000  Uiso   1.00
C103   C     0.06999   0.01967   0.96473   0.00000  Uiso   1.00
C104   C     0.06151   0.93540   0.03016   0.00000  Uiso   1.00
C105   C     0.06934   0.81740   0.16451   0.00000  Uiso   1.00
C106   C     0.92972   0.95063   0.72910   0.00000  Uiso   1.00
C107   C     0.00348   0.97150   0.64994   0.00000  Uiso   1.00
C108   C     0.02040   0.91713   0.55709   0.00000  Uiso   1.00
C109   C     0.09096   0.94820   0.49537   0.00000  Uiso   1.00
C110   C     0.87771   0.04853   0.73737   0.00000  Uiso   1.00
C111   C     0.78887   0.05892   0.71803   0.00000  Uiso   1.00
C112   C     0.75353   0.15483   0.72993   0.00000  Uiso   1.00
C113   C     0.97321   0.93593   0.83801   0.00000  Uiso   1.00
C114   C     0.96465   0.85164   0.90331   0.00000  Uiso   1.00
C115   C     0.00970   0.85276   0.99996   0.00000  Uiso   1.00
H116   H     0.06520   0.16671   0.80807   0.00000  Uiso   1.00
H117   H     0.16575   0.14899   0.64185   0.00000  Uiso   1.00
H118   H     0.93425   0.29075   0.80278   0.00000  Uiso   1.00
H119   H     0.11001   0.08351   0.98803   0.00000  Uiso   1.00
H120   H     0.25441   0.09299   0.44425   0.00000  Uiso   1.00
H121   H     0.76627   0.39189   0.78362   0.00000  Uiso   1.00
H122   H     0.13688   0.95489   0.17426   0.00000  Uiso   1.00
H123   H     0.88945   0.88641   0.70563   0.00000  Uiso   1.00
H124   H     0.98037   0.85330   0.53378   0.00000  Uiso   1.00
H125   H     0.74886   0.99506   0.69471   0.00000  Uiso   1.00
H126   H     0.92462   0.78783   0.87996   0.00000  Uiso   1.00
H127   H     0.10394   0.85300   0.35653   0.00000  Uiso   1.00
H128   H     0.61580   0.15190   0.69591   0.00000  Uiso   1.00
H129   H     0.98641   0.71490   0.08654   0.00000  Uiso   1.00
O130   O     0.24213   0.95629   0.28917   0.00000  Uiso   1.00
O131   O     0.60172   0.34843   0.73444   0.00000  Uiso   1.00
O132   O     0.08795   0.77510   0.24694   0.00000  Uiso   1.00
N133   N     0.20653   0.04103   0.44720   0.00000  Uiso   1.00
N134   N     0.75015   0.32050   0.76447   0.00000  Uiso   1.00
N135   N     0.09663   0.91195   0.12970   0.00000  Uiso   1.00
N136   N     0.12556   0.91190   0.40000   0.00000  Uiso   1.00
N137   N     0.66919   0.19136   0.71727   0.00000  Uiso   1.00
N138   N     0.01566   0.78281   0.08250   0.00000  Uiso   1.00
C139   C     0.47506   0.89751   0.28460   0.00000  Uiso   1.00
C140   C     0.44479   0.94601   0.18009   0.00000  Uiso   1.00
C141   C     0.37425   0.91486   0.11850   0.00000  Uiso   1.00
C142   C     0.35723   0.96916   0.02557   0.00000  Uiso   1.00
C143   C     0.30239   0.03190   0.86785   0.00000  Uiso   1.00
C144   C     0.57058   0.86899   0.26751   0.00000  Uiso   1.00
C145   C     0.60579   0.77307   0.27944   0.00000  Uiso   1.00
C146   C     0.69465   0.76254   0.26013   0.00000  Uiso   1.00
C147   C     0.83510   0.70571   0.23821   0.00000  Uiso   1.00
C148   C     0.47507   0.98159   0.36816   0.00000  Uiso   1.00
C149   C     0.43001   0.98033   0.46473   0.00000  Uiso   1.00
C150   C     0.43849   0.06460   0.53016   0.00000  Uiso   1.00
C151   C     0.43066   0.18260   0.66451   0.00000  Uiso   1.00
C152   C     0.57028   0.04937   0.22910   0.00000  Uiso   1.00
C153   C     0.49652   0.02850   0.14994   0.00000  Uiso   1.00
C154   C     0.47960   0.08287   0.05709   0.00000  Uiso   1.00
C155   C     0.40904   0.05180   0.99537   0.00000  Uiso   1.00
C156   C     0.62229   0.95147   0.23737   0.00000  Uiso   1.00
C157   C     0.71113   0.94108   0.21803   0.00000  Uiso   1.00
C158   C     0.74647   0.84517   0.22993   0.00000  Uiso   1.00
C159   C     0.52679   0.06407   0.33801   0.00000  Uiso   1.00
C160   C     0.53535   0.14836   0.40331   0.00000  Uiso   1.00
C161   C     0.49030   0.14724   0.49996   0.00000  Uiso   1.00
H162   H     0.43480   0.83329   0.30807   0.00000  Uiso   1.00
H163   H     0.33425   0.85101   0.14185   0.00000  Uiso   1.00
H164   H     0.56575   0.70925   0.30278   0.00000  Uiso   1.00
H165   H     0.38999   0.91649   0.48803   0.00000  Uiso   1.00
H166   H     0.24559   0.90701   0.94425   0.00000  Uiso   1.00
H167   H     0.73373   0.60811   0.28362   0.00000  Uiso   1.00
H168   H     0.36312   0.04511   0.67426   0.00000  Uiso   1.00
H169   H     0.61055   0.11359   0.20563   0.00000  Uiso   1.00
H170   H     0.51963   0.14670   0.03378   0.00000  Uiso   1.00
H171   H     0.75114   0.00494   0.19471   0.00000  Uiso   1.00
H172   H     0.57538   0.21217   0.37996   0.00000  Uiso   1.00
H173   H     0.39606   0.14700   0.85653   0.00000  Uiso   1.00
H174   H     0.88420   0.84810   0.19591   0.00000  Uiso   1.00
H175   H     0.51359   0.28510   0.58654   0.00000  Uiso   1.00
O176   O     0.25787   0.04371   0.78917   0.00000  Uiso   1.00
O177   O     0.89828   0.65157   0.23444   0.00000  Uiso   1.00
O178   O     0.41205   0.22490   0.74694   0.00000  Uiso   1.00
N179   N     0.29347   0.95897   0.94720   0.00000  Uiso   1.00
N180   N     0.74985   0.67950   0.26447   0.00000  Uiso   1.00
N181   N     0.40337   0.08805   0.62970   0.00000  Uiso   1.00
N182   N     0.37444   0.08810   0.90000   0.00000  Uiso   1.00
N183   N     0.83081   0.80864   0.21727   0.00000  Uiso   1.00
N184   N     0.48434   0.21719   0.58250   0.00000  Uiso   1.00
