data_job_06366
_audit_creation_date              2018-12-19
_audit_creation_method            'Materials Studio'
_symmetry_space_group_name_H-M    'P1'
_symmetry_Int_Tables_number       1
_symmetry_cell_setting            triclinic
loop_
_symmetry_equiv_pos_as_xyz
  x,y,z
_cell_length_a                    9.7638
_cell_length_b                    22.9880
_cell_length_c                    22.9965
_cell_angle_alpha                 61.9580
_cell_angle_beta                  98.1912
_cell_angle_gamma                 81.9690
loop_
_atom_site_label
_atom_site_type_symbol
_atom_site_fract_x
_atom_site_fract_y
_atom_site_fract_z
_atom_site_U_iso_or_equiv
_atom_site_adp_type
_atom_site_occupancy
C1     C     0.27334   0.19812   0.20159   0.00000  Uiso   1.00
C2     C     0.21191   0.14231   0.25066   0.00000  Uiso   1.00
C3     C     0.21793   0.12422   0.31783   0.00000  Uiso   1.00
C4     C     0.15543   0.07182   0.35428   0.00000  Uiso   1.00
C5     C     0.07017   0.99016   0.43500   0.00000  Uiso   1.00
C6     C     0.37495   0.16424   0.17586   0.00000  Uiso   1.00
C7     C     0.51804   0.16460   0.18014   0.00000  Uiso   1.00
C8     C     0.59278   0.13067   0.15362   0.00000  Uiso   1.00
C9     C     0.76061   0.08312   0.11817   0.00000  Uiso   1.00
C10    C     0.14977   0.24608   0.14076   0.00000  Uiso   1.00
C11    C     0.10354   0.31525   0.11551   0.00000  Uiso   1.00
C12    C     0.98871   0.35023   0.05943   0.00000  Uiso   1.00
C13    C     0.80692   0.42974   0.96948   0.00000  Uiso   1.00
C14    C     0.15165   0.13724   0.14688   0.00000  Uiso   1.00
C15    C     0.14582   0.10924   0.22094   0.00000  Uiso   1.00
C16    C     0.08329   0.05686   0.25729   0.00000  Uiso   1.00
C17    C     0.08921   0.03869   0.32451   0.00000  Uiso   1.00
C18    C     0.30886   0.13118   0.14614   0.00000  Uiso   1.00
C19    C     0.38340   0.09725   0.11960   0.00000  Uiso   1.00
C20    C     0.52657   0.09755   0.12384   0.00000  Uiso   1.00
C21    C     0.08367   0.21302   0.11104   0.00000  Uiso   1.00
C22    C     0.96890   0.24790   0.05498   0.00000  Uiso   1.00
C23    C     0.92250   0.31711   0.02966   0.00000  Uiso   1.00
H24    H     0.32480   0.22386   0.22473   0.00000  Uiso   1.00
H25    H     0.26910   0.14981   0.34081   0.00000  Uiso   1.00
H26    H     0.56915   0.19020   0.20314   0.00000  Uiso   1.00
H27    H     0.15472   0.34082   0.13853   0.00000  Uiso   1.00
H28    H     0.17824   0.05312   0.45642   0.00000  Uiso   1.00
H29    H     0.81091   0.13829   0.16610   0.00000  Uiso   1.00
H30    H     0.93699   0.45592   0.02985   0.00000  Uiso   1.00
H31    H     0.10019   0.11150   0.12374   0.00000  Uiso   1.00
H32    H     0.03215   0.03128   0.23428   0.00000  Uiso   1.00
H33    H     0.33221   0.07167   0.09661   0.00000  Uiso   1.00
H34    H     0.91778   0.22229   0.03199   0.00000  Uiso   1.00
H35    H     0.98593   0.95691   0.36995   0.00000  Uiso   1.00
H36    H     0.61861   0.04209   0.07963   0.00000  Uiso   1.00
H37    H     0.74468   0.35971   0.94339   0.00000  Uiso   1.00
O38    O     0.04142   0.95426   0.48773   0.00000  Uiso   1.00
O39    O     0.87146   0.06602   0.10684   0.00000  Uiso   1.00
O40    O     0.72489   0.48273   0.92809   0.00000  Uiso   1.00
N41    N     0.14229   0.04149   0.42089   0.00000  Uiso   1.00
N42    N     0.73381   0.12112   0.14947   0.00000  Uiso   1.00
N43    N     0.91679   0.41807   0.02208   0.00000  Uiso   1.00
N44    N     0.03881   0.98972   0.37437   0.00000  Uiso   1.00
N45    N     0.63033   0.06935   0.10295   0.00000  Uiso   1.00
N46    N     0.81331   0.36631   0.97555   0.00000  Uiso   1.00
C47    C     0.47157   0.60021   0.19823   0.00000  Uiso   1.00
C48    C     0.35439   0.60687   0.14246   0.00000  Uiso   1.00
C49    C     0.34216   0.55778   0.12437   0.00000  Uiso   1.00
C50    C     0.22735   0.57365   0.07201   0.00000  Uiso   1.00
C51    C     0.06049   0.57448   0.99041   0.00000  Uiso   1.00
C52    C     0.53946   0.65989   0.16432   0.00000  Uiso   1.00
C53    C     0.68284   0.65537   0.16462   0.00000  Uiso   1.00
C54    C     0.72382   0.71588   0.13066   0.00000  Uiso   1.00
C55    C     0.84430   0.79901   0.08304   0.00000  Uiso   1.00
C56    C     0.39605   0.61300   0.24623   0.00000  Uiso   1.00
C57    C     0.41885   0.56907   0.31541   0.00000  Uiso   1.00
C58    C     0.33911   0.59010   0.35043   0.00000  Uiso   1.00
C59    C     0.23692   0.60043   0.42999   0.00000  Uiso   1.00
C60    C     0.28943   0.71570   0.13741   0.00000  Uiso   1.00
C61    C     0.25547   0.66961   0.10942   0.00000  Uiso   1.00
C62    C     0.14064   0.68556   0.05707   0.00000  Uiso   1.00
C63    C     0.12824   0.63649   0.03891   0.00000  Uiso   1.00
C64    C     0.44054   0.72262   0.13128   0.00000  Uiso   1.00
C65    C     0.48132   0.78315   0.09732   0.00000  Uiso   1.00
C66    C     0.62471   0.77872   0.09756   0.00000  Uiso   1.00
C67    C     0.29711   0.67573   0.21319   0.00000  Uiso   1.00
C68    C     0.21733   0.69684   0.24811   0.00000  Uiso   1.00
C69    C     0.24000   0.65295   0.31733   0.00000  Uiso   1.00
H70    H     0.54860   0.55137   0.22395   0.00000  Uiso   1.00
H71    H     0.41875   0.50924   0.14995   0.00000  Uiso   1.00
H72    H     0.75937   0.60682   0.19020   0.00000  Uiso   1.00
H73    H     0.49542   0.52053   0.34096   0.00000  Uiso   1.00
H74    H     0.23119   0.49021   0.05331   0.00000  Uiso   1.00
H75    H     0.94941   0.69596   0.13819   0.00000  Uiso   1.00
H76    H     0.39283   0.51399   0.45612   0.00000  Uiso   1.00
H77    H     0.21241   0.76454   0.11168   0.00000  Uiso   1.00
H78    H     0.06410   0.73410   0.03151   0.00000  Uiso   1.00
H79    H     0.40473   0.83168   0.07176   0.00000  Uiso   1.00
H80    H     0.14078   0.74539   0.22253   0.00000  Uiso   1.00
H81    H     0.94335   0.67272   0.95718   0.00000  Uiso   1.00
H82    H     0.66158   0.87846   0.04207   0.00000  Uiso   1.00
H83    H     0.10499   0.69650   0.35999   0.00000  Uiso   1.00
O84    O     0.99580   0.55761   0.95452   0.00000  Uiso   1.00
O85    O     0.93809   0.82754   0.06590   0.00000  Uiso   1.00
O86    O     0.20786   0.58880   0.48300   0.00000  Uiso   1.00
N87    N     0.18378   0.53733   0.04170   0.00000  Uiso   1.00
N88    N     0.85528   0.72969   0.12105   0.00000  Uiso   1.00
N89    N     0.33495   0.55958   0.41828   0.00000  Uiso   1.00
N90    N     0.02890   0.63554   0.98997   0.00000  Uiso   1.00
N91    N     0.70039   0.82790   0.06933   0.00000  Uiso   1.00
N92    N     0.18006   0.65779   0.36656   0.00000  Uiso   1.00
C93    C     0.07295   0.20175   0.60018   0.00000  Uiso   1.00
C94    C     0.96265   0.25077   0.60688   0.00000  Uiso   1.00
C95    C     0.90155   0.31794   0.55780   0.00000  Uiso   1.00
C96    C     0.80277   0.35435   0.57371   0.00000  Uiso   1.00
C97    C     0.63706   0.43501   0.57459   0.00000  Uiso   1.00
C98    C     0.20041   0.17606   0.65982   0.00000  Uiso   1.00
C99    C     0.33922   0.18039   0.65525   0.00000  Uiso   1.00
C100   C     0.44059   0.15390   0.71573   0.00000  Uiso   1.00
C101   C     0.64404   0.11852   0.79880   0.00000  Uiso   1.00
C102   C     0.01006   0.14088   0.61301   0.00000  Uiso   1.00
C103   C     0.98885   0.11563   0.56907   0.00000  Uiso   1.00
C104   C     0.92999   0.05951   0.59014   0.00000  Uiso   1.00
C105   C     0.83788   0.96952   0.60052   0.00000  Uiso   1.00
C106   C     0.00618   0.14698   0.71572   0.00000  Uiso   1.00
C107   C     0.92638   0.22103   0.66964   0.00000  Uiso   1.00
C108   C     0.82767   0.25735   0.68563   0.00000  Uiso   1.00
C109   C     0.76643   0.32455   0.63658   0.00000  Uiso   1.00
C110   C     0.16415   0.14631   0.72258   0.00000  Uiso   1.00
C111   C     0.26534   0.11981   0.78308   0.00000  Uiso   1.00
C112   C     0.40426   0.12410   0.77860   0.00000  Uiso   1.00
C113   C     0.97379   0.11114   0.67576   0.00000  Uiso   1.00
C114   C     0.91496   0.05505   0.69691   0.00000  Uiso   1.00
C115   C     0.89366   0.02972   0.65301   0.00000  Uiso   1.00
H116   H     0.10120   0.22490   0.55132   0.00000  Uiso   1.00
H117   H     0.92965   0.34094   0.50924   0.00000  Uiso   1.00
H118   H     0.36726   0.20341   0.60667   0.00000  Uiso   1.00
H119   H     0.01693   0.13866   0.52051   0.00000  Uiso   1.00
H120   H     0.72350   0.45647   0.49027   0.00000  Uiso   1.00
H121   H     0.64622   0.16647   0.69572   0.00000  Uiso   1.00
H122   H     0.90750   0.02993   0.51403   0.00000  Uiso   1.00
H123   H     0.97795   0.12383   0.76458   0.00000  Uiso   1.00
H124   H     0.79962   0.23432   0.73420   0.00000  Uiso   1.00
H125   H     0.23724   0.09679   0.83164   0.00000  Uiso   1.00
H126   H     0.88691   0.03204   0.74547   0.00000  Uiso   1.00
H127   H     0.61797   0.36994   0.67286   0.00000  Uiso   1.00
H128   H     0.54070   0.07993   0.87831   0.00000  Uiso   1.00
H129   H     0.80197   0.94339   0.69662   0.00000  Uiso   1.00
O130   O     0.55569   0.48772   0.55774   0.00000  Uiso   1.00
O131   O     0.76627   0.10723   0.82728   0.00000  Uiso   1.00
O132   O     0.79708   0.92810   0.58891   0.00000  Uiso   1.00
N133   N     0.72312   0.42094   0.53741   0.00000  Uiso   1.00
N134   N     0.58580   0.14981   0.72949   0.00000  Uiso   1.00
N135   N     0.89520   0.02215   0.55963   0.00000  Uiso   1.00
N136   N     0.66633   0.37438   0.63566   0.00000  Uiso   1.00
N137   N     0.52902   0.10325   0.82774   0.00000  Uiso   1.00
N138   N     0.83841   0.97558   0.65788   0.00000  Uiso   1.00
C139   C     0.57173   0.39973   0.79845   0.00000  Uiso   1.00
C140   C     0.46124   0.39298   0.74939   0.00000  Uiso   1.00
C141   C     0.40007   0.44206   0.68221   0.00000  Uiso   1.00
C142   C     0.30112   0.42611   0.64576   0.00000  Uiso   1.00
C143   C     0.13515   0.42518   0.56504   0.00000  Uiso   1.00
C144   C     0.69907   0.34012   0.82418   0.00000  Uiso   1.00
C145   C     0.83788   0.34476   0.81991   0.00000  Uiso   1.00
C146   C     0.93914   0.28431   0.84642   0.00000  Uiso   1.00
C147   C     0.14243   0.20131   0.88187   0.00000  Uiso   1.00
C148   C     0.50899   0.38686   0.85928   0.00000  Uiso   1.00
C149   C     0.48801   0.43079   0.88453   0.00000  Uiso   1.00
C150   C     0.42927   0.40969   0.94062   0.00000  Uiso   1.00
C151   C     0.33742   0.39925   0.03056   0.00000  Uiso   1.00
C152   C     0.50475   0.28414   0.85316   0.00000  Uiso   1.00
C153   C     0.42486   0.33020   0.77910   0.00000  Uiso   1.00
C154   C     0.32597   0.31417   0.74274   0.00000  Uiso   1.00
C155   C     0.26467   0.36322   0.67553   0.00000  Uiso   1.00
C156   C     0.66270   0.27734   0.85390   0.00000  Uiso   1.00
C157   C     0.76378   0.21687   0.88044   0.00000  Uiso   1.00
C158   C     0.90270   0.22141   0.87620   0.00000  Uiso   1.00
C159   C     0.47261   0.32408   0.88900   0.00000  Uiso   1.00
C160   C     0.41390   0.30290   0.94506   0.00000  Uiso   1.00
C161   C     0.39283   0.34679   0.97039   0.00000  Uiso   1.00
H162   H     0.60006   0.44861   0.77532   0.00000  Uiso   1.00
H163   H     0.42827   0.49064   0.65923   0.00000  Uiso   1.00
H164   H     0.86600   0.39335   0.79691   0.00000  Uiso   1.00
H165   H     0.51618   0.47937   0.86152   0.00000  Uiso   1.00
H166   H     0.22180   0.50954   0.54363   0.00000  Uiso   1.00
H167   H     0.14480   0.30441   0.83395   0.00000  Uiso   1.00
H168   H     0.40713   0.48579   0.97020   0.00000  Uiso   1.00
H169   H     0.47643   0.23526   0.87630   0.00000  Uiso   1.00
H170   H     0.29785   0.26558   0.76575   0.00000  Uiso   1.00
H171   H     0.73559   0.16830   0.90343   0.00000  Uiso   1.00
H172   H     0.38577   0.25431   0.96804   0.00000  Uiso   1.00
H173   H     0.11595   0.32688   0.63008   0.00000  Uiso   1.00
H174   H     0.03896   0.12174   0.92041   0.00000  Uiso   1.00
H175   H     0.30128   0.30313   0.05666   0.00000  Uiso   1.00
O176   O     0.05366   0.44200   0.51230   0.00000  Uiso   1.00
O177   O     0.26461   0.17287   0.89321   0.00000  Uiso   1.00
O178   O     0.29679   0.41085   0.07196   0.00000  Uiso   1.00
N179   N     0.22137   0.46239   0.57915   0.00000  Uiso   1.00
N180   N     0.08432   0.27061   0.85057   0.00000  Uiso   1.00
N181   N     0.39470   0.44018   0.97797   0.00000  Uiso   1.00
N182   N     0.16441   0.36410   0.62567   0.00000  Uiso   1.00
N183   N     0.02737   0.17232   0.89710   0.00000  Uiso   1.00
N184   N     0.33774   0.34189   0.02449   0.00000  Uiso   1.00
C185   C     0.77339   0.79838   0.80179   0.00000  Uiso   1.00
C186   C     0.71199   0.74928   0.85756   0.00000  Uiso   1.00
C187   C     0.71784   0.68210   0.87564   0.00000  Uiso   1.00
C188   C     0.65540   0.64561   0.92800   0.00000  Uiso   1.00
C189   C     0.57015   0.56484   0.00960   0.00000  Uiso   1.00
C190   C     0.87521   0.82415   0.83570   0.00000  Uiso   1.00
C191   C     0.01828   0.81993   0.83540   0.00000  Uiso   1.00
C192   C     0.09322   0.84648   0.86936   0.00000  Uiso   1.00
C193   C     0.26133   0.88199   0.91699   0.00000  Uiso   1.00
C194   C     0.64987   0.85917   0.75379   0.00000  Uiso   1.00
C195   C     0.60349   0.88441   0.68461   0.00000  Uiso   1.00
C196   C     0.48874   0.94046   0.64959   0.00000  Uiso   1.00
C197   C     0.30698   0.03035   0.57003   0.00000  Uiso   1.00
C198   C     0.65209   0.85304   0.86262   0.00000  Uiso   1.00
C199   C     0.64611   0.77897   0.89060   0.00000  Uiso   1.00
C200   C     0.58363   0.74257   0.94294   0.00000  Uiso   1.00
C201   C     0.58939   0.67535   0.96110   0.00000  Uiso   1.00
C202   C     0.80932   0.85384   0.86874   0.00000  Uiso   1.00
C203   C     0.88407   0.88040   0.90271   0.00000  Uiso   1.00
C204   C     0.02721   0.87622   0.90246   0.00000  Uiso   1.00
C205   C     0.58397   0.88886   0.78683   0.00000  Uiso   1.00
C206   C     0.46928   0.94489   0.75191   0.00000  Uiso   1.00
C207   C     0.42273   0.97021   0.68269   0.00000  Uiso   1.00
H208   H     0.82470   0.77526   0.77606   0.00000  Uiso   1.00
H209   H     0.76886   0.65913   0.85006   0.00000  Uiso   1.00
H210   H     0.06923   0.79695   0.80983   0.00000  Uiso   1.00
H211   H     0.65451   0.86142   0.65906   0.00000  Uiso   1.00
H212   H     0.67793   0.54347   0.94670   0.00000  Uiso   1.00
H213   H     0.31128   0.83409   0.86183   0.00000  Uiso   1.00
H214   H     0.43676   0.97004   0.54390   0.00000  Uiso   1.00
H215   H     0.60079   0.87616   0.88834   0.00000  Uiso   1.00
H216   H     0.53265   0.76556   0.96850   0.00000  Uiso   1.00
H217   H     0.83304   0.90338   0.92827   0.00000  Uiso   1.00
H218   H     0.41831   0.96785   0.77750   0.00000  Uiso   1.00
H219   H     0.48623   0.62985   0.04283   0.00000  Uiso   1.00
H220   H     0.11958   0.92047   0.95796   0.00000  Uiso   1.00
H221   H     0.24506   0.05642   0.64003   0.00000  Uiso   1.00
O222   O     0.54134   0.51208   0.04549   0.00000  Uiso   1.00
O223   O     0.37227   0.89337   0.93414   0.00000  Uiso   1.00
O224   O     0.22491   0.07173   0.51702   0.00000  Uiso   1.00
N225   N     0.64214   0.57898   0.95831   0.00000  Uiso   1.00
N226   N     0.23429   0.85068   0.87898   0.00000  Uiso   1.00
N227   N     0.41671   0.97780   0.58173   0.00000  Uiso   1.00
N228   N     0.53898   0.62546   0.01004   0.00000  Uiso   1.00
N229   N     0.13114   0.89716   0.93071   0.00000  Uiso   1.00
N230   N     0.31355   0.02428   0.63346   0.00000  Uiso   1.00
C231   C     0.97274   0.80197   0.39976   0.00000  Uiso   1.00
C232   C     0.85573   0.85770   0.39306   0.00000  Uiso   1.00
C233   C     0.84371   0.87578   0.44214   0.00000  Uiso   1.00
C234   C     0.72903   0.92810   0.42624   0.00000  Uiso   1.00
C235   C     0.56244   0.00964   0.42536   0.00000  Uiso   1.00
C236   C     0.04055   0.83592   0.34012   0.00000  Uiso   1.00
C237   C     0.18393   0.83568   0.34470   0.00000  Uiso   1.00
C238   C     0.22483   0.86966   0.28422   0.00000  Uiso   1.00
C239   C     0.34520   0.91735   0.20115   0.00000  Uiso   1.00
C240   C     0.89701   0.75393   0.38693   0.00000  Uiso   1.00
C241   C     0.91974   0.68475   0.43086   0.00000  Uiso   1.00
C242   C     0.83981   0.64970   0.40979   0.00000  Uiso   1.00
C243   C     0.73732   0.57009   0.39940   0.00000  Uiso   1.00
C244   C     0.79042   0.86274   0.28422   0.00000  Uiso   1.00
C245   C     0.75670   0.89071   0.33030   0.00000  Uiso   1.00
C246   C     0.64200   0.94302   0.31431   0.00000  Uiso   1.00
C247   C     0.62981   0.96117   0.36337   0.00000  Uiso   1.00
C248   C     0.94153   0.86893   0.27736   0.00000  Uiso   1.00
C249   C     0.98222   0.90292   0.21686   0.00000  Uiso   1.00
C250   C     0.12562   0.90274   0.22135   0.00000  Uiso   1.00
C251   C     0.79798   0.78695   0.32417   0.00000  Uiso   1.00
C252   C     0.71801   0.75200   0.30303   0.00000  Uiso   1.00
C253   C     0.74060   0.68277   0.34692   0.00000  Uiso   1.00
H254   H     0.04985   0.77627   0.44862   0.00000  Uiso   1.00
H255   H     0.92038   0.85022   0.49071   0.00000  Uiso   1.00
H256   H     0.26054   0.81012   0.39327   0.00000  Uiso   1.00
H257   H     0.99638   0.65922   0.47942   0.00000  Uiso   1.00
H258   H     0.73320   0.94679   0.50968   0.00000  Uiso   1.00
H259   H     0.45047   0.86222   0.30423   0.00000  Uiso   1.00
H260   H     0.89343   0.54401   0.48590   0.00000  Uiso   1.00
H261   H     0.71332   0.88845   0.23536   0.00000  Uiso   1.00
H262   H     0.56538   0.96856   0.26574   0.00000  Uiso   1.00
H263   H     0.90555   0.92846   0.16830   0.00000  Uiso   1.00
H264   H     0.64139   0.77756   0.25446   0.00000  Uiso   1.00
H265   H     0.44508   0.04284   0.32708   0.00000  Uiso   1.00
H266   H     0.16235   0.95827   0.12164   0.00000  Uiso   1.00
H267   H     0.60531   0.64006   0.30331   0.00000  Uiso   1.00
O268   O     0.49792   0.04550   0.44221   0.00000  Uiso   1.00
O269   O     0.43895   0.93454   0.17267   0.00000  Uiso   1.00
O270   O     0.70813   0.51706   0.41102   0.00000  Uiso   1.00
N271   N     0.68568   0.95839   0.46254   0.00000  Uiso   1.00
N272   N     0.35628   0.87933   0.27046   0.00000  Uiso   1.00
N273   N     0.83552   0.58183   0.44030   0.00000  Uiso   1.00
N274   N     0.53064   0.01007   0.36429   0.00000  Uiso   1.00
N275   N     0.20124   0.93102   0.17221   0.00000  Uiso   1.00
N276   N     0.68048   0.63351   0.34205   0.00000  Uiso   1.00
