data_job_04934
_audit_creation_date              2018-12-19
_audit_creation_method            'Materials Studio'
_symmetry_space_group_name_H-M    'P1'
_symmetry_Int_Tables_number       1
_symmetry_cell_setting            triclinic
loop_
_symmetry_equiv_pos_as_xyz
  x,y,z
_cell_length_a                    15.9347
_cell_length_b                    26.7425
_cell_length_c                    27.9506
_cell_angle_alpha                 90.0000
_cell_angle_beta                  132.6484
_cell_angle_gamma                 90.0000
loop_
_atom_site_label
_atom_site_type_symbol
_atom_site_fract_x
_atom_site_fract_y
_atom_site_fract_z
_atom_site_U_iso_or_equiv
_atom_site_adp_type
_atom_site_occupancy
C1     C     0.70370   0.38128   0.68699   0.00000  Uiso   1.00
C2     C     0.59892   0.35504   0.62613   0.00000  Uiso   1.00
C3     C     0.51345   0.33222   0.61966   0.00000  Uiso   1.00
C4     C     0.42475   0.31026   0.56005   0.00000  Uiso   1.00
C5     C     0.26254   0.26936   0.47336   0.00000  Uiso   1.00
C6     C     0.80671   0.35566   0.70420   0.00000  Uiso   1.00
C7     C     0.89596   0.33336   0.76337   0.00000  Uiso   1.00
C8     C     0.98219   0.31193   0.76948   0.00000  Uiso   1.00
C9     C     0.14263   0.27202   0.80402   0.00000  Uiso   1.00
C10    C     0.70168   0.43423   0.66598   0.00000  Uiso   1.00
C11    C     0.70265   0.47801   0.69302   0.00000  Uiso   1.00
C12    C     0.70048   0.52273   0.66697   0.00000  Uiso   1.00
C13    C     0.69784   0.60482   0.64216   0.00000  Uiso   1.00
C14    C     0.69816   0.38287   0.59265   0.00000  Uiso   1.00
C15    C     0.59591   0.35590   0.57489   0.00000  Uiso   1.00
C16    C     0.50731   0.33397   0.51528   0.00000  Uiso   1.00
C17    C     0.42173   0.31112   0.50871   0.00000  Uiso   1.00
C18    C     0.80370   0.35652   0.65296   0.00000  Uiso   1.00
C19    C     0.88983   0.33511   0.65899   0.00000  Uiso   1.00
C20    C     0.97918   0.31279   0.71815   0.00000  Uiso   1.00
C21    C     0.69867   0.43509   0.61474   0.00000  Uiso   1.00
C22    C     0.69651   0.47976   0.58864   0.00000  Uiso   1.00
C23    C     0.69747   0.52359   0.61563   0.00000  Uiso   1.00
H24    H     0.70605   0.38061   0.72689   0.00000  Uiso   1.00
H25    H     0.51582   0.33156   0.65933   0.00000  Uiso   1.00
H26    H     0.89827   0.33271   0.80302   0.00000  Uiso   1.00
H27    H     0.70498   0.47733   0.73268   0.00000  Uiso   1.00
H28    H     0.30360   0.27754   0.56184   0.00000  Uiso   1.00
H29    H     0.11005   0.27997   0.86482   0.00000  Uiso   1.00
H30    H     0.70246   0.58493   0.71650   0.00000  Uiso   1.00
H31    H     0.69581   0.38354   0.55275   0.00000  Uiso   1.00
H32    H     0.50501   0.33464   0.47563   0.00000  Uiso   1.00
H33    H     0.88747   0.33579   0.61932   0.00000  Uiso   1.00
H34    H     0.69418   0.48041   0.54898   0.00000  Uiso   1.00
H35    H     0.29483   0.28003   0.41274   0.00000  Uiso   1.00
H36    H     0.10129   0.28247   0.71573   0.00000  Uiso   1.00
H37    H     0.69369   0.58743   0.56740   0.00000  Uiso   1.00
O38    O     0.17390   0.24655   0.43971   0.00000  Uiso   1.00
O39    O     0.23195   0.24976   0.83722   0.00000  Uiso   1.00
O40    O     0.69719   0.64986   0.64262   0.00000  Uiso   1.00
N41    N     0.32771   0.28484   0.53733   0.00000  Uiso   1.00
N42    N     0.08169   0.28711   0.82060   0.00000  Uiso   1.00
N43    N     0.70066   0.57223   0.68194   0.00000  Uiso   1.00
N44    N     0.32299   0.28619   0.45710   0.00000  Uiso   1.00
N45    N     0.07697   0.28846   0.74037   0.00000  Uiso   1.00
N46    N     0.69594   0.57357   0.60171   0.00000  Uiso   1.00
C47    C     0.32940   0.87256   0.18051   0.00000  Uiso   1.00
C48    C     0.22120   0.85004   0.11741   0.00000  Uiso   1.00
C49    C     0.13317   0.82801   0.10906   0.00000  Uiso   1.00
C50    C     0.04155   0.80962   0.04756   0.00000  Uiso   1.00
C51    C     0.87409   0.77410   0.95739   0.00000  Uiso   1.00
C52    C     0.42873   0.84563   0.19483   0.00000  Uiso   1.00
C53    C     0.51518   0.81991   0.25158   0.00000  Uiso   1.00
C54    C     0.59825   0.79782   0.25525   0.00000  Uiso   1.00
C55    C     0.75302   0.75549   0.28529   0.00000  Uiso   1.00
C56    C     0.33404   0.92646   0.16462   0.00000  Uiso   1.00
C57    C     0.34091   0.96870   0.19597   0.00000  Uiso   1.00
C58    C     0.34429   0.01466   0.17422   0.00000  Uiso   1.00
C59    C     0.35204   0.09782   0.15735   0.00000  Uiso   1.00
C60    C     0.32323   0.87908   0.08613   0.00000  Uiso   1.00
C61    C     0.21786   0.85358   0.06615   0.00000  Uiso   1.00
C62    C     0.12634   0.83522   0.00464   0.00000  Uiso   1.00
C63    C     0.03818   0.81317   0.99620   0.00000  Uiso   1.00
C64    C     0.42538   0.84917   0.14356   0.00000  Uiso   1.00
C65    C     0.50835   0.82712   0.14715   0.00000  Uiso   1.00
C66    C     0.59490   0.80137   0.20389   0.00000  Uiso   1.00
C67    C     0.33068   0.93000   0.11335   0.00000  Uiso   1.00
C68    C     0.33407   0.97591   0.09155   0.00000  Uiso   1.00
C69    C     0.34093   0.01821   0.12286   0.00000  Uiso   1.00
H70    H     0.33201   0.86980   0.22042   0.00000  Uiso   1.00
H71    H     0.13580   0.82527   0.14875   0.00000  Uiso   1.00
H72    H     0.51775   0.81718   0.29124   0.00000  Uiso   1.00
H73    H     0.34350   0.96594   0.23564   0.00000  Uiso   1.00
H74    H     0.91680   0.77745   0.04668   0.00000  Uiso   1.00
H75    H     0.72219   0.76041   0.34715   0.00000  Uiso   1.00
H76    H     0.35475   0.07410   0.22991   0.00000  Uiso   1.00
H77    H     0.32062   0.88183   0.04622   0.00000  Uiso   1.00
H78    H     0.12377   0.83797   0.96498   0.00000  Uiso   1.00
H79    H     0.50573   0.82988   0.10747   0.00000  Uiso   1.00
H80    H     0.33147   0.97863   0.05188   0.00000  Uiso   1.00
H81    H     0.90704   0.78776   0.89753   0.00000  Uiso   1.00
H82    H     0.71244   0.77071   0.19800   0.00000  Uiso   1.00
H83    H     0.34499   0.08440   0.08076   0.00000  Uiso   1.00
O84    O     0.78266   0.75352   0.92182   0.00000  Uiso   1.00
O85    O     0.83931   0.73116   0.31602   0.00000  Uiso   1.00
O86    O     0.35722   0.14271   0.16221   0.00000  Uiso   1.00
N87    N     0.94151   0.78591   0.02273   0.00000  Uiso   1.00
N88    N     0.69449   0.76996   0.30364   0.00000  Uiso   1.00
N89    N     0.35099   0.06323   0.19404   0.00000  Uiso   1.00
N90    N     0.93626   0.79145   0.94247   0.00000  Uiso   1.00
N91    N     0.68924   0.77551   0.22338   0.00000  Uiso   1.00
N92    N     0.34574   0.06878   0.11378   0.00000  Uiso   1.00
C93    C     0.29630   0.88128   0.81301   0.00000  Uiso   1.00
C94    C     0.40108   0.85504   0.87387   0.00000  Uiso   1.00
C95    C     0.48655   0.83222   0.88034   0.00000  Uiso   1.00
C96    C     0.57525   0.81026   0.93995   0.00000  Uiso   1.00
C97    C     0.73746   0.76936   0.02664   0.00000  Uiso   1.00
C98    C     0.19329   0.85566   0.79580   0.00000  Uiso   1.00
C99    C     0.10404   0.83336   0.73663   0.00000  Uiso   1.00
C100   C     0.01781   0.81193   0.73052   0.00000  Uiso   1.00
C101   C     0.85737   0.77202   0.69598   0.00000  Uiso   1.00
C102   C     0.29832   0.93423   0.83402   0.00000  Uiso   1.00
C103   C     0.29735   0.97801   0.80698   0.00000  Uiso   1.00
C104   C     0.29952   0.02273   0.83303   0.00000  Uiso   1.00
C105   C     0.30216   0.10482   0.85784   0.00000  Uiso   1.00
C106   C     0.30184   0.88287   0.90735   0.00000  Uiso   1.00
C107   C     0.40409   0.85590   0.92511   0.00000  Uiso   1.00
C108   C     0.49269   0.83397   0.98472   0.00000  Uiso   1.00
C109   C     0.57827   0.81112   0.99129   0.00000  Uiso   1.00
C110   C     0.19630   0.85652   0.84704   0.00000  Uiso   1.00
C111   C     0.11017   0.83511   0.84101   0.00000  Uiso   1.00
C112   C     0.02082   0.81279   0.78185   0.00000  Uiso   1.00
C113   C     0.30133   0.93509   0.88526   0.00000  Uiso   1.00
C114   C     0.30349   0.97976   0.91136   0.00000  Uiso   1.00
C115   C     0.30253   0.02359   0.88437   0.00000  Uiso   1.00
H116   H     0.29395   0.88061   0.77311   0.00000  Uiso   1.00
H117   H     0.48418   0.83156   0.84067   0.00000  Uiso   1.00
H118   H     0.10173   0.83271   0.69698   0.00000  Uiso   1.00
H119   H     0.29502   0.97733   0.76732   0.00000  Uiso   1.00
H120   H     0.69640   0.77754   0.93816   0.00000  Uiso   1.00
H121   H     0.88995   0.77997   0.63518   0.00000  Uiso   1.00
H122   H     0.29754   0.08493   0.78350   0.00000  Uiso   1.00
H123   H     0.30419   0.88354   0.94725   0.00000  Uiso   1.00
H124   H     0.49499   0.83464   0.02437   0.00000  Uiso   1.00
H125   H     0.11253   0.83579   0.88068   0.00000  Uiso   1.00
H126   H     0.30582   0.98041   0.95102   0.00000  Uiso   1.00
H127   H     0.70517   0.78003   0.08726   0.00000  Uiso   1.00
H128   H     0.89871   0.78247   0.78427   0.00000  Uiso   1.00
H129   H     0.30631   0.08743   0.93260   0.00000  Uiso   1.00
O130   O     0.82610   0.74655   0.06029   0.00000  Uiso   1.00
O131   O     0.76805   0.74976   0.66278   0.00000  Uiso   1.00
O132   O     0.30281   0.14986   0.85738   0.00000  Uiso   1.00
N133   N     0.67229   0.78484   0.96267   0.00000  Uiso   1.00
N134   N     0.91831   0.78711   0.67940   0.00000  Uiso   1.00
N135   N     0.29934   0.07223   0.81806   0.00000  Uiso   1.00
N136   N     0.67701   0.78619   0.04290   0.00000  Uiso   1.00
N137   N     0.92303   0.78846   0.75963   0.00000  Uiso   1.00
N138   N     0.30406   0.07357   0.89829   0.00000  Uiso   1.00
C139   C     0.67060   0.37256   0.31949   0.00000  Uiso   1.00
C140   C     0.77880   0.35004   0.38259   0.00000  Uiso   1.00
C141   C     0.86683   0.32801   0.39094   0.00000  Uiso   1.00
C142   C     0.95845   0.30962   0.45244   0.00000  Uiso   1.00
C143   C     0.12591   0.27410   0.54261   0.00000  Uiso   1.00
C144   C     0.57127   0.34563   0.30517   0.00000  Uiso   1.00
C145   C     0.48482   0.31991   0.24842   0.00000  Uiso   1.00
C146   C     0.40175   0.29782   0.24475   0.00000  Uiso   1.00
C147   C     0.24698   0.25549   0.21471   0.00000  Uiso   1.00
C148   C     0.66596   0.42646   0.33538   0.00000  Uiso   1.00
C149   C     0.65909   0.46870   0.30403   0.00000  Uiso   1.00
C150   C     0.65571   0.51466   0.32578   0.00000  Uiso   1.00
C151   C     0.64796   0.59782   0.34265   0.00000  Uiso   1.00
C152   C     0.67677   0.37908   0.41387   0.00000  Uiso   1.00
C153   C     0.78214   0.35358   0.43385   0.00000  Uiso   1.00
C154   C     0.87366   0.33522   0.49536   0.00000  Uiso   1.00
C155   C     0.96182   0.31317   0.50380   0.00000  Uiso   1.00
C156   C     0.57462   0.34917   0.35644   0.00000  Uiso   1.00
C157   C     0.49165   0.32712   0.35285   0.00000  Uiso   1.00
C158   C     0.40510   0.30137   0.29611   0.00000  Uiso   1.00
C159   C     0.66932   0.43000   0.38665   0.00000  Uiso   1.00
C160   C     0.66593   0.47591   0.40845   0.00000  Uiso   1.00
C161   C     0.65907   0.51821   0.37714   0.00000  Uiso   1.00
H162   H     0.66799   0.36980   0.27958   0.00000  Uiso   1.00
H163   H     0.86420   0.32527   0.35125   0.00000  Uiso   1.00
H164   H     0.48225   0.31718   0.20876   0.00000  Uiso   1.00
H165   H     0.65650   0.46594   0.26436   0.00000  Uiso   1.00
H166   H     0.08320   0.27745   0.45332   0.00000  Uiso   1.00
H167   H     0.27781   0.26041   0.15285   0.00000  Uiso   1.00
H168   H     0.64525   0.57410   0.27009   0.00000  Uiso   1.00
H169   H     0.67938   0.38183   0.45378   0.00000  Uiso   1.00
H170   H     0.87623   0.33797   0.53502   0.00000  Uiso   1.00
H171   H     0.49427   0.32988   0.39253   0.00000  Uiso   1.00
H172   H     0.66853   0.47863   0.44812   0.00000  Uiso   1.00
H173   H     0.09296   0.28776   0.60247   0.00000  Uiso   1.00
H174   H     0.28756   0.27071   0.30200   0.00000  Uiso   1.00
H175   H     0.65501   0.58440   0.41924   0.00000  Uiso   1.00
O176   O     0.21734   0.25352   0.57818   0.00000  Uiso   1.00
O177   O     0.16069   0.23116   0.18398   0.00000  Uiso   1.00
O178   O     0.64278   0.64271   0.33779   0.00000  Uiso   1.00
N179   N     0.05849   0.28591   0.47727   0.00000  Uiso   1.00
N180   N     0.30551   0.26996   0.19636   0.00000  Uiso   1.00
N181   N     0.64901   0.56323   0.30596   0.00000  Uiso   1.00
N182   N     0.06374   0.29145   0.55753   0.00000  Uiso   1.00
N183   N     0.31076   0.27551   0.27662   0.00000  Uiso   1.00
N184   N     0.65426   0.56878   0.38622   0.00000  Uiso   1.00
C185   C     0.29630   0.61872   0.31301   0.00000  Uiso   1.00
C186   C     0.40108   0.64496   0.37387   0.00000  Uiso   1.00
C187   C     0.48655   0.66778   0.38034   0.00000  Uiso   1.00
C188   C     0.57525   0.68974   0.43995   0.00000  Uiso   1.00
C189   C     0.73746   0.73064   0.52664   0.00000  Uiso   1.00
C190   C     0.19329   0.64434   0.29580   0.00000  Uiso   1.00
C191   C     0.10404   0.66664   0.23663   0.00000  Uiso   1.00
C192   C     0.01781   0.68807   0.23052   0.00000  Uiso   1.00
C193   C     0.85737   0.72798   0.19598   0.00000  Uiso   1.00
C194   C     0.29832   0.56577   0.33402   0.00000  Uiso   1.00
C195   C     0.29735   0.52199   0.30698   0.00000  Uiso   1.00
C196   C     0.29952   0.47727   0.33303   0.00000  Uiso   1.00
C197   C     0.30216   0.39518   0.35784   0.00000  Uiso   1.00
C198   C     0.30184   0.61713   0.40735   0.00000  Uiso   1.00
C199   C     0.40409   0.64410   0.42511   0.00000  Uiso   1.00
C200   C     0.49269   0.66603   0.48472   0.00000  Uiso   1.00
C201   C     0.57827   0.68888   0.49129   0.00000  Uiso   1.00
C202   C     0.19630   0.64348   0.34704   0.00000  Uiso   1.00
C203   C     0.11017   0.66489   0.34101   0.00000  Uiso   1.00
C204   C     0.02082   0.68721   0.28185   0.00000  Uiso   1.00
C205   C     0.30133   0.56491   0.38526   0.00000  Uiso   1.00
C206   C     0.30349   0.52024   0.41136   0.00000  Uiso   1.00
C207   C     0.30253   0.47641   0.38437   0.00000  Uiso   1.00
H208   H     0.29395   0.61939   0.27311   0.00000  Uiso   1.00
H209   H     0.48418   0.66844   0.34067   0.00000  Uiso   1.00
H210   H     0.10173   0.66729   0.19698   0.00000  Uiso   1.00
H211   H     0.29502   0.52267   0.26732   0.00000  Uiso   1.00
H212   H     0.69640   0.72246   0.43816   0.00000  Uiso   1.00
H213   H     0.88995   0.72003   0.13518   0.00000  Uiso   1.00
H214   H     0.29754   0.41507   0.28350   0.00000  Uiso   1.00
H215   H     0.30419   0.61646   0.44725   0.00000  Uiso   1.00
H216   H     0.49499   0.66536   0.52437   0.00000  Uiso   1.00
H217   H     0.11253   0.66421   0.38068   0.00000  Uiso   1.00
H218   H     0.30582   0.51959   0.45102   0.00000  Uiso   1.00
H219   H     0.70517   0.71997   0.58726   0.00000  Uiso   1.00
H220   H     0.89871   0.71753   0.28427   0.00000  Uiso   1.00
H221   H     0.30631   0.41257   0.43260   0.00000  Uiso   1.00
O222   O     0.82610   0.75345   0.56029   0.00000  Uiso   1.00
O223   O     0.76805   0.75024   0.16278   0.00000  Uiso   1.00
O224   O     0.30281   0.35014   0.35738   0.00000  Uiso   1.00
N225   N     0.67229   0.71516   0.46267   0.00000  Uiso   1.00
N226   N     0.91831   0.71289   0.17940   0.00000  Uiso   1.00
N227   N     0.29934   0.42777   0.31806   0.00000  Uiso   1.00
N228   N     0.67701   0.71381   0.54290   0.00000  Uiso   1.00
N229   N     0.92303   0.71154   0.25963   0.00000  Uiso   1.00
N230   N     0.30406   0.42643   0.39829   0.00000  Uiso   1.00
C231   C     0.67060   0.12744   0.81949   0.00000  Uiso   1.00
C232   C     0.77880   0.14996   0.88259   0.00000  Uiso   1.00
C233   C     0.86683   0.17199   0.89094   0.00000  Uiso   1.00
C234   C     0.95845   0.19038   0.95244   0.00000  Uiso   1.00
C235   C     0.12591   0.22590   0.04261   0.00000  Uiso   1.00
C236   C     0.57127   0.15437   0.80517   0.00000  Uiso   1.00
C237   C     0.48482   0.18009   0.74842   0.00000  Uiso   1.00
C238   C     0.40175   0.20218   0.74475   0.00000  Uiso   1.00
C239   C     0.24698   0.24451   0.71471   0.00000  Uiso   1.00
C240   C     0.66596   0.07354   0.83538   0.00000  Uiso   1.00
C241   C     0.65909   0.03130   0.80403   0.00000  Uiso   1.00
C242   C     0.65571   0.98534   0.82578   0.00000  Uiso   1.00
C243   C     0.64796   0.90218   0.84265   0.00000  Uiso   1.00
C244   C     0.67677   0.12092   0.91387   0.00000  Uiso   1.00
C245   C     0.78214   0.14642   0.93385   0.00000  Uiso   1.00
C246   C     0.87366   0.16478   0.99536   0.00000  Uiso   1.00
C247   C     0.96182   0.18683   0.00380   0.00000  Uiso   1.00
C248   C     0.57462   0.15083   0.85644   0.00000  Uiso   1.00
C249   C     0.49165   0.17288   0.85285   0.00000  Uiso   1.00
C250   C     0.40510   0.19863   0.79611   0.00000  Uiso   1.00
C251   C     0.66932   0.07000   0.88665   0.00000  Uiso   1.00
C252   C     0.66593   0.02409   0.90845   0.00000  Uiso   1.00
C253   C     0.65907   0.98179   0.87714   0.00000  Uiso   1.00
H254   H     0.66799   0.13020   0.77958   0.00000  Uiso   1.00
H255   H     0.86420   0.17473   0.85125   0.00000  Uiso   1.00
H256   H     0.48225   0.18282   0.70876   0.00000  Uiso   1.00
H257   H     0.65650   0.03406   0.76436   0.00000  Uiso   1.00
H258   H     0.08320   0.22255   0.95332   0.00000  Uiso   1.00
H259   H     0.27781   0.23959   0.65285   0.00000  Uiso   1.00
H260   H     0.64525   0.92590   0.77009   0.00000  Uiso   1.00
H261   H     0.67938   0.11817   0.95378   0.00000  Uiso   1.00
H262   H     0.87623   0.16203   0.03502   0.00000  Uiso   1.00
H263   H     0.49427   0.17012   0.89253   0.00000  Uiso   1.00
H264   H     0.66853   0.02137   0.94812   0.00000  Uiso   1.00
H265   H     0.09296   0.21224   0.10247   0.00000  Uiso   1.00
H266   H     0.28756   0.22929   0.80200   0.00000  Uiso   1.00
H267   H     0.65501   0.91560   0.91924   0.00000  Uiso   1.00
O268   O     0.21734   0.24648   0.07818   0.00000  Uiso   1.00
O269   O     0.16069   0.26884   0.68398   0.00000  Uiso   1.00
O270   O     0.64278   0.85729   0.83779   0.00000  Uiso   1.00
N271   N     0.05849   0.21409   0.97727   0.00000  Uiso   1.00
N272   N     0.30551   0.23004   0.69636   0.00000  Uiso   1.00
N273   N     0.64901   0.93677   0.80596   0.00000  Uiso   1.00
N274   N     0.06374   0.20855   0.05753   0.00000  Uiso   1.00
N275   N     0.31076   0.22449   0.77662   0.00000  Uiso   1.00
N276   N     0.65426   0.93122   0.88622   0.00000  Uiso   1.00
C277   C     0.70370   0.11872   0.18699   0.00000  Uiso   1.00
C278   C     0.59892   0.14496   0.12613   0.00000  Uiso   1.00
C279   C     0.51345   0.16778   0.11966   0.00000  Uiso   1.00
C280   C     0.42475   0.18974   0.06005   0.00000  Uiso   1.00
C281   C     0.26254   0.23064   0.97336   0.00000  Uiso   1.00
C282   C     0.80671   0.14434   0.20420   0.00000  Uiso   1.00
C283   C     0.89596   0.16664   0.26337   0.00000  Uiso   1.00
C284   C     0.98219   0.18807   0.26948   0.00000  Uiso   1.00
C285   C     0.14263   0.22798   0.30402   0.00000  Uiso   1.00
C286   C     0.70168   0.06577   0.16598   0.00000  Uiso   1.00
C287   C     0.70265   0.02199   0.19302   0.00000  Uiso   1.00
C288   C     0.70048   0.97727   0.16697   0.00000  Uiso   1.00
C289   C     0.69784   0.89518   0.14216   0.00000  Uiso   1.00
C290   C     0.69816   0.11713   0.09265   0.00000  Uiso   1.00
C291   C     0.59591   0.14410   0.07489   0.00000  Uiso   1.00
C292   C     0.50731   0.16603   0.01528   0.00000  Uiso   1.00
C293   C     0.42173   0.18888   0.00871   0.00000  Uiso   1.00
C294   C     0.80370   0.14348   0.15296   0.00000  Uiso   1.00
C295   C     0.88983   0.16489   0.15899   0.00000  Uiso   1.00
C296   C     0.97918   0.18721   0.21815   0.00000  Uiso   1.00
C297   C     0.69867   0.06491   0.11474   0.00000  Uiso   1.00
C298   C     0.69651   0.02024   0.08864   0.00000  Uiso   1.00
C299   C     0.69747   0.97641   0.11563   0.00000  Uiso   1.00
H300   H     0.70605   0.11939   0.22689   0.00000  Uiso   1.00
H301   H     0.51582   0.16844   0.15933   0.00000  Uiso   1.00
H302   H     0.89827   0.16729   0.30302   0.00000  Uiso   1.00
H303   H     0.70498   0.02267   0.23268   0.00000  Uiso   1.00
H304   H     0.30360   0.22246   0.06184   0.00000  Uiso   1.00
H305   H     0.11005   0.22003   0.36482   0.00000  Uiso   1.00
H306   H     0.70246   0.91507   0.21650   0.00000  Uiso   1.00
H307   H     0.69581   0.11646   0.05275   0.00000  Uiso   1.00
H308   H     0.50501   0.16536   0.97563   0.00000  Uiso   1.00
H309   H     0.88747   0.16421   0.11932   0.00000  Uiso   1.00
H310   H     0.69418   0.01959   0.04898   0.00000  Uiso   1.00
H311   H     0.29483   0.21997   0.91274   0.00000  Uiso   1.00
H312   H     0.10129   0.21753   0.21573   0.00000  Uiso   1.00
H313   H     0.69369   0.91257   0.06740   0.00000  Uiso   1.00
O314   O     0.17390   0.25345   0.93971   0.00000  Uiso   1.00
O315   O     0.23195   0.25024   0.33722   0.00000  Uiso   1.00
O316   O     0.69719   0.85014   0.14262   0.00000  Uiso   1.00
N317   N     0.32771   0.21516   0.03733   0.00000  Uiso   1.00
N318   N     0.08169   0.21289   0.32060   0.00000  Uiso   1.00
N319   N     0.70066   0.92777   0.18194   0.00000  Uiso   1.00
N320   N     0.32299   0.21381   0.95710   0.00000  Uiso   1.00
N321   N     0.07697   0.21154   0.24037   0.00000  Uiso   1.00
N322   N     0.69594   0.92643   0.10171   0.00000  Uiso   1.00
C323   C     0.32940   0.62744   0.68051   0.00000  Uiso   1.00
C324   C     0.22120   0.64996   0.61741   0.00000  Uiso   1.00
C325   C     0.13317   0.67199   0.60906   0.00000  Uiso   1.00
C326   C     0.04155   0.69038   0.54756   0.00000  Uiso   1.00
C327   C     0.87409   0.72590   0.45739   0.00000  Uiso   1.00
C328   C     0.42873   0.65437   0.69483   0.00000  Uiso   1.00
C329   C     0.51518   0.68009   0.75158   0.00000  Uiso   1.00
C330   C     0.59825   0.70218   0.75525   0.00000  Uiso   1.00
C331   C     0.75302   0.74451   0.78529   0.00000  Uiso   1.00
C332   C     0.33404   0.57354   0.66462   0.00000  Uiso   1.00
C333   C     0.34091   0.53130   0.69597   0.00000  Uiso   1.00
C334   C     0.34429   0.48534   0.67422   0.00000  Uiso   1.00
C335   C     0.35204   0.40218   0.65735   0.00000  Uiso   1.00
C336   C     0.32323   0.62092   0.58613   0.00000  Uiso   1.00
C337   C     0.21786   0.64642   0.56615   0.00000  Uiso   1.00
C338   C     0.12634   0.66478   0.50464   0.00000  Uiso   1.00
C339   C     0.03818   0.68683   0.49620   0.00000  Uiso   1.00
C340   C     0.42538   0.65083   0.64356   0.00000  Uiso   1.00
C341   C     0.50835   0.67288   0.64715   0.00000  Uiso   1.00
C342   C     0.59490   0.69863   0.70389   0.00000  Uiso   1.00
C343   C     0.33068   0.57000   0.61335   0.00000  Uiso   1.00
C344   C     0.33407   0.52409   0.59155   0.00000  Uiso   1.00
C345   C     0.34093   0.48179   0.62286   0.00000  Uiso   1.00
H346   H     0.33201   0.63020   0.72042   0.00000  Uiso   1.00
H347   H     0.13580   0.67473   0.64875   0.00000  Uiso   1.00
H348   H     0.51775   0.68282   0.79124   0.00000  Uiso   1.00
H349   H     0.34350   0.53406   0.73564   0.00000  Uiso   1.00
H350   H     0.91680   0.72255   0.54668   0.00000  Uiso   1.00
H351   H     0.72219   0.73959   0.84715   0.00000  Uiso   1.00
H352   H     0.35475   0.42590   0.72991   0.00000  Uiso   1.00
H353   H     0.32062   0.61817   0.54622   0.00000  Uiso   1.00
H354   H     0.12377   0.66203   0.46498   0.00000  Uiso   1.00
H355   H     0.50573   0.67012   0.60747   0.00000  Uiso   1.00
H356   H     0.33147   0.52137   0.55188   0.00000  Uiso   1.00
H357   H     0.90704   0.71224   0.39753   0.00000  Uiso   1.00
H358   H     0.71244   0.72929   0.69800   0.00000  Uiso   1.00
H359   H     0.34499   0.41560   0.58076   0.00000  Uiso   1.00
O360   O     0.78266   0.74648   0.42182   0.00000  Uiso   1.00
O361   O     0.83931   0.76884   0.81602   0.00000  Uiso   1.00
O362   O     0.35722   0.35729   0.66221   0.00000  Uiso   1.00
N363   N     0.94151   0.71409   0.52273   0.00000  Uiso   1.00
N364   N     0.69449   0.73004   0.80364   0.00000  Uiso   1.00
N365   N     0.35099   0.43677   0.69404   0.00000  Uiso   1.00
N366   N     0.93626   0.70855   0.44247   0.00000  Uiso   1.00
N367   N     0.68924   0.72449   0.72338   0.00000  Uiso   1.00
N368   N     0.34574   0.43122   0.61378   0.00000  Uiso   1.00
