data_job_02816
_audit_creation_date              2018-12-19
_audit_creation_method            'Materials Studio'
_symmetry_space_group_name_H-M    'P1'
_symmetry_Int_Tables_number       1
_symmetry_cell_setting            triclinic
loop_
_symmetry_equiv_pos_as_xyz
  x,y,z
_cell_length_a                    16.1377
_cell_length_b                    18.2884
_cell_length_c                    7.3351
_cell_angle_alpha                 90.0000
_cell_angle_beta                  132.9610
_cell_angle_gamma                 90.0000
loop_
_atom_site_label
_atom_site_type_symbol
_atom_site_fract_x
_atom_site_fract_y
_atom_site_fract_z
_atom_site_U_iso_or_equiv
_atom_site_adp_type
_atom_site_occupancy
C1     C     0.50024   0.24655   0.71749   0.00000  Uiso   1.00
C2     C     0.60336   0.21737   0.97389   0.00000  Uiso   1.00
C3     C     0.69011   0.17613   0.02832   0.00000  Uiso   1.00
C4     C     0.77691   0.15468   0.27438   0.00000  Uiso   1.00
C5     C     0.93701   0.10643   0.64437   0.00000  Uiso   1.00
C6     C     0.39707   0.21736   0.66444   0.00000  Uiso   1.00
C7     C     0.31036   0.17612   0.45868   0.00000  Uiso   1.00
C8     C     0.22349   0.15467   0.44423   0.00000  Uiso   1.00
C9     C     0.06328   0.10644   0.33371   0.00000  Uiso   1.00
C10    C     0.50021   0.32907   0.74726   0.00000  Uiso   1.00
C11    C     0.50019   0.38176   0.61108   0.00000  Uiso   1.00
C12    C     0.50013   0.45437   0.66633   0.00000  Uiso   1.00
C13    C     0.50006   0.57959   0.68439   0.00000  Uiso   1.00
C14    C     0.50014   0.28179   0.05768   0.00000  Uiso   1.00
C15    C     0.60330   0.23651   0.15866   0.00000  Uiso   1.00
C16    C     0.69000   0.21512   0.40471   0.00000  Uiso   1.00
C17    C     0.77686   0.17386   0.45949   0.00000  Uiso   1.00
C18    C     0.39701   0.23649   0.84921   0.00000  Uiso   1.00
C19    C     0.31025   0.21510   0.83506   0.00000  Uiso   1.00
C20    C     0.22344   0.17384   0.62934   0.00000  Uiso   1.00
C21    C     0.50015   0.34821   0.93204   0.00000  Uiso   1.00
C22    C     0.50008   0.42075   0.98749   0.00000  Uiso   1.00
C23    C     0.50007   0.47354   0.85144   0.00000  Uiso   1.00
H24    H     0.50027   0.23165   0.57362   0.00000  Uiso   1.00
H25    H     0.69011   0.16133   0.88526   0.00000  Uiso   1.00
H26    H     0.31042   0.16132   0.31570   0.00000  Uiso   1.00
H27    H     0.50023   0.36693   0.46811   0.00000  Uiso   1.00
H28    H     0.90054   0.09178   0.31225   0.00000  Uiso   1.00
H29    H     0.09992   0.09179   0.11126   0.00000  Uiso   1.00
H30    H     0.50016   0.52536   0.43261   0.00000  Uiso   1.00
H31    H     0.50009   0.29669   0.20154   0.00000  Uiso   1.00
H32    H     0.68993   0.22994   0.54766   0.00000  Uiso   1.00
H33    H     0.31023   0.22993   0.97808   0.00000  Uiso   1.00
H34    H     0.50004   0.43554   0.13049   0.00000  Uiso   1.00
H35    H     0.90039   0.14746   0.84987   0.00000  Uiso   1.00
H36    H     0.09976   0.14748   0.64886   0.00000  Uiso   1.00
H37    H     0.50001   0.58104   0.97023   0.00000  Uiso   1.00
O38    O     0.02533   0.07451   0.79739   0.00000  Uiso   1.00
O39    O     0.97493   0.07454   0.22171   0.00000  Uiso   1.00
O40    O     0.50005   0.64337   0.64334   0.00000  Uiso   1.00
N41    N     0.87446   0.11406   0.39129   0.00000  Uiso   1.00
N42    N     0.12594   0.11406   0.26845   0.00000  Uiso   1.00
N43    N     0.50010   0.51941   0.56885   0.00000  Uiso   1.00
N44    N     0.87438   0.14402   0.68058   0.00000  Uiso   1.00
N45    N     0.12586   0.14402   0.55773   0.00000  Uiso   1.00
N46    N     0.50002   0.54937   0.85813   0.00000  Uiso   1.00
C47    C     0.49976   0.74655   0.28251   0.00000  Uiso   1.00
C48    C     0.39664   0.71737   0.02611   0.00000  Uiso   1.00
C49    C     0.30989   0.67613   0.97168   0.00000  Uiso   1.00
C50    C     0.22309   0.65468   0.72562   0.00000  Uiso   1.00
C51    C     0.06299   0.60643   0.35563   0.00000  Uiso   1.00
C52    C     0.60293   0.71736   0.33556   0.00000  Uiso   1.00
C53    C     0.68964   0.67612   0.54132   0.00000  Uiso   1.00
C54    C     0.77651   0.65467   0.55577   0.00000  Uiso   1.00
C55    C     0.93672   0.60644   0.66629   0.00000  Uiso   1.00
C56    C     0.49979   0.82907   0.25274   0.00000  Uiso   1.00
C57    C     0.49981   0.88176   0.38892   0.00000  Uiso   1.00
C58    C     0.49987   0.95437   0.33367   0.00000  Uiso   1.00
C59    C     0.49994   0.07959   0.31561   0.00000  Uiso   1.00
C60    C     0.49986   0.78179   0.94232   0.00000  Uiso   1.00
C61    C     0.39670   0.73651   0.84134   0.00000  Uiso   1.00
C62    C     0.31000   0.71512   0.59529   0.00000  Uiso   1.00
C63    C     0.22314   0.67386   0.54051   0.00000  Uiso   1.00
C64    C     0.60299   0.73649   0.15079   0.00000  Uiso   1.00
C65    C     0.68975   0.71510   0.16494   0.00000  Uiso   1.00
C66    C     0.77656   0.67384   0.37066   0.00000  Uiso   1.00
C67    C     0.49985   0.84821   0.06796   0.00000  Uiso   1.00
C68    C     0.49992   0.92075   0.01251   0.00000  Uiso   1.00
C69    C     0.49993   0.97354   0.14856   0.00000  Uiso   1.00
H70    H     0.49973   0.73165   0.42638   0.00000  Uiso   1.00
H71    H     0.30989   0.66133   0.11474   0.00000  Uiso   1.00
H72    H     0.68958   0.66132   0.68430   0.00000  Uiso   1.00
H73    H     0.49977   0.86693   0.53189   0.00000  Uiso   1.00
H74    H     0.09946   0.59178   0.68775   0.00000  Uiso   1.00
H75    H     0.90008   0.59179   0.88874   0.00000  Uiso   1.00
H76    H     0.49984   0.02536   0.56739   0.00000  Uiso   1.00
H77    H     0.49991   0.79669   0.79846   0.00000  Uiso   1.00
H78    H     0.31007   0.72994   0.45234   0.00000  Uiso   1.00
H79    H     0.68977   0.72993   0.02192   0.00000  Uiso   1.00
H80    H     0.49996   0.93554   0.86951   0.00000  Uiso   1.00
H81    H     0.09961   0.64746   0.15013   0.00000  Uiso   1.00
H82    H     0.90024   0.64748   0.35114   0.00000  Uiso   1.00
H83    H     0.49999   0.08104   0.02977   0.00000  Uiso   1.00
O84    O     0.97467   0.57451   0.20261   0.00000  Uiso   1.00
O85    O     0.02507   0.57454   0.77829   0.00000  Uiso   1.00
O86    O     0.49995   0.14337   0.35666   0.00000  Uiso   1.00
N87    N     0.12554   0.61406   0.60871   0.00000  Uiso   1.00
N88    N     0.87406   0.61406   0.73155   0.00000  Uiso   1.00
N89    N     0.49990   0.01941   0.43115   0.00000  Uiso   1.00
N90    N     0.12562   0.64402   0.31942   0.00000  Uiso   1.00
N91    N     0.87414   0.64402   0.44227   0.00000  Uiso   1.00
N92    N     0.49998   0.04937   0.14187   0.00000  Uiso   1.00
