data_job_03302
_audit_creation_date              2018-12-19
_audit_creation_method            'Materials Studio'
_symmetry_space_group_name_H-M    'P1'
_symmetry_Int_Tables_number       1
_symmetry_cell_setting            triclinic
loop_
_symmetry_equiv_pos_as_xyz
  x,y,z
_cell_length_a                    21.4289
_cell_length_b                    16.3080
_cell_length_c                    20.9617
_cell_angle_alpha                 90.0000
_cell_angle_beta                  156.4817
_cell_angle_gamma                 90.0000
loop_
_atom_site_label
_atom_site_type_symbol
_atom_site_fract_x
_atom_site_fract_y
_atom_site_fract_z
_atom_site_U_iso_or_equiv
_atom_site_adp_type
_atom_site_occupancy
C1     C     0.55408   0.24127   0.88732   0.00000  Uiso   1.00
C2     C     0.54113   0.21962   0.80461   0.00000  Uiso   1.00
C3     C     0.62653   0.25512   0.83561   0.00000  Uiso   1.00
C4     C     0.59756   0.22683   0.74711   0.00000  Uiso   1.00
C5     C     0.59420   0.20261   0.63617   0.00000  Uiso   1.00
C6     C     0.38976   0.26519   0.75458   0.00000  Uiso   1.00
C7     C     0.34790   0.33900   0.74353   0.00000  Uiso   1.00
C8     C     0.19151   0.34906   0.61293   0.00000  Uiso   1.00
C9     C     0.95317   0.39556   0.42438   0.00000  Uiso   1.00
C10    C     0.59199   0.16132   0.95727   0.00000  Uiso   1.00
C11    C     0.72016   0.14781   0.11664   0.00000  Uiso   1.00
C12    C     0.73401   0.07043   0.15669   0.00000  Uiso   1.00
C13    C     0.80967   0.95567   0.28285   0.00000  Uiso   1.00
C14    C     0.35076   0.12790   0.67503   0.00000  Uiso   1.00
C15    C     0.43069   0.15804   0.68930   0.00000  Uiso   1.00
C16    C     0.40159   0.12969   0.60074   0.00000  Uiso   1.00
C17    C     0.48694   0.16514   0.63160   0.00000  Uiso   1.00
C18    C     0.27933   0.20361   0.63928   0.00000  Uiso   1.00
C19    C     0.12296   0.21357   0.50866   0.00000  Uiso   1.00
C20    C     0.08087   0.28738   0.49741   0.00000  Uiso   1.00
C21    C     0.48157   0.09974   0.84197   0.00000  Uiso   1.00
C22    C     0.49522   0.02238   0.88177   0.00000  Uiso   1.00
C23    C     0.62338   0.00875   0.04117   0.00000  Uiso   1.00
H24    H     0.64004   0.28921   0.97708   0.00000  Uiso   1.00
H25    H     0.71197   0.30278   0.92484   0.00000  Uiso   1.00
H26    H     0.43339   0.38663   0.83279   0.00000  Uiso   1.00
H27    H     0.80559   0.19548   0.20584   0.00000  Uiso   1.00
H28    H     0.74298   0.29068   0.81603   0.00000  Uiso   1.00
H29    H     0.15558   0.46749   0.62196   0.00000  Uiso   1.00
H30    H     0.94044   0.06439   0.40862   0.00000  Uiso   1.00
H31    H     0.26478   0.07996   0.58526   0.00000  Uiso   1.00
H32    H     0.31613   0.08204   0.51151   0.00000  Uiso   1.00
H33    H     0.03754   0.16590   0.41946   0.00000  Uiso   1.00
H34    H     0.40974   0.97474   0.79251   0.00000  Uiso   1.00
H35    H     0.42169   0.11153   0.48055   0.00000  Uiso   1.00
H36    H     0.83429   0.28833   0.28649   0.00000  Uiso   1.00
H37    H     0.61915   0.88524   0.07314   0.00000  Uiso   1.00
O38    O     0.62284   0.20627   0.60681   0.00000  Uiso   1.00
O39    O     0.85221   0.43823   0.35222   0.00000  Uiso   1.00
O40    O     0.88192   0.90937   0.38429   0.00000  Uiso   1.00
N41    N     0.66034   0.24822   0.74722   0.00000  Uiso   1.00
N42    N     0.11115   0.41353   0.56576   0.00000  Uiso   1.00
N43    N     0.84490   0.03668   0.30121   0.00000  Uiso   1.00
N44    N     0.48746   0.15182   0.56670   0.00000  Uiso   1.00
N45    N     0.93827   0.31713   0.38525   0.00000  Uiso   1.00
N46    N     0.67202   0.94027   0.12069   0.00000  Uiso   1.00
C47    C     0.44592   0.74127   0.61268   0.00000  Uiso   1.00
C48    C     0.45887   0.71962   0.69539   0.00000  Uiso   1.00
C49    C     0.37347   0.75512   0.66439   0.00000  Uiso   1.00
C50    C     0.40244   0.72683   0.75289   0.00000  Uiso   1.00
C51    C     0.40580   0.70261   0.86383   0.00000  Uiso   1.00
C52    C     0.61024   0.76519   0.74542   0.00000  Uiso   1.00
C53    C     0.65210   0.83900   0.75647   0.00000  Uiso   1.00
C54    C     0.80849   0.84906   0.88707   0.00000  Uiso   1.00
C55    C     0.04683   0.89556   0.07562   0.00000  Uiso   1.00
C56    C     0.40801   0.66132   0.54273   0.00000  Uiso   1.00
C57    C     0.27984   0.64781   0.38336   0.00000  Uiso   1.00
C58    C     0.26599   0.57043   0.34331   0.00000  Uiso   1.00
C59    C     0.19033   0.45567   0.21715   0.00000  Uiso   1.00
C60    C     0.64924   0.62790   0.82497   0.00000  Uiso   1.00
C61    C     0.56931   0.65804   0.81070   0.00000  Uiso   1.00
C62    C     0.59841   0.62969   0.89926   0.00000  Uiso   1.00
C63    C     0.51306   0.66514   0.86840   0.00000  Uiso   1.00
C64    C     0.72067   0.70361   0.86072   0.00000  Uiso   1.00
C65    C     0.87704   0.71357   0.99134   0.00000  Uiso   1.00
C66    C     0.91913   0.78738   0.00259   0.00000  Uiso   1.00
C67    C     0.51843   0.59974   0.65803   0.00000  Uiso   1.00
C68    C     0.50478   0.52238   0.61823   0.00000  Uiso   1.00
C69    C     0.37662   0.50875   0.45883   0.00000  Uiso   1.00
H70    H     0.35996   0.78921   0.52292   0.00000  Uiso   1.00
H71    H     0.28803   0.80278   0.57516   0.00000  Uiso   1.00
H72    H     0.56661   0.88663   0.66721   0.00000  Uiso   1.00
H73    H     0.19441   0.69548   0.29416   0.00000  Uiso   1.00
H74    H     0.25702   0.79068   0.68397   0.00000  Uiso   1.00
H75    H     0.84442   0.96749   0.87804   0.00000  Uiso   1.00
H76    H     0.05956   0.56439   0.09138   0.00000  Uiso   1.00
H77    H     0.73522   0.57996   0.91474   0.00000  Uiso   1.00
H78    H     0.68387   0.58204   0.98849   0.00000  Uiso   1.00
H79    H     0.96246   0.66590   0.08054   0.00000  Uiso   1.00
H80    H     0.59026   0.47474   0.70749   0.00000  Uiso   1.00
H81    H     0.57831   0.61153   0.01945   0.00000  Uiso   1.00
H82    H     0.16571   0.78833   0.21351   0.00000  Uiso   1.00
H83    H     0.38085   0.38524   0.42686   0.00000  Uiso   1.00
O84    O     0.37716   0.70627   0.89319   0.00000  Uiso   1.00
O85    O     0.14779   0.93823   0.14777   0.00000  Uiso   1.00
O86    O     0.11808   0.40937   0.11571   0.00000  Uiso   1.00
N87    N     0.33966   0.74822   0.75278   0.00000  Uiso   1.00
N88    N     0.88885   0.91353   0.93424   0.00000  Uiso   1.00
N89    N     0.15510   0.53668   0.19879   0.00000  Uiso   1.00
N90    N     0.51254   0.65182   0.93330   0.00000  Uiso   1.00
N91    N     0.06173   0.81713   0.11475   0.00000  Uiso   1.00
N92    N     0.32798   0.44027   0.37931   0.00000  Uiso   1.00
C93    C     0.44592   0.75873   0.11268   0.00000  Uiso   1.00
C94    C     0.45887   0.78038   0.19539   0.00000  Uiso   1.00
C95    C     0.37347   0.74488   0.16439   0.00000  Uiso   1.00
C96    C     0.40244   0.77317   0.25289   0.00000  Uiso   1.00
C97    C     0.40580   0.79739   0.36383   0.00000  Uiso   1.00
C98    C     0.61024   0.73481   0.24542   0.00000  Uiso   1.00
C99    C     0.65210   0.66100   0.25647   0.00000  Uiso   1.00
C100   C     0.80849   0.65094   0.38707   0.00000  Uiso   1.00
C101   C     0.04683   0.60444   0.57562   0.00000  Uiso   1.00
C102   C     0.40801   0.83868   0.04273   0.00000  Uiso   1.00
C103   C     0.27984   0.85219   0.88336   0.00000  Uiso   1.00
C104   C     0.26599   0.92957   0.84331   0.00000  Uiso   1.00
C105   C     0.19033   0.04433   0.71715   0.00000  Uiso   1.00
C106   C     0.64924   0.87210   0.32497   0.00000  Uiso   1.00
C107   C     0.56931   0.84196   0.31070   0.00000  Uiso   1.00
C108   C     0.59841   0.87031   0.39926   0.00000  Uiso   1.00
C109   C     0.51306   0.83486   0.36840   0.00000  Uiso   1.00
C110   C     0.72067   0.79639   0.36072   0.00000  Uiso   1.00
C111   C     0.87704   0.78643   0.49134   0.00000  Uiso   1.00
C112   C     0.91913   0.71262   0.50259   0.00000  Uiso   1.00
C113   C     0.51843   0.90026   0.15803   0.00000  Uiso   1.00
C114   C     0.50478   0.97762   0.11823   0.00000  Uiso   1.00
C115   C     0.37662   0.99125   0.95883   0.00000  Uiso   1.00
H116   H     0.35996   0.71079   0.02292   0.00000  Uiso   1.00
H117   H     0.28803   0.69722   0.07516   0.00000  Uiso   1.00
H118   H     0.56661   0.61337   0.16721   0.00000  Uiso   1.00
H119   H     0.19441   0.80452   0.79416   0.00000  Uiso   1.00
H120   H     0.25702   0.70932   0.18397   0.00000  Uiso   1.00
H121   H     0.84442   0.53251   0.37804   0.00000  Uiso   1.00
H122   H     0.05956   0.93561   0.59138   0.00000  Uiso   1.00
H123   H     0.73522   0.92004   0.41474   0.00000  Uiso   1.00
H124   H     0.68387   0.91796   0.48849   0.00000  Uiso   1.00
H125   H     0.96246   0.83410   0.58054   0.00000  Uiso   1.00
H126   H     0.59026   0.02526   0.20749   0.00000  Uiso   1.00
H127   H     0.57831   0.88847   0.51945   0.00000  Uiso   1.00
H128   H     0.16571   0.71167   0.71351   0.00000  Uiso   1.00
H129   H     0.38085   0.11476   0.92686   0.00000  Uiso   1.00
O130   O     0.37716   0.79373   0.39319   0.00000  Uiso   1.00
O131   O     0.14779   0.56177   0.64778   0.00000  Uiso   1.00
O132   O     0.11808   0.09063   0.61571   0.00000  Uiso   1.00
N133   N     0.33966   0.75178   0.25278   0.00000  Uiso   1.00
N134   N     0.88885   0.58647   0.43424   0.00000  Uiso   1.00
N135   N     0.15510   0.96332   0.69879   0.00000  Uiso   1.00
N136   N     0.51254   0.84818   0.43330   0.00000  Uiso   1.00
N137   N     0.06173   0.68287   0.61475   0.00000  Uiso   1.00
N138   N     0.32798   0.05973   0.87931   0.00000  Uiso   1.00
C139   C     0.55408   0.25873   0.38732   0.00000  Uiso   1.00
C140   C     0.54113   0.28038   0.30461   0.00000  Uiso   1.00
C141   C     0.62653   0.24488   0.33561   0.00000  Uiso   1.00
C142   C     0.59756   0.27317   0.24711   0.00000  Uiso   1.00
C143   C     0.59420   0.29739   0.13617   0.00000  Uiso   1.00
C144   C     0.38976   0.23481   0.25458   0.00000  Uiso   1.00
C145   C     0.34790   0.16100   0.24353   0.00000  Uiso   1.00
C146   C     0.19151   0.15094   0.11293   0.00000  Uiso   1.00
C147   C     0.95317   0.10444   0.92438   0.00000  Uiso   1.00
C148   C     0.59199   0.33868   0.45727   0.00000  Uiso   1.00
C149   C     0.72016   0.35219   0.61664   0.00000  Uiso   1.00
C150   C     0.73401   0.42957   0.65669   0.00000  Uiso   1.00
C151   C     0.80967   0.54433   0.78285   0.00000  Uiso   1.00
C152   C     0.35076   0.37210   0.17503   0.00000  Uiso   1.00
C153   C     0.43069   0.34196   0.18930   0.00000  Uiso   1.00
C154   C     0.40159   0.37031   0.10074   0.00000  Uiso   1.00
C155   C     0.48694   0.33486   0.13160   0.00000  Uiso   1.00
C156   C     0.27933   0.29639   0.13928   0.00000  Uiso   1.00
C157   C     0.12296   0.28643   0.00866   0.00000  Uiso   1.00
C158   C     0.08087   0.21262   0.99741   0.00000  Uiso   1.00
C159   C     0.48157   0.40026   0.34197   0.00000  Uiso   1.00
C160   C     0.49522   0.47762   0.38177   0.00000  Uiso   1.00
C161   C     0.62338   0.49125   0.54117   0.00000  Uiso   1.00
H162   H     0.64004   0.21079   0.47708   0.00000  Uiso   1.00
H163   H     0.71197   0.19722   0.42484   0.00000  Uiso   1.00
H164   H     0.43339   0.11337   0.33279   0.00000  Uiso   1.00
H165   H     0.80559   0.30452   0.70584   0.00000  Uiso   1.00
H166   H     0.74298   0.20932   0.31603   0.00000  Uiso   1.00
H167   H     0.15558   0.03251   0.12196   0.00000  Uiso   1.00
H168   H     0.94044   0.43561   0.90862   0.00000  Uiso   1.00
H169   H     0.26478   0.42004   0.08526   0.00000  Uiso   1.00
H170   H     0.31613   0.41796   0.01151   0.00000  Uiso   1.00
H171   H     0.03754   0.33410   0.91946   0.00000  Uiso   1.00
H172   H     0.40974   0.52526   0.29251   0.00000  Uiso   1.00
H173   H     0.42169   0.38847   0.98055   0.00000  Uiso   1.00
H174   H     0.83429   0.21167   0.78649   0.00000  Uiso   1.00
H175   H     0.61915   0.61476   0.57314   0.00000  Uiso   1.00
O176   O     0.62284   0.29373   0.10681   0.00000  Uiso   1.00
O177   O     0.85221   0.06177   0.85222   0.00000  Uiso   1.00
O178   O     0.88192   0.59063   0.88429   0.00000  Uiso   1.00
N179   N     0.66034   0.25178   0.24722   0.00000  Uiso   1.00
N180   N     0.11115   0.08647   0.06576   0.00000  Uiso   1.00
N181   N     0.84490   0.46332   0.80121   0.00000  Uiso   1.00
N182   N     0.48746   0.34818   0.06670   0.00000  Uiso   1.00
N183   N     0.93827   0.18287   0.88525   0.00000  Uiso   1.00
N184   N     0.67202   0.55973   0.62069   0.00000  Uiso   1.00
