data_job_00678
_audit_creation_date              2018-12-19
_audit_creation_method            'Materials Studio'
_symmetry_space_group_name_H-M    'P1'
_symmetry_Int_Tables_number       1
_symmetry_cell_setting            triclinic
loop_
_symmetry_equiv_pos_as_xyz
  x,y,z
_cell_length_a                    12.8007
_cell_length_b                    28.1361
_cell_length_c                    12.5677
_cell_angle_alpha                 90.0000
_cell_angle_beta                  90.0000
_cell_angle_gamma                 90.0000
loop_
_atom_site_label
_atom_site_type_symbol
_atom_site_fract_x
_atom_site_fract_y
_atom_site_fract_z
_atom_site_U_iso_or_equiv
_atom_site_adp_type
_atom_site_occupancy
C1     C     0.86973   0.62706   0.87950   0.00000  Uiso   1.00
C2     C     0.78841   0.64485   0.95871   0.00000  Uiso   1.00
C3     C     0.80909   0.67053   0.05060   0.00000  Uiso   1.00
C4     C     0.72393   0.68350   0.11256   0.00000  Uiso   1.00
C5     C     0.61319   0.71298   0.23999   0.00000  Uiso   1.00
C6     C     0.85379   0.57346   0.87153   0.00000  Uiso   1.00
C7     C     0.92945   0.53912   0.89011   0.00000  Uiso   1.00
C8     C     0.89932   0.49199   0.87867   0.00000  Uiso   1.00
C9     C     0.89011   0.41064   0.87068   0.00000  Uiso   1.00
C10    C     0.83816   0.64734   0.77167   0.00000  Uiso   1.00
C11    C     0.90068   0.67510   0.70627   0.00000  Uiso   1.00
C12    C     0.85741   0.69015   0.61074   0.00000  Uiso   1.00
C13    C     0.82393   0.72350   0.44771   0.00000  Uiso   1.00
C14    C     0.68172   0.60442   0.82611   0.00000  Uiso   1.00
C15    C     0.68629   0.63256   0.92971   0.00000  Uiso   1.00
C16    C     0.60108   0.64549   0.99154   0.00000  Uiso   1.00
C17    C     0.62163   0.67119   0.08351   0.00000  Uiso   1.00
C18    C     0.75167   0.56117   0.84253   0.00000  Uiso   1.00
C19    C     0.72144   0.51408   0.83105   0.00000  Uiso   1.00
C20    C     0.79702   0.47967   0.84962   0.00000  Uiso   1.00
C21    C     0.73604   0.63504   0.74267   0.00000  Uiso   1.00
C22    C     0.69267   0.65006   0.64721   0.00000  Uiso   1.00
C23    C     0.75511   0.67784   0.58169   0.00000  Uiso   1.00
H24    H     0.94924   0.63663   0.90207   0.00000  Uiso   1.00
H25    H     0.88813   0.68004   0.07302   0.00000  Uiso   1.00
H26    H     0.00847   0.54865   0.91254   0.00000  Uiso   1.00
H27    H     0.97970   0.68460   0.72874   0.00000  Uiso   1.00
H28    H     0.77535   0.72273   0.24978   0.00000  Uiso   1.00
H29    H     0.02910   0.44569   0.91137   0.00000  Uiso   1.00
H30    H     0.96845   0.73238   0.52378   0.00000  Uiso   1.00
H31    H     0.60222   0.59485   0.80353   0.00000  Uiso   1.00
H32    H     0.52206   0.63597   0.96908   0.00000  Uiso   1.00
H33    H     0.64240   0.50458   0.80860   0.00000  Uiso   1.00
H34    H     0.61364   0.64054   0.62480   0.00000  Uiso   1.00
H35    H     0.47823   0.68696   0.16542   0.00000  Uiso   1.00
H36    H     0.73199   0.40992   0.82700   0.00000  Uiso   1.00
H37    H     0.67133   0.69661   0.43942   0.00000  Uiso   1.00
O38    O     0.58033   0.73264   0.31830   0.00000  Uiso   1.00
O39    O     0.91324   0.36917   0.87430   0.00000  Uiso   1.00
O40    O     0.83367   0.74530   0.36580   0.00000  Uiso   1.00
N41    N     0.71642   0.70868   0.20720   0.00000  Uiso   1.00
N42    N     0.95366   0.44966   0.89082   0.00000  Uiso   1.00
N43    N     0.89696   0.71768   0.52845   0.00000  Uiso   1.00
N44    N     0.55655   0.68943   0.16180   0.00000  Uiso   1.00
N45    N     0.79378   0.43041   0.84543   0.00000  Uiso   1.00
N46    N     0.73709   0.69843   0.48305   0.00000  Uiso   1.00
C47    C     0.63027   0.37294   0.37950   0.00000  Uiso   1.00
C48    C     0.71159   0.35515   0.45871   0.00000  Uiso   1.00
C49    C     0.69091   0.32947   0.55060   0.00000  Uiso   1.00
C50    C     0.77607   0.31650   0.61256   0.00000  Uiso   1.00
C51    C     0.88681   0.28702   0.73999   0.00000  Uiso   1.00
C52    C     0.64621   0.42654   0.37153   0.00000  Uiso   1.00
C53    C     0.57055   0.46088   0.39011   0.00000  Uiso   1.00
C54    C     0.60068   0.50801   0.37867   0.00000  Uiso   1.00
C55    C     0.60989   0.58936   0.37068   0.00000  Uiso   1.00
C56    C     0.66184   0.35266   0.27167   0.00000  Uiso   1.00
C57    C     0.59932   0.32490   0.20627   0.00000  Uiso   1.00
C58    C     0.64259   0.30985   0.11074   0.00000  Uiso   1.00
C59    C     0.67607   0.27650   0.94771   0.00000  Uiso   1.00
C60    C     0.81828   0.39558   0.32611   0.00000  Uiso   1.00
C61    C     0.81371   0.36744   0.42971   0.00000  Uiso   1.00
C62    C     0.89892   0.35451   0.49154   0.00000  Uiso   1.00
C63    C     0.87837   0.32881   0.58351   0.00000  Uiso   1.00
C64    C     0.74833   0.43883   0.34253   0.00000  Uiso   1.00
C65    C     0.77856   0.48592   0.33105   0.00000  Uiso   1.00
C66    C     0.70298   0.52033   0.34962   0.00000  Uiso   1.00
C67    C     0.76396   0.36496   0.24267   0.00000  Uiso   1.00
C68    C     0.80733   0.34994   0.14721   0.00000  Uiso   1.00
C69    C     0.74489   0.32216   0.08169   0.00000  Uiso   1.00
H70    H     0.55076   0.36337   0.40207   0.00000  Uiso   1.00
H71    H     0.61187   0.31996   0.57302   0.00000  Uiso   1.00
H72    H     0.49153   0.45135   0.41254   0.00000  Uiso   1.00
H73    H     0.52030   0.31540   0.22874   0.00000  Uiso   1.00
H74    H     0.72465   0.27727   0.74978   0.00000  Uiso   1.00
H75    H     0.47090   0.55431   0.41137   0.00000  Uiso   1.00
H76    H     0.53155   0.26762   0.02378   0.00000  Uiso   1.00
H77    H     0.89778   0.40515   0.30353   0.00000  Uiso   1.00
H78    H     0.97794   0.36403   0.46908   0.00000  Uiso   1.00
H79    H     0.85760   0.49542   0.30860   0.00000  Uiso   1.00
H80    H     0.88636   0.35946   0.12480   0.00000  Uiso   1.00
H81    H     0.02177   0.31304   0.66542   0.00000  Uiso   1.00
H82    H     0.76801   0.59008   0.32700   0.00000  Uiso   1.00
H83    H     0.82867   0.30339   0.93942   0.00000  Uiso   1.00
O84    O     0.91967   0.26736   0.81830   0.00000  Uiso   1.00
O85    O     0.58676   0.63083   0.37430   0.00000  Uiso   1.00
O86    O     0.66633   0.25470   0.86580   0.00000  Uiso   1.00
N87    N     0.78358   0.29132   0.70720   0.00000  Uiso   1.00
N88    N     0.54634   0.55034   0.39082   0.00000  Uiso   1.00
N89    N     0.60304   0.28232   0.02845   0.00000  Uiso   1.00
N90    N     0.94345   0.31057   0.66180   0.00000  Uiso   1.00
N91    N     0.70622   0.56959   0.34543   0.00000  Uiso   1.00
N92    N     0.76291   0.30157   0.98305   0.00000  Uiso   1.00
C93    C     0.13027   0.12706   0.62050   0.00000  Uiso   1.00
C94    C     0.21159   0.14485   0.54129   0.00000  Uiso   1.00
C95    C     0.19091   0.17053   0.44940   0.00000  Uiso   1.00
C96    C     0.27607   0.18350   0.38744   0.00000  Uiso   1.00
C97    C     0.38681   0.21298   0.26001   0.00000  Uiso   1.00
C98    C     0.14621   0.07346   0.62847   0.00000  Uiso   1.00
C99    C     0.07055   0.03912   0.60989   0.00000  Uiso   1.00
C100   C     0.10068   0.99199   0.62133   0.00000  Uiso   1.00
C101   C     0.10989   0.91064   0.62932   0.00000  Uiso   1.00
C102   C     0.16184   0.14734   0.72833   0.00000  Uiso   1.00
C103   C     0.09932   0.17510   0.79373   0.00000  Uiso   1.00
C104   C     0.14259   0.19015   0.88926   0.00000  Uiso   1.00
C105   C     0.17607   0.22350   0.05229   0.00000  Uiso   1.00
C106   C     0.31828   0.10442   0.67389   0.00000  Uiso   1.00
C107   C     0.31371   0.13256   0.57029   0.00000  Uiso   1.00
C108   C     0.39892   0.14549   0.50846   0.00000  Uiso   1.00
C109   C     0.37837   0.17119   0.41649   0.00000  Uiso   1.00
C110   C     0.24833   0.06117   0.65747   0.00000  Uiso   1.00
C111   C     0.27856   0.01408   0.66895   0.00000  Uiso   1.00
C112   C     0.20298   0.97967   0.65038   0.00000  Uiso   1.00
C113   C     0.26396   0.13504   0.75733   0.00000  Uiso   1.00
C114   C     0.30733   0.15006   0.85279   0.00000  Uiso   1.00
C115   C     0.24489   0.17784   0.91831   0.00000  Uiso   1.00
H116   H     0.05076   0.13663   0.59793   0.00000  Uiso   1.00
H117   H     0.11187   0.18004   0.42698   0.00000  Uiso   1.00
H118   H     0.99153   0.04865   0.58746   0.00000  Uiso   1.00
H119   H     0.02030   0.18460   0.77126   0.00000  Uiso   1.00
H120   H     0.22465   0.22273   0.25022   0.00000  Uiso   1.00
H121   H     0.97090   0.94569   0.58863   0.00000  Uiso   1.00
H122   H     0.03155   0.23238   0.97622   0.00000  Uiso   1.00
H123   H     0.39778   0.09485   0.69647   0.00000  Uiso   1.00
H124   H     0.47794   0.13597   0.53092   0.00000  Uiso   1.00
H125   H     0.35760   0.00458   0.69140   0.00000  Uiso   1.00
H126   H     0.38636   0.14054   0.87520   0.00000  Uiso   1.00
H127   H     0.52177   0.18696   0.33458   0.00000  Uiso   1.00
H128   H     0.26801   0.90992   0.67300   0.00000  Uiso   1.00
H129   H     0.32867   0.19661   0.06058   0.00000  Uiso   1.00
O130   O     0.41967   0.23264   0.18170   0.00000  Uiso   1.00
O131   O     0.08676   0.86917   0.62570   0.00000  Uiso   1.00
O132   O     0.16633   0.24530   0.13420   0.00000  Uiso   1.00
N133   N     0.28358   0.20868   0.29280   0.00000  Uiso   1.00
N134   N     0.04634   0.94966   0.60918   0.00000  Uiso   1.00
N135   N     0.10304   0.21768   0.97155   0.00000  Uiso   1.00
N136   N     0.44345   0.18943   0.33820   0.00000  Uiso   1.00
N137   N     0.20622   0.93041   0.65457   0.00000  Uiso   1.00
N138   N     0.26291   0.19843   0.01695   0.00000  Uiso   1.00
C139   C     0.36973   0.87294   0.12050   0.00000  Uiso   1.00
C140   C     0.28841   0.85515   0.04129   0.00000  Uiso   1.00
C141   C     0.30909   0.82947   0.94940   0.00000  Uiso   1.00
C142   C     0.22393   0.81650   0.88744   0.00000  Uiso   1.00
C143   C     0.11319   0.78702   0.76001   0.00000  Uiso   1.00
C144   C     0.35379   0.92654   0.12847   0.00000  Uiso   1.00
C145   C     0.42945   0.96088   0.10989   0.00000  Uiso   1.00
C146   C     0.39932   0.00801   0.12133   0.00000  Uiso   1.00
C147   C     0.39011   0.08936   0.12932   0.00000  Uiso   1.00
C148   C     0.33816   0.85266   0.22833   0.00000  Uiso   1.00
C149   C     0.40068   0.82490   0.29373   0.00000  Uiso   1.00
C150   C     0.35741   0.80985   0.38926   0.00000  Uiso   1.00
C151   C     0.32393   0.77650   0.55229   0.00000  Uiso   1.00
C152   C     0.18172   0.89558   0.17389   0.00000  Uiso   1.00
C153   C     0.18629   0.86744   0.07029   0.00000  Uiso   1.00
C154   C     0.10108   0.85451   0.00846   0.00000  Uiso   1.00
C155   C     0.12163   0.82881   0.91649   0.00000  Uiso   1.00
C156   C     0.25167   0.93883   0.15747   0.00000  Uiso   1.00
C157   C     0.22144   0.98592   0.16895   0.00000  Uiso   1.00
C158   C     0.29702   0.02033   0.15038   0.00000  Uiso   1.00
C159   C     0.23604   0.86496   0.25733   0.00000  Uiso   1.00
C160   C     0.19267   0.84994   0.35279   0.00000  Uiso   1.00
C161   C     0.25511   0.82216   0.41831   0.00000  Uiso   1.00
H162   H     0.44924   0.86337   0.09793   0.00000  Uiso   1.00
H163   H     0.38813   0.81996   0.92698   0.00000  Uiso   1.00
H164   H     0.50847   0.95135   0.08746   0.00000  Uiso   1.00
H165   H     0.47970   0.81540   0.27126   0.00000  Uiso   1.00
H166   H     0.27535   0.77727   0.75022   0.00000  Uiso   1.00
H167   H     0.52910   0.05431   0.08863   0.00000  Uiso   1.00
H168   H     0.46845   0.76762   0.47622   0.00000  Uiso   1.00
H169   H     0.10222   0.90515   0.19647   0.00000  Uiso   1.00
H170   H     0.02206   0.86403   0.03092   0.00000  Uiso   1.00
H171   H     0.14240   0.99542   0.19140   0.00000  Uiso   1.00
H172   H     0.11364   0.85946   0.37520   0.00000  Uiso   1.00
H173   H     0.97823   0.81304   0.83458   0.00000  Uiso   1.00
H174   H     0.23199   0.09008   0.17300   0.00000  Uiso   1.00
H175   H     0.17133   0.80339   0.56058   0.00000  Uiso   1.00
O176   O     0.08033   0.76736   0.68170   0.00000  Uiso   1.00
O177   O     0.41324   0.13083   0.12570   0.00000  Uiso   1.00
O178   O     0.33367   0.75470   0.63420   0.00000  Uiso   1.00
N179   N     0.21642   0.79132   0.79280   0.00000  Uiso   1.00
N180   N     0.45366   0.05034   0.10918   0.00000  Uiso   1.00
N181   N     0.39696   0.78232   0.47155   0.00000  Uiso   1.00
N182   N     0.05655   0.81057   0.83820   0.00000  Uiso   1.00
N183   N     0.29378   0.06959   0.15457   0.00000  Uiso   1.00
N184   N     0.23709   0.80157   0.51695   0.00000  Uiso   1.00
C185   C     0.13027   0.37294   0.12050   0.00000  Uiso   1.00
C186   C     0.21159   0.35515   0.04129   0.00000  Uiso   1.00
C187   C     0.19091   0.32947   0.94940   0.00000  Uiso   1.00
C188   C     0.27607   0.31650   0.88744   0.00000  Uiso   1.00
C189   C     0.38681   0.28702   0.76001   0.00000  Uiso   1.00
C190   C     0.14621   0.42654   0.12847   0.00000  Uiso   1.00
C191   C     0.07055   0.46088   0.10989   0.00000  Uiso   1.00
C192   C     0.10068   0.50801   0.12133   0.00000  Uiso   1.00
C193   C     0.10989   0.58936   0.12932   0.00000  Uiso   1.00
C194   C     0.16184   0.35266   0.22833   0.00000  Uiso   1.00
C195   C     0.09932   0.32490   0.29373   0.00000  Uiso   1.00
C196   C     0.14259   0.30985   0.38926   0.00000  Uiso   1.00
C197   C     0.17607   0.27650   0.55229   0.00000  Uiso   1.00
C198   C     0.31828   0.39558   0.17389   0.00000  Uiso   1.00
C199   C     0.31371   0.36744   0.07029   0.00000  Uiso   1.00
C200   C     0.39892   0.35451   0.00846   0.00000  Uiso   1.00
C201   C     0.37837   0.32881   0.91649   0.00000  Uiso   1.00
C202   C     0.24833   0.43883   0.15747   0.00000  Uiso   1.00
C203   C     0.27856   0.48592   0.16895   0.00000  Uiso   1.00
C204   C     0.20298   0.52033   0.15038   0.00000  Uiso   1.00
C205   C     0.26396   0.36496   0.25733   0.00000  Uiso   1.00
C206   C     0.30733   0.34994   0.35279   0.00000  Uiso   1.00
C207   C     0.24489   0.32216   0.41831   0.00000  Uiso   1.00
H208   H     0.05076   0.36337   0.09793   0.00000  Uiso   1.00
H209   H     0.11187   0.31996   0.92698   0.00000  Uiso   1.00
H210   H     0.99153   0.45135   0.08746   0.00000  Uiso   1.00
H211   H     0.02030   0.31540   0.27126   0.00000  Uiso   1.00
H212   H     0.22465   0.27727   0.75022   0.00000  Uiso   1.00
H213   H     0.97090   0.55431   0.08863   0.00000  Uiso   1.00
H214   H     0.03155   0.26762   0.47622   0.00000  Uiso   1.00
H215   H     0.39778   0.40515   0.19647   0.00000  Uiso   1.00
H216   H     0.47794   0.36403   0.03092   0.00000  Uiso   1.00
H217   H     0.35760   0.49542   0.19140   0.00000  Uiso   1.00
H218   H     0.38636   0.35946   0.37520   0.00000  Uiso   1.00
H219   H     0.52177   0.31304   0.83458   0.00000  Uiso   1.00
H220   H     0.26801   0.59008   0.17300   0.00000  Uiso   1.00
H221   H     0.32867   0.30339   0.56058   0.00000  Uiso   1.00
O222   O     0.41967   0.26736   0.68170   0.00000  Uiso   1.00
O223   O     0.08676   0.63083   0.12570   0.00000  Uiso   1.00
O224   O     0.16633   0.25470   0.63420   0.00000  Uiso   1.00
N225   N     0.28358   0.29132   0.79280   0.00000  Uiso   1.00
N226   N     0.04634   0.55034   0.10918   0.00000  Uiso   1.00
N227   N     0.10304   0.28232   0.47155   0.00000  Uiso   1.00
N228   N     0.44345   0.31057   0.83820   0.00000  Uiso   1.00
N229   N     0.20622   0.56959   0.15457   0.00000  Uiso   1.00
N230   N     0.26291   0.30157   0.51695   0.00000  Uiso   1.00
C231   C     0.36973   0.62706   0.62050   0.00000  Uiso   1.00
C232   C     0.28841   0.64485   0.54129   0.00000  Uiso   1.00
C233   C     0.30909   0.67053   0.44940   0.00000  Uiso   1.00
C234   C     0.22393   0.68350   0.38744   0.00000  Uiso   1.00
C235   C     0.11319   0.71298   0.26001   0.00000  Uiso   1.00
C236   C     0.35379   0.57346   0.62847   0.00000  Uiso   1.00
C237   C     0.42945   0.53912   0.60989   0.00000  Uiso   1.00
C238   C     0.39932   0.49199   0.62133   0.00000  Uiso   1.00
C239   C     0.39011   0.41064   0.62932   0.00000  Uiso   1.00
C240   C     0.33816   0.64734   0.72833   0.00000  Uiso   1.00
C241   C     0.40068   0.67510   0.79373   0.00000  Uiso   1.00
C242   C     0.35741   0.69015   0.88926   0.00000  Uiso   1.00
C243   C     0.32393   0.72350   0.05229   0.00000  Uiso   1.00
C244   C     0.18172   0.60442   0.67389   0.00000  Uiso   1.00
C245   C     0.18629   0.63256   0.57029   0.00000  Uiso   1.00
C246   C     0.10108   0.64549   0.50846   0.00000  Uiso   1.00
C247   C     0.12163   0.67119   0.41649   0.00000  Uiso   1.00
C248   C     0.25167   0.56117   0.65747   0.00000  Uiso   1.00
C249   C     0.22144   0.51408   0.66895   0.00000  Uiso   1.00
C250   C     0.29702   0.47967   0.65038   0.00000  Uiso   1.00
C251   C     0.23604   0.63504   0.75733   0.00000  Uiso   1.00
C252   C     0.19267   0.65006   0.85279   0.00000  Uiso   1.00
C253   C     0.25511   0.67784   0.91831   0.00000  Uiso   1.00
H254   H     0.44924   0.63663   0.59793   0.00000  Uiso   1.00
H255   H     0.38813   0.68004   0.42698   0.00000  Uiso   1.00
H256   H     0.50847   0.54865   0.58746   0.00000  Uiso   1.00
H257   H     0.47970   0.68460   0.77126   0.00000  Uiso   1.00
H258   H     0.27535   0.72273   0.25022   0.00000  Uiso   1.00
H259   H     0.52910   0.44569   0.58863   0.00000  Uiso   1.00
H260   H     0.46845   0.73238   0.97622   0.00000  Uiso   1.00
H261   H     0.10222   0.59485   0.69647   0.00000  Uiso   1.00
H262   H     0.02206   0.63597   0.53092   0.00000  Uiso   1.00
H263   H     0.14240   0.50458   0.69140   0.00000  Uiso   1.00
H264   H     0.11364   0.64054   0.87520   0.00000  Uiso   1.00
H265   H     0.97823   0.68696   0.33458   0.00000  Uiso   1.00
H266   H     0.23199   0.40992   0.67300   0.00000  Uiso   1.00
H267   H     0.17133   0.69661   0.06058   0.00000  Uiso   1.00
O268   O     0.08033   0.73264   0.18170   0.00000  Uiso   1.00
O269   O     0.41324   0.36917   0.62570   0.00000  Uiso   1.00
O270   O     0.33367   0.74530   0.13420   0.00000  Uiso   1.00
N271   N     0.21642   0.70868   0.29280   0.00000  Uiso   1.00
N272   N     0.45366   0.44966   0.60918   0.00000  Uiso   1.00
N273   N     0.39696   0.71768   0.97155   0.00000  Uiso   1.00
N274   N     0.05655   0.68943   0.33820   0.00000  Uiso   1.00
N275   N     0.29378   0.43041   0.65457   0.00000  Uiso   1.00
N276   N     0.23709   0.69843   0.01695   0.00000  Uiso   1.00
C277   C     0.86973   0.87294   0.37950   0.00000  Uiso   1.00
C278   C     0.78841   0.85515   0.45871   0.00000  Uiso   1.00
C279   C     0.80909   0.82947   0.55060   0.00000  Uiso   1.00
C280   C     0.72393   0.81650   0.61256   0.00000  Uiso   1.00
C281   C     0.61319   0.78702   0.73999   0.00000  Uiso   1.00
C282   C     0.85379   0.92654   0.37153   0.00000  Uiso   1.00
C283   C     0.92945   0.96088   0.39011   0.00000  Uiso   1.00
C284   C     0.89932   0.00801   0.37867   0.00000  Uiso   1.00
C285   C     0.89011   0.08936   0.37068   0.00000  Uiso   1.00
C286   C     0.83816   0.85266   0.27167   0.00000  Uiso   1.00
C287   C     0.90068   0.82490   0.20627   0.00000  Uiso   1.00
C288   C     0.85741   0.80985   0.11074   0.00000  Uiso   1.00
C289   C     0.82393   0.77650   0.94771   0.00000  Uiso   1.00
C290   C     0.68172   0.89558   0.32611   0.00000  Uiso   1.00
C291   C     0.68629   0.86744   0.42971   0.00000  Uiso   1.00
C292   C     0.60108   0.85451   0.49154   0.00000  Uiso   1.00
C293   C     0.62163   0.82881   0.58351   0.00000  Uiso   1.00
C294   C     0.75167   0.93883   0.34253   0.00000  Uiso   1.00
C295   C     0.72144   0.98592   0.33105   0.00000  Uiso   1.00
C296   C     0.79702   0.02033   0.34962   0.00000  Uiso   1.00
C297   C     0.73604   0.86496   0.24267   0.00000  Uiso   1.00
C298   C     0.69267   0.84994   0.14721   0.00000  Uiso   1.00
C299   C     0.75511   0.82216   0.08169   0.00000  Uiso   1.00
H300   H     0.94924   0.86337   0.40207   0.00000  Uiso   1.00
H301   H     0.88813   0.81996   0.57302   0.00000  Uiso   1.00
H302   H     0.00847   0.95135   0.41254   0.00000  Uiso   1.00
H303   H     0.97970   0.81540   0.22874   0.00000  Uiso   1.00
H304   H     0.77535   0.77727   0.74978   0.00000  Uiso   1.00
H305   H     0.02910   0.05431   0.41137   0.00000  Uiso   1.00
H306   H     0.96845   0.76762   0.02378   0.00000  Uiso   1.00
H307   H     0.60222   0.90515   0.30353   0.00000  Uiso   1.00
H308   H     0.52206   0.86403   0.46908   0.00000  Uiso   1.00
H309   H     0.64240   0.99542   0.30860   0.00000  Uiso   1.00
H310   H     0.61364   0.85946   0.12480   0.00000  Uiso   1.00
H311   H     0.47823   0.81304   0.66542   0.00000  Uiso   1.00
H312   H     0.73199   0.09008   0.32700   0.00000  Uiso   1.00
H313   H     0.67133   0.80339   0.93942   0.00000  Uiso   1.00
O314   O     0.58033   0.76736   0.81830   0.00000  Uiso   1.00
O315   O     0.91324   0.13083   0.37430   0.00000  Uiso   1.00
O316   O     0.83367   0.75470   0.86580   0.00000  Uiso   1.00
N317   N     0.71642   0.79132   0.70720   0.00000  Uiso   1.00
N318   N     0.95366   0.05034   0.39082   0.00000  Uiso   1.00
N319   N     0.89696   0.78232   0.02845   0.00000  Uiso   1.00
N320   N     0.55655   0.81057   0.66180   0.00000  Uiso   1.00
N321   N     0.79378   0.06959   0.34543   0.00000  Uiso   1.00
N322   N     0.73709   0.80157   0.98305   0.00000  Uiso   1.00
C323   C     0.63027   0.12706   0.87950   0.00000  Uiso   1.00
C324   C     0.71159   0.14485   0.95871   0.00000  Uiso   1.00
C325   C     0.69091   0.17053   0.05060   0.00000  Uiso   1.00
C326   C     0.77607   0.18350   0.11256   0.00000  Uiso   1.00
C327   C     0.88681   0.21298   0.23999   0.00000  Uiso   1.00
C328   C     0.64621   0.07346   0.87153   0.00000  Uiso   1.00
C329   C     0.57055   0.03912   0.89011   0.00000  Uiso   1.00
C330   C     0.60068   0.99199   0.87867   0.00000  Uiso   1.00
C331   C     0.60989   0.91064   0.87068   0.00000  Uiso   1.00
C332   C     0.66184   0.14734   0.77167   0.00000  Uiso   1.00
C333   C     0.59932   0.17510   0.70627   0.00000  Uiso   1.00
C334   C     0.64259   0.19015   0.61074   0.00000  Uiso   1.00
C335   C     0.67607   0.22350   0.44771   0.00000  Uiso   1.00
C336   C     0.81828   0.10442   0.82611   0.00000  Uiso   1.00
C337   C     0.81371   0.13256   0.92971   0.00000  Uiso   1.00
C338   C     0.89892   0.14549   0.99154   0.00000  Uiso   1.00
C339   C     0.87837   0.17119   0.08351   0.00000  Uiso   1.00
C340   C     0.74833   0.06117   0.84253   0.00000  Uiso   1.00
C341   C     0.77856   0.01408   0.83105   0.00000  Uiso   1.00
C342   C     0.70298   0.97967   0.84962   0.00000  Uiso   1.00
C343   C     0.76396   0.13504   0.74267   0.00000  Uiso   1.00
C344   C     0.80733   0.15006   0.64721   0.00000  Uiso   1.00
C345   C     0.74489   0.17784   0.58169   0.00000  Uiso   1.00
H346   H     0.55076   0.13663   0.90207   0.00000  Uiso   1.00
H347   H     0.61187   0.18004   0.07302   0.00000  Uiso   1.00
H348   H     0.49153   0.04865   0.91254   0.00000  Uiso   1.00
H349   H     0.52030   0.18460   0.72874   0.00000  Uiso   1.00
H350   H     0.72465   0.22273   0.24978   0.00000  Uiso   1.00
H351   H     0.47090   0.94569   0.91137   0.00000  Uiso   1.00
H352   H     0.53155   0.23238   0.52378   0.00000  Uiso   1.00
H353   H     0.89778   0.09485   0.80353   0.00000  Uiso   1.00
H354   H     0.97794   0.13597   0.96908   0.00000  Uiso   1.00
H355   H     0.85760   0.00458   0.80860   0.00000  Uiso   1.00
H356   H     0.88636   0.14054   0.62480   0.00000  Uiso   1.00
H357   H     0.02177   0.18696   0.16542   0.00000  Uiso   1.00
H358   H     0.76801   0.90992   0.82700   0.00000  Uiso   1.00
H359   H     0.82867   0.19661   0.43942   0.00000  Uiso   1.00
O360   O     0.91967   0.23264   0.31830   0.00000  Uiso   1.00
O361   O     0.58676   0.86917   0.87430   0.00000  Uiso   1.00
O362   O     0.66633   0.24530   0.36580   0.00000  Uiso   1.00
N363   N     0.78358   0.20868   0.20720   0.00000  Uiso   1.00
N364   N     0.54634   0.94966   0.89082   0.00000  Uiso   1.00
N365   N     0.60304   0.21768   0.52845   0.00000  Uiso   1.00
N366   N     0.94345   0.18943   0.16180   0.00000  Uiso   1.00
N367   N     0.70622   0.93041   0.84543   0.00000  Uiso   1.00
N368   N     0.76291   0.19843   0.48305   0.00000  Uiso   1.00
