data_job_03088
_audit_creation_date              2018-12-19
_audit_creation_method            'Materials Studio'
_symmetry_space_group_name_H-M    'P1'
_symmetry_Int_Tables_number       1
_symmetry_cell_setting            triclinic
loop_
_symmetry_equiv_pos_as_xyz
  x,y,z
_cell_length_a                    12.5267
_cell_length_b                    12.5267
_cell_length_c                    41.1458
_cell_angle_alpha                 90.0000
_cell_angle_beta                  90.0000
_cell_angle_gamma                 90.0000
loop_
_atom_site_label
_atom_site_type_symbol
_atom_site_fract_x
_atom_site_fract_y
_atom_site_fract_z
_atom_site_U_iso_or_equiv
_atom_site_adp_type
_atom_site_occupancy
C1     C     0.93745   0.89294   0.88974   0.00000  Uiso   1.00
C2     C     0.85699   0.82743   0.90912   0.00000  Uiso   1.00
C3     C     0.76244   0.86552   0.92233   0.00000  Uiso   1.00
C4     C     0.69974   0.79290   0.93923   0.00000  Uiso   1.00
C5     C     0.57013   0.70745   0.96880   0.00000  Uiso   1.00
C6     C     0.04393   0.88075   0.90732   0.00000  Uiso   1.00
C7     C     0.10656   0.96367   0.91901   0.00000  Uiso   1.00
C8     C     0.20125   0.93594   0.93439   0.00000  Uiso   1.00
C9     C     0.36190   0.93327   0.96114   0.00000  Uiso   1.00
C10    C     0.95037   0.83586   0.85724   0.00000  Uiso   1.00
C11    C     0.93437   0.88104   0.82683   0.00000  Uiso   1.00
C12    C     0.95031   0.81552   0.80005   0.00000  Uiso   1.00
C13    C     0.96570   0.74315   0.74905   0.00000  Uiso   1.00
C14    C     0.99424   0.69626   0.89625   0.00000  Uiso   1.00
C15    C     0.88783   0.72060   0.91265   0.00000  Uiso   1.00
C16    C     0.82526   0.64791   0.92954   0.00000  Uiso   1.00
C17    C     0.73064   0.68588   0.94277   0.00000  Uiso   1.00
C18    C     0.07477   0.77393   0.91085   0.00000  Uiso   1.00
C19    C     0.16938   0.74607   0.92622   0.00000  Uiso   1.00
C20    C     0.23214   0.82892   0.93793   0.00000  Uiso   1.00
C21    C     0.98121   0.72903   0.86077   0.00000  Uiso   1.00
C22    C     0.99719   0.66343   0.83403   0.00000  Uiso   1.00
C23    C     0.98121   0.70850   0.80359   0.00000  Uiso   1.00
H24    H     0.91345   0.97611   0.88698   0.00000  Uiso   1.00
H25    H     0.73861   0.94820   0.91959   0.00000  Uiso   1.00
H26    H     0.08268   0.04633   0.91627   0.00000  Uiso   1.00
H27    H     0.91051   0.96371   0.82410   0.00000  Uiso   1.00
H28    H     0.55838   0.87014   0.95731   0.00000  Uiso   1.00
H29    H     0.28390   0.07707   0.95030   0.00000  Uiso   1.00
H30    H     0.92084   0.90285   0.75595   0.00000  Uiso   1.00
H31    H     0.01825   0.61309   0.89900   0.00000  Uiso   1.00
H32    H     0.84915   0.56525   0.93227   0.00000  Uiso   1.00
H33    H     0.19323   0.66339   0.92895   0.00000  Uiso   1.00
H34    H     0.02105   0.58077   0.83678   0.00000  Uiso   1.00
H35    H     0.64810   0.55933   0.96761   0.00000  Uiso   1.00
H36    H     0.37363   0.76626   0.96059   0.00000  Uiso   1.00
H37    H     0.01056   0.59204   0.76624   0.00000  Uiso   1.00
O38    O     0.49013   0.68983   0.98414   0.00000  Uiso   1.00
O39    O     0.44199   0.96131   0.97493   0.00000  Uiso   1.00
O40    O     0.96566   0.73274   0.71994   0.00000  Uiso   1.00
N41    N     0.60269   0.80355   0.95517   0.00000  Uiso   1.00
N42    N     0.28100   0.99702   0.94861   0.00000  Uiso   1.00
N43    N     0.94160   0.83415   0.76691   0.00000  Uiso   1.00
N44    N     0.65097   0.63631   0.96070   0.00000  Uiso   1.00
N45    N     0.32928   0.82978   0.95415   0.00000  Uiso   1.00
N46    N     0.98988   0.66690   0.77244   0.00000  Uiso   1.00
C47    C     0.06255   0.10706   0.38974   0.00000  Uiso   1.00
C48    C     0.14301   0.17257   0.40912   0.00000  Uiso   1.00
C49    C     0.23756   0.13448   0.42233   0.00000  Uiso   1.00
C50    C     0.30026   0.20710   0.43923   0.00000  Uiso   1.00
C51    C     0.42987   0.29255   0.46880   0.00000  Uiso   1.00
C52    C     0.95607   0.11925   0.40732   0.00000  Uiso   1.00
C53    C     0.89344   0.03633   0.41901   0.00000  Uiso   1.00
C54    C     0.79875   0.06406   0.43439   0.00000  Uiso   1.00
C55    C     0.63810   0.06673   0.46114   0.00000  Uiso   1.00
C56    C     0.04963   0.16414   0.35724   0.00000  Uiso   1.00
C57    C     0.06563   0.11896   0.32683   0.00000  Uiso   1.00
C58    C     0.04969   0.18448   0.30005   0.00000  Uiso   1.00
C59    C     0.03430   0.25685   0.24905   0.00000  Uiso   1.00
C60    C     0.00576   0.30374   0.39625   0.00000  Uiso   1.00
C61    C     0.11217   0.27940   0.41265   0.00000  Uiso   1.00
C62    C     0.17474   0.35209   0.42954   0.00000  Uiso   1.00
C63    C     0.26936   0.31412   0.44277   0.00000  Uiso   1.00
C64    C     0.92523   0.22607   0.41085   0.00000  Uiso   1.00
C65    C     0.83062   0.25393   0.42622   0.00000  Uiso   1.00
C66    C     0.76786   0.17108   0.43793   0.00000  Uiso   1.00
C67    C     0.01879   0.27097   0.36077   0.00000  Uiso   1.00
C68    C     0.00281   0.33657   0.33403   0.00000  Uiso   1.00
C69    C     0.01879   0.29150   0.30359   0.00000  Uiso   1.00
H70    H     0.08655   0.02389   0.38698   0.00000  Uiso   1.00
H71    H     0.26139   0.05180   0.41959   0.00000  Uiso   1.00
H72    H     0.91732   0.95367   0.41627   0.00000  Uiso   1.00
H73    H     0.08949   0.03629   0.32410   0.00000  Uiso   1.00
H74    H     0.44162   0.12986   0.45731   0.00000  Uiso   1.00
H75    H     0.71610   0.92293   0.45030   0.00000  Uiso   1.00
H76    H     0.07916   0.09715   0.25595   0.00000  Uiso   1.00
H77    H     0.98175   0.38691   0.39900   0.00000  Uiso   1.00
H78    H     0.15085   0.43475   0.43227   0.00000  Uiso   1.00
H79    H     0.80677   0.33661   0.42895   0.00000  Uiso   1.00
H80    H     0.97895   0.41923   0.33678   0.00000  Uiso   1.00
H81    H     0.35190   0.44067   0.46761   0.00000  Uiso   1.00
H82    H     0.62637   0.23374   0.46059   0.00000  Uiso   1.00
H83    H     0.98944   0.40796   0.26624   0.00000  Uiso   1.00
O84    O     0.50987   0.31017   0.48414   0.00000  Uiso   1.00
O85    O     0.55801   0.03869   0.47493   0.00000  Uiso   1.00
O86    O     0.03434   0.26726   0.21994   0.00000  Uiso   1.00
N87    N     0.39731   0.19645   0.45517   0.00000  Uiso   1.00
N88    N     0.71900   0.00298   0.44861   0.00000  Uiso   1.00
N89    N     0.05840   0.16585   0.26691   0.00000  Uiso   1.00
N90    N     0.34903   0.36369   0.46070   0.00000  Uiso   1.00
N91    N     0.67072   0.17022   0.45415   0.00000  Uiso   1.00
N92    N     0.01012   0.33310   0.27244   0.00000  Uiso   1.00
C93    C     0.60706   0.43745   0.63974   0.00000  Uiso   1.00
C94    C     0.67257   0.35699   0.65912   0.00000  Uiso   1.00
C95    C     0.63448   0.26244   0.67233   0.00000  Uiso   1.00
C96    C     0.70710   0.19974   0.68923   0.00000  Uiso   1.00
C97    C     0.79255   0.07013   0.71880   0.00000  Uiso   1.00
C98    C     0.61925   0.54393   0.65732   0.00000  Uiso   1.00
C99    C     0.53633   0.60656   0.66901   0.00000  Uiso   1.00
C100   C     0.56406   0.70125   0.68439   0.00000  Uiso   1.00
C101   C     0.56673   0.86190   0.71114   0.00000  Uiso   1.00
C102   C     0.66414   0.45037   0.60724   0.00000  Uiso   1.00
C103   C     0.61896   0.43437   0.57683   0.00000  Uiso   1.00
C104   C     0.68448   0.45031   0.55005   0.00000  Uiso   1.00
C105   C     0.75685   0.46570   0.49905   0.00000  Uiso   1.00
C106   C     0.80374   0.49424   0.64625   0.00000  Uiso   1.00
C107   C     0.77940   0.38783   0.66265   0.00000  Uiso   1.00
C108   C     0.85209   0.32526   0.67954   0.00000  Uiso   1.00
C109   C     0.81412   0.23064   0.69277   0.00000  Uiso   1.00
C110   C     0.72607   0.57477   0.66085   0.00000  Uiso   1.00
C111   C     0.75393   0.66938   0.67622   0.00000  Uiso   1.00
C112   C     0.67108   0.73214   0.68793   0.00000  Uiso   1.00
C113   C     0.77097   0.48121   0.61077   0.00000  Uiso   1.00
C114   C     0.83657   0.49719   0.58403   0.00000  Uiso   1.00
C115   C     0.79150   0.48121   0.55359   0.00000  Uiso   1.00
H116   H     0.52389   0.41345   0.63698   0.00000  Uiso   1.00
H117   H     0.55180   0.23861   0.66959   0.00000  Uiso   1.00
H118   H     0.45367   0.58268   0.66627   0.00000  Uiso   1.00
H119   H     0.53629   0.41051   0.57410   0.00000  Uiso   1.00
H120   H     0.62986   0.05838   0.70731   0.00000  Uiso   1.00
H121   H     0.42293   0.78390   0.70030   0.00000  Uiso   1.00
H122   H     0.59715   0.42084   0.50595   0.00000  Uiso   1.00
H123   H     0.88691   0.51825   0.64900   0.00000  Uiso   1.00
H124   H     0.93475   0.34915   0.68227   0.00000  Uiso   1.00
H125   H     0.83661   0.69323   0.67895   0.00000  Uiso   1.00
H126   H     0.91923   0.52105   0.58678   0.00000  Uiso   1.00
H127   H     0.94067   0.14810   0.71761   0.00000  Uiso   1.00
H128   H     0.73374   0.87363   0.71059   0.00000  Uiso   1.00
H129   H     0.90796   0.51056   0.51624   0.00000  Uiso   1.00
O130   O     0.81017   0.99013   0.73414   0.00000  Uiso   1.00
O131   O     0.53869   0.94199   0.72493   0.00000  Uiso   1.00
O132   O     0.76726   0.46566   0.46994   0.00000  Uiso   1.00
N133   N     0.69645   0.10269   0.70517   0.00000  Uiso   1.00
N134   N     0.50298   0.78100   0.69861   0.00000  Uiso   1.00
N135   N     0.66585   0.44160   0.51691   0.00000  Uiso   1.00
N136   N     0.86369   0.15097   0.71070   0.00000  Uiso   1.00
N137   N     0.67022   0.82928   0.70415   0.00000  Uiso   1.00
N138   N     0.83310   0.48988   0.52244   0.00000  Uiso   1.00
C139   C     0.39294   0.56255   0.13974   0.00000  Uiso   1.00
C140   C     0.32743   0.64301   0.15912   0.00000  Uiso   1.00
C141   C     0.36552   0.73756   0.17233   0.00000  Uiso   1.00
C142   C     0.29290   0.80026   0.18923   0.00000  Uiso   1.00
C143   C     0.20745   0.92987   0.21880   0.00000  Uiso   1.00
C144   C     0.38075   0.45607   0.15732   0.00000  Uiso   1.00
C145   C     0.46367   0.39344   0.16901   0.00000  Uiso   1.00
C146   C     0.43594   0.29875   0.18439   0.00000  Uiso   1.00
C147   C     0.43327   0.13810   0.21114   0.00000  Uiso   1.00
C148   C     0.33586   0.54963   0.10724   0.00000  Uiso   1.00
C149   C     0.38104   0.56563   0.07683   0.00000  Uiso   1.00
C150   C     0.31552   0.54969   0.05005   0.00000  Uiso   1.00
C151   C     0.24315   0.53430   0.99905   0.00000  Uiso   1.00
C152   C     0.19626   0.50576   0.14625   0.00000  Uiso   1.00
C153   C     0.22060   0.61217   0.16265   0.00000  Uiso   1.00
C154   C     0.14791   0.67474   0.17954   0.00000  Uiso   1.00
C155   C     0.18588   0.76936   0.19277   0.00000  Uiso   1.00
C156   C     0.27393   0.42523   0.16085   0.00000  Uiso   1.00
C157   C     0.24607   0.33062   0.17622   0.00000  Uiso   1.00
C158   C     0.32892   0.26786   0.18793   0.00000  Uiso   1.00
C159   C     0.22903   0.51879   0.11077   0.00000  Uiso   1.00
C160   C     0.16343   0.50281   0.08403   0.00000  Uiso   1.00
C161   C     0.20850   0.51879   0.05359   0.00000  Uiso   1.00
H162   H     0.47611   0.58655   0.13698   0.00000  Uiso   1.00
H163   H     0.44820   0.76139   0.16959   0.00000  Uiso   1.00
H164   H     0.54633   0.41732   0.16627   0.00000  Uiso   1.00
H165   H     0.46371   0.58949   0.07410   0.00000  Uiso   1.00
H166   H     0.37014   0.94162   0.20731   0.00000  Uiso   1.00
H167   H     0.57707   0.21610   0.20030   0.00000  Uiso   1.00
H168   H     0.40285   0.57916   0.00595   0.00000  Uiso   1.00
H169   H     0.11309   0.48175   0.14900   0.00000  Uiso   1.00
H170   H     0.06525   0.65085   0.18227   0.00000  Uiso   1.00
H171   H     0.16339   0.30677   0.17895   0.00000  Uiso   1.00
H172   H     0.08077   0.47895   0.08678   0.00000  Uiso   1.00
H173   H     0.05933   0.85190   0.21761   0.00000  Uiso   1.00
H174   H     0.26626   0.12637   0.21059   0.00000  Uiso   1.00
H175   H     0.09204   0.48944   0.01624   0.00000  Uiso   1.00
O176   O     0.18983   0.00987   0.23414   0.00000  Uiso   1.00
O177   O     0.46131   0.05801   0.22493   0.00000  Uiso   1.00
O178   O     0.23274   0.53434   0.96994   0.00000  Uiso   1.00
N179   N     0.30355   0.89731   0.20517   0.00000  Uiso   1.00
N180   N     0.49702   0.21900   0.19861   0.00000  Uiso   1.00
N181   N     0.33415   0.55840   0.01691   0.00000  Uiso   1.00
N182   N     0.13631   0.84903   0.21070   0.00000  Uiso   1.00
N183   N     0.32978   0.17072   0.20415   0.00000  Uiso   1.00
N184   N     0.16690   0.51012   0.02244   0.00000  Uiso   1.00
C185   C     0.56255   0.39294   0.86026   0.00000  Uiso   1.00
C186   C     0.64301   0.32743   0.84088   0.00000  Uiso   1.00
C187   C     0.73756   0.36552   0.82767   0.00000  Uiso   1.00
C188   C     0.80026   0.29290   0.81077   0.00000  Uiso   1.00
C189   C     0.92987   0.20745   0.78120   0.00000  Uiso   1.00
C190   C     0.45607   0.38075   0.84268   0.00000  Uiso   1.00
C191   C     0.39344   0.46367   0.83099   0.00000  Uiso   1.00
C192   C     0.29875   0.43594   0.81561   0.00000  Uiso   1.00
C193   C     0.13810   0.43327   0.78886   0.00000  Uiso   1.00
C194   C     0.54963   0.33586   0.89276   0.00000  Uiso   1.00
C195   C     0.56563   0.38104   0.92317   0.00000  Uiso   1.00
C196   C     0.54969   0.31552   0.94995   0.00000  Uiso   1.00
C197   C     0.53430   0.24315   0.00095   0.00000  Uiso   1.00
C198   C     0.50576   0.19626   0.85375   0.00000  Uiso   1.00
C199   C     0.61217   0.22060   0.83735   0.00000  Uiso   1.00
C200   C     0.67474   0.14791   0.82046   0.00000  Uiso   1.00
C201   C     0.76936   0.18588   0.80723   0.00000  Uiso   1.00
C202   C     0.42523   0.27393   0.83915   0.00000  Uiso   1.00
C203   C     0.33062   0.24607   0.82378   0.00000  Uiso   1.00
C204   C     0.26786   0.32892   0.81207   0.00000  Uiso   1.00
C205   C     0.51879   0.22903   0.88923   0.00000  Uiso   1.00
C206   C     0.50281   0.16343   0.91597   0.00000  Uiso   1.00
C207   C     0.51879   0.20850   0.94641   0.00000  Uiso   1.00
H208   H     0.58655   0.47611   0.86302   0.00000  Uiso   1.00
H209   H     0.76139   0.44820   0.83041   0.00000  Uiso   1.00
H210   H     0.41732   0.54633   0.83373   0.00000  Uiso   1.00
H211   H     0.58949   0.46371   0.92590   0.00000  Uiso   1.00
H212   H     0.94162   0.37014   0.79269   0.00000  Uiso   1.00
H213   H     0.21610   0.57707   0.79970   0.00000  Uiso   1.00
H214   H     0.57916   0.40285   0.99405   0.00000  Uiso   1.00
H215   H     0.48175   0.11309   0.85100   0.00000  Uiso   1.00
H216   H     0.65085   0.06525   0.81773   0.00000  Uiso   1.00
H217   H     0.30677   0.16339   0.82105   0.00000  Uiso   1.00
H218   H     0.47895   0.08077   0.91322   0.00000  Uiso   1.00
H219   H     0.85190   0.05933   0.78239   0.00000  Uiso   1.00
H220   H     0.12637   0.26626   0.78941   0.00000  Uiso   1.00
H221   H     0.48944   0.09204   0.98376   0.00000  Uiso   1.00
O222   O     0.00987   0.18983   0.76586   0.00000  Uiso   1.00
O223   O     0.05801   0.46131   0.77507   0.00000  Uiso   1.00
O224   O     0.53434   0.23274   0.03006   0.00000  Uiso   1.00
N225   N     0.89731   0.30355   0.79483   0.00000  Uiso   1.00
N226   N     0.21900   0.49702   0.80139   0.00000  Uiso   1.00
N227   N     0.55840   0.33415   0.98309   0.00000  Uiso   1.00
N228   N     0.84903   0.13631   0.78930   0.00000  Uiso   1.00
N229   N     0.17072   0.32978   0.79585   0.00000  Uiso   1.00
N230   N     0.51012   0.16690   0.97756   0.00000  Uiso   1.00
C231   C     0.43745   0.60706   0.36026   0.00000  Uiso   1.00
C232   C     0.35699   0.67257   0.34088   0.00000  Uiso   1.00
C233   C     0.26244   0.63448   0.32767   0.00000  Uiso   1.00
C234   C     0.19974   0.70710   0.31077   0.00000  Uiso   1.00
C235   C     0.07013   0.79255   0.28120   0.00000  Uiso   1.00
C236   C     0.54393   0.61925   0.34268   0.00000  Uiso   1.00
C237   C     0.60656   0.53633   0.33099   0.00000  Uiso   1.00
C238   C     0.70125   0.56406   0.31561   0.00000  Uiso   1.00
C239   C     0.86190   0.56673   0.28886   0.00000  Uiso   1.00
C240   C     0.45037   0.66414   0.39276   0.00000  Uiso   1.00
C241   C     0.43437   0.61896   0.42317   0.00000  Uiso   1.00
C242   C     0.45031   0.68448   0.44995   0.00000  Uiso   1.00
C243   C     0.46570   0.75685   0.50095   0.00000  Uiso   1.00
C244   C     0.49424   0.80374   0.35375   0.00000  Uiso   1.00
C245   C     0.38783   0.77940   0.33735   0.00000  Uiso   1.00
C246   C     0.32526   0.85209   0.32046   0.00000  Uiso   1.00
C247   C     0.23064   0.81412   0.30723   0.00000  Uiso   1.00
C248   C     0.57477   0.72607   0.33915   0.00000  Uiso   1.00
C249   C     0.66938   0.75393   0.32378   0.00000  Uiso   1.00
C250   C     0.73214   0.67108   0.31207   0.00000  Uiso   1.00
C251   C     0.48121   0.77097   0.38923   0.00000  Uiso   1.00
C252   C     0.49719   0.83657   0.41597   0.00000  Uiso   1.00
C253   C     0.48121   0.79150   0.44641   0.00000  Uiso   1.00
H254   H     0.41345   0.52389   0.36302   0.00000  Uiso   1.00
H255   H     0.23861   0.55180   0.33041   0.00000  Uiso   1.00
H256   H     0.58268   0.45367   0.33373   0.00000  Uiso   1.00
H257   H     0.41051   0.53629   0.42590   0.00000  Uiso   1.00
H258   H     0.05838   0.62986   0.29269   0.00000  Uiso   1.00
H259   H     0.78390   0.42293   0.29970   0.00000  Uiso   1.00
H260   H     0.42084   0.59715   0.49405   0.00000  Uiso   1.00
H261   H     0.51825   0.88691   0.35100   0.00000  Uiso   1.00
H262   H     0.34915   0.93475   0.31773   0.00000  Uiso   1.00
H263   H     0.69323   0.83661   0.32105   0.00000  Uiso   1.00
H264   H     0.52105   0.91923   0.41322   0.00000  Uiso   1.00
H265   H     0.14810   0.94067   0.28239   0.00000  Uiso   1.00
H266   H     0.87363   0.73374   0.28941   0.00000  Uiso   1.00
H267   H     0.51056   0.90796   0.48376   0.00000  Uiso   1.00
O268   O     0.99013   0.81017   0.26586   0.00000  Uiso   1.00
O269   O     0.94199   0.53869   0.27507   0.00000  Uiso   1.00
O270   O     0.46566   0.76726   0.53006   0.00000  Uiso   1.00
N271   N     0.10269   0.69645   0.29483   0.00000  Uiso   1.00
N272   N     0.78100   0.50298   0.30139   0.00000  Uiso   1.00
N273   N     0.44160   0.66585   0.48309   0.00000  Uiso   1.00
N274   N     0.15097   0.86369   0.28930   0.00000  Uiso   1.00
N275   N     0.82928   0.67022   0.29585   0.00000  Uiso   1.00
N276   N     0.48988   0.83310   0.47756   0.00000  Uiso   1.00
C277   C     0.89294   0.93745   0.11026   0.00000  Uiso   1.00
C278   C     0.82743   0.85699   0.09088   0.00000  Uiso   1.00
C279   C     0.86552   0.76244   0.07767   0.00000  Uiso   1.00
C280   C     0.79290   0.69974   0.06077   0.00000  Uiso   1.00
C281   C     0.70745   0.57013   0.03120   0.00000  Uiso   1.00
C282   C     0.88075   0.04393   0.09268   0.00000  Uiso   1.00
C283   C     0.96367   0.10656   0.08099   0.00000  Uiso   1.00
C284   C     0.93594   0.20125   0.06561   0.00000  Uiso   1.00
C285   C     0.93327   0.36190   0.03886   0.00000  Uiso   1.00
C286   C     0.83586   0.95037   0.14276   0.00000  Uiso   1.00
C287   C     0.88104   0.93437   0.17317   0.00000  Uiso   1.00
C288   C     0.81552   0.95031   0.19995   0.00000  Uiso   1.00
C289   C     0.74315   0.96570   0.25095   0.00000  Uiso   1.00
C290   C     0.69626   0.99424   0.10375   0.00000  Uiso   1.00
C291   C     0.72060   0.88783   0.08735   0.00000  Uiso   1.00
C292   C     0.64791   0.82526   0.07046   0.00000  Uiso   1.00
C293   C     0.68588   0.73064   0.05723   0.00000  Uiso   1.00
C294   C     0.77393   0.07477   0.08915   0.00000  Uiso   1.00
C295   C     0.74607   0.16938   0.07378   0.00000  Uiso   1.00
C296   C     0.82892   0.23214   0.06207   0.00000  Uiso   1.00
C297   C     0.72903   0.98121   0.13923   0.00000  Uiso   1.00
C298   C     0.66343   0.99719   0.16597   0.00000  Uiso   1.00
C299   C     0.70850   0.98121   0.19641   0.00000  Uiso   1.00
H300   H     0.97611   0.91345   0.11302   0.00000  Uiso   1.00
H301   H     0.94820   0.73861   0.08041   0.00000  Uiso   1.00
H302   H     0.04633   0.08268   0.08373   0.00000  Uiso   1.00
H303   H     0.96371   0.91051   0.17590   0.00000  Uiso   1.00
H304   H     0.87014   0.55838   0.04269   0.00000  Uiso   1.00
H305   H     0.07707   0.28390   0.04970   0.00000  Uiso   1.00
H306   H     0.90285   0.92084   0.24405   0.00000  Uiso   1.00
H307   H     0.61309   0.01825   0.10100   0.00000  Uiso   1.00
H308   H     0.56525   0.84915   0.06773   0.00000  Uiso   1.00
H309   H     0.66339   0.19323   0.07105   0.00000  Uiso   1.00
H310   H     0.58077   0.02105   0.16322   0.00000  Uiso   1.00
H311   H     0.55933   0.64810   0.03239   0.00000  Uiso   1.00
H312   H     0.76626   0.37363   0.03941   0.00000  Uiso   1.00
H313   H     0.59204   0.01056   0.23376   0.00000  Uiso   1.00
O314   O     0.68983   0.49013   0.01586   0.00000  Uiso   1.00
O315   O     0.96131   0.44199   0.02507   0.00000  Uiso   1.00
O316   O     0.73274   0.96566   0.28006   0.00000  Uiso   1.00
N317   N     0.80355   0.60269   0.04483   0.00000  Uiso   1.00
N318   N     0.99702   0.28100   0.05139   0.00000  Uiso   1.00
N319   N     0.83415   0.94160   0.23309   0.00000  Uiso   1.00
N320   N     0.63631   0.65097   0.03930   0.00000  Uiso   1.00
N321   N     0.82978   0.32928   0.04585   0.00000  Uiso   1.00
N322   N     0.66690   0.98988   0.22756   0.00000  Uiso   1.00
C323   C     0.10706   0.06255   0.61026   0.00000  Uiso   1.00
C324   C     0.17257   0.14301   0.59088   0.00000  Uiso   1.00
C325   C     0.13448   0.23756   0.57767   0.00000  Uiso   1.00
C326   C     0.20710   0.30026   0.56077   0.00000  Uiso   1.00
C327   C     0.29255   0.42987   0.53120   0.00000  Uiso   1.00
C328   C     0.11925   0.95607   0.59268   0.00000  Uiso   1.00
C329   C     0.03633   0.89344   0.58099   0.00000  Uiso   1.00
C330   C     0.06406   0.79875   0.56561   0.00000  Uiso   1.00
C331   C     0.06673   0.63810   0.53886   0.00000  Uiso   1.00
C332   C     0.16414   0.04963   0.64276   0.00000  Uiso   1.00
C333   C     0.11896   0.06563   0.67317   0.00000  Uiso   1.00
C334   C     0.18448   0.04969   0.69995   0.00000  Uiso   1.00
C335   C     0.25685   0.03430   0.75095   0.00000  Uiso   1.00
C336   C     0.30374   0.00576   0.60375   0.00000  Uiso   1.00
C337   C     0.27940   0.11217   0.58735   0.00000  Uiso   1.00
C338   C     0.35209   0.17474   0.57046   0.00000  Uiso   1.00
C339   C     0.31412   0.26936   0.55723   0.00000  Uiso   1.00
C340   C     0.22607   0.92523   0.58915   0.00000  Uiso   1.00
C341   C     0.25393   0.83062   0.57378   0.00000  Uiso   1.00
C342   C     0.17108   0.76786   0.56207   0.00000  Uiso   1.00
C343   C     0.27097   0.01879   0.63923   0.00000  Uiso   1.00
C344   C     0.33657   0.00281   0.66597   0.00000  Uiso   1.00
C345   C     0.29150   0.01879   0.69641   0.00000  Uiso   1.00
H346   H     0.02389   0.08655   0.61302   0.00000  Uiso   1.00
H347   H     0.05180   0.26139   0.58041   0.00000  Uiso   1.00
H348   H     0.95367   0.91732   0.58373   0.00000  Uiso   1.00
H349   H     0.03629   0.08949   0.67590   0.00000  Uiso   1.00
H350   H     0.12986   0.44162   0.54269   0.00000  Uiso   1.00
H351   H     0.92293   0.71610   0.54970   0.00000  Uiso   1.00
H352   H     0.09715   0.07916   0.74405   0.00000  Uiso   1.00
H353   H     0.38691   0.98175   0.60100   0.00000  Uiso   1.00
H354   H     0.43475   0.15085   0.56773   0.00000  Uiso   1.00
H355   H     0.33661   0.80677   0.57105   0.00000  Uiso   1.00
H356   H     0.41923   0.97895   0.66322   0.00000  Uiso   1.00
H357   H     0.44067   0.35190   0.53239   0.00000  Uiso   1.00
H358   H     0.23374   0.62637   0.53941   0.00000  Uiso   1.00
H359   H     0.40796   0.98944   0.73376   0.00000  Uiso   1.00
O360   O     0.31017   0.50987   0.51586   0.00000  Uiso   1.00
O361   O     0.03869   0.55801   0.52507   0.00000  Uiso   1.00
O362   O     0.26726   0.03434   0.78006   0.00000  Uiso   1.00
N363   N     0.19645   0.39731   0.54483   0.00000  Uiso   1.00
N364   N     0.00298   0.71900   0.55139   0.00000  Uiso   1.00
N365   N     0.16585   0.05840   0.73309   0.00000  Uiso   1.00
N366   N     0.36369   0.34903   0.53930   0.00000  Uiso   1.00
N367   N     0.17022   0.67072   0.54585   0.00000  Uiso   1.00
N368   N     0.33310   0.01012   0.72756   0.00000  Uiso   1.00
