data_job_01570
_audit_creation_date              2018-12-19
_audit_creation_method            'Materials Studio'
_symmetry_space_group_name_H-M    'P1'
_symmetry_Int_Tables_number       1
_symmetry_cell_setting            triclinic
loop_
_symmetry_equiv_pos_as_xyz
  x,y,z
_cell_length_a                    17.5982
_cell_length_b                    15.0460
_cell_length_c                    21.5955
_cell_angle_alpha                 90.0000
_cell_angle_beta                  90.0000
_cell_angle_gamma                 90.0000
loop_
_atom_site_label
_atom_site_type_symbol
_atom_site_fract_x
_atom_site_fract_y
_atom_site_fract_z
_atom_site_U_iso_or_equiv
_atom_site_adp_type
_atom_site_occupancy
C1     C     0.93027   0.20095   0.92553   0.00000  Uiso   1.00
C2     C     0.01325   0.17610   0.93624   0.00000  Uiso   1.00
C3     C     0.04885   0.09985   0.91467   0.00000  Uiso   1.00
C4     C     0.12510   0.08930   0.92943   0.00000  Uiso   1.00
C5     C     0.24797   0.04104   0.94075   0.00000  Uiso   1.00
C6     C     0.89578   0.21450   0.98961   0.00000  Uiso   1.00
C7     C     0.83262   0.17055   0.01291   0.00000  Uiso   1.00
C8     C     0.80999   0.19234   0.07260   0.00000  Uiso   1.00
C9     C     0.75046   0.20375   0.16677   0.00000  Uiso   1.00
C10    C     0.93120   0.29232   0.89499   0.00000  Uiso   1.00
C11    C     0.89780   0.31380   0.83873   0.00000  Uiso   1.00
C12    C     0.90498   0.40111   0.81876   0.00000  Uiso   1.00
C13    C     0.90045   0.53334   0.76601   0.00000  Uiso   1.00
C14    C     0.00239   0.31782   0.99011   0.00000  Uiso   1.00
C15    C     0.05241   0.23958   0.97132   0.00000  Uiso   1.00
C16    C     0.12863   0.22915   0.98612   0.00000  Uiso   1.00
C17    C     0.16434   0.15289   0.96457   0.00000  Uiso   1.00
C18    C     0.93495   0.27798   0.02469   0.00000  Uiso   1.00
C19    C     0.91241   0.29985   0.08436   0.00000  Uiso   1.00
C20    C     0.84923   0.25593   0.10774   0.00000  Uiso   1.00
C21    C     0.97037   0.35580   0.93006   0.00000  Uiso   1.00
C22    C     0.97760   0.44310   0.91018   0.00000  Uiso   1.00
C23    C     0.94422   0.46471   0.85390   0.00000  Uiso   1.00
H24    H     0.89977   0.15153   0.89822   0.00000  Uiso   1.00
H25    H     0.01851   0.05073   0.88753   0.00000  Uiso   1.00
H26    H     0.80231   0.12143   0.98575   0.00000  Uiso   1.00
H27    H     0.86749   0.26466   0.81160   0.00000  Uiso   1.00
H28    H     0.16742   0.96696   0.89116   0.00000  Uiso   1.00
H29    H     0.71154   0.11606   0.09827   0.00000  Uiso   1.00
H30    H     0.84898   0.41808   0.73103   0.00000  Uiso   1.00
H31    H     0.03288   0.36724   0.01742   0.00000  Uiso   1.00
H32    H     0.15893   0.27828   0.01326   0.00000  Uiso   1.00
H33    H     0.94273   0.34898   0.11149   0.00000  Uiso   1.00
H34    H     0.00791   0.49220   0.93734   0.00000  Uiso   1.00
H35    H     0.28139   0.15165   0.99321   0.00000  Uiso   1.00
H36    H     0.82551   0.30075   0.20032   0.00000  Uiso   1.00
H37    H     0.96295   0.60277   0.83308   0.00000  Uiso   1.00
O38    O     0.30492   0.99688   0.93732   0.00000  Uiso   1.00
O39    O     0.70681   0.19250   0.20903   0.00000  Uiso   1.00
O40    O     0.88714   0.58874   0.72722   0.00000  Uiso   1.00
N41    N     0.17695   0.02265   0.91574   0.00000  Uiso   1.00
N42    N     0.75074   0.16203   0.10937   0.00000  Uiso   1.00
N43    N     0.87922   0.44440   0.76604   0.00000  Uiso   1.00
N44    N     0.23828   0.12203   0.97065   0.00000  Uiso   1.00
N45    N     0.81206   0.26141   0.16429   0.00000  Uiso   1.00
N46    N     0.94054   0.54378   0.82096   0.00000  Uiso   1.00
C47    C     0.56973   0.29905   0.42553   0.00000  Uiso   1.00
C48    C     0.48675   0.32390   0.43624   0.00000  Uiso   1.00
C49    C     0.45115   0.40015   0.41467   0.00000  Uiso   1.00
C50    C     0.37490   0.41070   0.42943   0.00000  Uiso   1.00
C51    C     0.25203   0.45896   0.44075   0.00000  Uiso   1.00
C52    C     0.60422   0.28550   0.48961   0.00000  Uiso   1.00
C53    C     0.66738   0.32945   0.51291   0.00000  Uiso   1.00
C54    C     0.69001   0.30766   0.57260   0.00000  Uiso   1.00
C55    C     0.74954   0.29625   0.66677   0.00000  Uiso   1.00
C56    C     0.56880   0.20768   0.39499   0.00000  Uiso   1.00
C57    C     0.60220   0.18620   0.33873   0.00000  Uiso   1.00
C58    C     0.59502   0.09889   0.31876   0.00000  Uiso   1.00
C59    C     0.59955   0.96666   0.26601   0.00000  Uiso   1.00
C60    C     0.49761   0.18218   0.49011   0.00000  Uiso   1.00
C61    C     0.44759   0.26042   0.47132   0.00000  Uiso   1.00
C62    C     0.37137   0.27085   0.48612   0.00000  Uiso   1.00
C63    C     0.33566   0.34711   0.46457   0.00000  Uiso   1.00
C64    C     0.56505   0.22202   0.52469   0.00000  Uiso   1.00
C65    C     0.58759   0.20015   0.58436   0.00000  Uiso   1.00
C66    C     0.65077   0.24407   0.60774   0.00000  Uiso   1.00
C67    C     0.52963   0.14420   0.43006   0.00000  Uiso   1.00
C68    C     0.52240   0.05690   0.41018   0.00000  Uiso   1.00
C69    C     0.55578   0.03529   0.35390   0.00000  Uiso   1.00
H70    H     0.60023   0.34847   0.39822   0.00000  Uiso   1.00
H71    H     0.48149   0.44927   0.38753   0.00000  Uiso   1.00
H72    H     0.69769   0.37857   0.48575   0.00000  Uiso   1.00
H73    H     0.63251   0.23534   0.31160   0.00000  Uiso   1.00
H74    H     0.33258   0.53304   0.39116   0.00000  Uiso   1.00
H75    H     0.78846   0.38394   0.59827   0.00000  Uiso   1.00
H76    H     0.65102   0.08192   0.23103   0.00000  Uiso   1.00
H77    H     0.46712   0.13276   0.51742   0.00000  Uiso   1.00
H78    H     0.34107   0.22172   0.51326   0.00000  Uiso   1.00
H79    H     0.55727   0.15102   0.61149   0.00000  Uiso   1.00
H80    H     0.49209   0.00780   0.43734   0.00000  Uiso   1.00
H81    H     0.21861   0.34835   0.49321   0.00000  Uiso   1.00
H82    H     0.67449   0.19925   0.70032   0.00000  Uiso   1.00
H83    H     0.53705   0.89723   0.33308   0.00000  Uiso   1.00
O84    O     0.19508   0.50312   0.43732   0.00000  Uiso   1.00
O85    O     0.79319   0.30750   0.70903   0.00000  Uiso   1.00
O86    O     0.61286   0.91126   0.22722   0.00000  Uiso   1.00
N87    N     0.32305   0.47735   0.41574   0.00000  Uiso   1.00
N88    N     0.74926   0.33797   0.60937   0.00000  Uiso   1.00
N89    N     0.62078   0.05560   0.26604   0.00000  Uiso   1.00
N90    N     0.26172   0.37797   0.47065   0.00000  Uiso   1.00
N91    N     0.68794   0.23859   0.66429   0.00000  Uiso   1.00
N92    N     0.55946   0.95622   0.32096   0.00000  Uiso   1.00
C93    C     0.06973   0.20095   0.57447   0.00000  Uiso   1.00
C94    C     0.98675   0.17610   0.56376   0.00000  Uiso   1.00
C95    C     0.95115   0.09985   0.58533   0.00000  Uiso   1.00
C96    C     0.87490   0.08930   0.57057   0.00000  Uiso   1.00
C97    C     0.75203   0.04104   0.55925   0.00000  Uiso   1.00
C98    C     0.10422   0.21450   0.51039   0.00000  Uiso   1.00
C99    C     0.16738   0.17055   0.48709   0.00000  Uiso   1.00
C100   C     0.19001   0.19234   0.42740   0.00000  Uiso   1.00
C101   C     0.24954   0.20375   0.33323   0.00000  Uiso   1.00
C102   C     0.06880   0.29232   0.60501   0.00000  Uiso   1.00
C103   C     0.10220   0.31380   0.66127   0.00000  Uiso   1.00
C104   C     0.09502   0.40111   0.68124   0.00000  Uiso   1.00
C105   C     0.09955   0.53334   0.73399   0.00000  Uiso   1.00
C106   C     0.99761   0.31782   0.50989   0.00000  Uiso   1.00
C107   C     0.94759   0.23958   0.52868   0.00000  Uiso   1.00
C108   C     0.87137   0.22915   0.51388   0.00000  Uiso   1.00
C109   C     0.83566   0.15289   0.53543   0.00000  Uiso   1.00
C110   C     0.06505   0.27798   0.47531   0.00000  Uiso   1.00
C111   C     0.08759   0.29985   0.41564   0.00000  Uiso   1.00
C112   C     0.15077   0.25593   0.39226   0.00000  Uiso   1.00
C113   C     0.02963   0.35580   0.56994   0.00000  Uiso   1.00
C114   C     0.02240   0.44310   0.58982   0.00000  Uiso   1.00
C115   C     0.05578   0.46471   0.64610   0.00000  Uiso   1.00
H116   H     0.10023   0.15153   0.60178   0.00000  Uiso   1.00
H117   H     0.98149   0.05073   0.61247   0.00000  Uiso   1.00
H118   H     0.19769   0.12143   0.51425   0.00000  Uiso   1.00
H119   H     0.13251   0.26466   0.68840   0.00000  Uiso   1.00
H120   H     0.83258   0.96696   0.60884   0.00000  Uiso   1.00
H121   H     0.28846   0.11606   0.40173   0.00000  Uiso   1.00
H122   H     0.15102   0.41808   0.76897   0.00000  Uiso   1.00
H123   H     0.96712   0.36724   0.48258   0.00000  Uiso   1.00
H124   H     0.84107   0.27828   0.48674   0.00000  Uiso   1.00
H125   H     0.05727   0.34898   0.38851   0.00000  Uiso   1.00
H126   H     0.99209   0.49220   0.56266   0.00000  Uiso   1.00
H127   H     0.71861   0.15165   0.50679   0.00000  Uiso   1.00
H128   H     0.17449   0.30075   0.29968   0.00000  Uiso   1.00
H129   H     0.03705   0.60277   0.66692   0.00000  Uiso   1.00
O130   O     0.69508   0.99688   0.56268   0.00000  Uiso   1.00
O131   O     0.29319   0.19250   0.29097   0.00000  Uiso   1.00
O132   O     0.11286   0.58874   0.77278   0.00000  Uiso   1.00
N133   N     0.82305   0.02265   0.58426   0.00000  Uiso   1.00
N134   N     0.24926   0.16203   0.39063   0.00000  Uiso   1.00
N135   N     0.12078   0.44440   0.73396   0.00000  Uiso   1.00
N136   N     0.76172   0.12203   0.52935   0.00000  Uiso   1.00
N137   N     0.18794   0.26141   0.33571   0.00000  Uiso   1.00
N138   N     0.05946   0.54378   0.67904   0.00000  Uiso   1.00
C139   C     0.43027   0.29905   0.07447   0.00000  Uiso   1.00
C140   C     0.51325   0.32390   0.06376   0.00000  Uiso   1.00
C141   C     0.54885   0.40015   0.08533   0.00000  Uiso   1.00
C142   C     0.62510   0.41070   0.07057   0.00000  Uiso   1.00
C143   C     0.74797   0.45896   0.05925   0.00000  Uiso   1.00
C144   C     0.39578   0.28550   0.01039   0.00000  Uiso   1.00
C145   C     0.33262   0.32945   0.98709   0.00000  Uiso   1.00
C146   C     0.30999   0.30766   0.92740   0.00000  Uiso   1.00
C147   C     0.25046   0.29625   0.83323   0.00000  Uiso   1.00
C148   C     0.43120   0.20768   0.10501   0.00000  Uiso   1.00
C149   C     0.39780   0.18620   0.16127   0.00000  Uiso   1.00
C150   C     0.40498   0.09889   0.18124   0.00000  Uiso   1.00
C151   C     0.40045   0.96666   0.23399   0.00000  Uiso   1.00
C152   C     0.50239   0.18218   0.00989   0.00000  Uiso   1.00
C153   C     0.55241   0.26042   0.02868   0.00000  Uiso   1.00
C154   C     0.62863   0.27085   0.01388   0.00000  Uiso   1.00
C155   C     0.66434   0.34711   0.03543   0.00000  Uiso   1.00
C156   C     0.43495   0.22202   0.97531   0.00000  Uiso   1.00
C157   C     0.41241   0.20015   0.91564   0.00000  Uiso   1.00
C158   C     0.34923   0.24407   0.89226   0.00000  Uiso   1.00
C159   C     0.47037   0.14420   0.06994   0.00000  Uiso   1.00
C160   C     0.47760   0.05690   0.08982   0.00000  Uiso   1.00
C161   C     0.44422   0.03529   0.14610   0.00000  Uiso   1.00
H162   H     0.39977   0.34847   0.10178   0.00000  Uiso   1.00
H163   H     0.51851   0.44927   0.11247   0.00000  Uiso   1.00
H164   H     0.30231   0.37857   0.01425   0.00000  Uiso   1.00
H165   H     0.36749   0.23534   0.18840   0.00000  Uiso   1.00
H166   H     0.66742   0.53304   0.10884   0.00000  Uiso   1.00
H167   H     0.21154   0.38394   0.90173   0.00000  Uiso   1.00
H168   H     0.34898   0.08192   0.26897   0.00000  Uiso   1.00
H169   H     0.53288   0.13276   0.98258   0.00000  Uiso   1.00
H170   H     0.65893   0.22172   0.98674   0.00000  Uiso   1.00
H171   H     0.44273   0.15102   0.88851   0.00000  Uiso   1.00
H172   H     0.50791   0.00780   0.06266   0.00000  Uiso   1.00
H173   H     0.78139   0.34835   0.00679   0.00000  Uiso   1.00
H174   H     0.32551   0.19925   0.79968   0.00000  Uiso   1.00
H175   H     0.46295   0.89723   0.16692   0.00000  Uiso   1.00
O176   O     0.80492   0.50312   0.06268   0.00000  Uiso   1.00
O177   O     0.20681   0.30750   0.79097   0.00000  Uiso   1.00
O178   O     0.38714   0.91126   0.27278   0.00000  Uiso   1.00
N179   N     0.67695   0.47735   0.08426   0.00000  Uiso   1.00
N180   N     0.25074   0.33797   0.89063   0.00000  Uiso   1.00
N181   N     0.37922   0.05560   0.23396   0.00000  Uiso   1.00
N182   N     0.73828   0.37797   0.02935   0.00000  Uiso   1.00
N183   N     0.31206   0.23859   0.83571   0.00000  Uiso   1.00
N184   N     0.44054   0.95622   0.17904   0.00000  Uiso   1.00
C185   C     0.06973   0.79905   0.07447   0.00000  Uiso   1.00
C186   C     0.98675   0.82390   0.06376   0.00000  Uiso   1.00
C187   C     0.95115   0.90015   0.08533   0.00000  Uiso   1.00
C188   C     0.87490   0.91070   0.07057   0.00000  Uiso   1.00
C189   C     0.75203   0.95896   0.05925   0.00000  Uiso   1.00
C190   C     0.10422   0.78550   0.01039   0.00000  Uiso   1.00
C191   C     0.16738   0.82945   0.98709   0.00000  Uiso   1.00
C192   C     0.19001   0.80766   0.92740   0.00000  Uiso   1.00
C193   C     0.24954   0.79625   0.83323   0.00000  Uiso   1.00
C194   C     0.06880   0.70768   0.10501   0.00000  Uiso   1.00
C195   C     0.10220   0.68620   0.16127   0.00000  Uiso   1.00
C196   C     0.09502   0.59889   0.18124   0.00000  Uiso   1.00
C197   C     0.09955   0.46666   0.23399   0.00000  Uiso   1.00
C198   C     0.99761   0.68218   0.00989   0.00000  Uiso   1.00
C199   C     0.94759   0.76042   0.02868   0.00000  Uiso   1.00
C200   C     0.87137   0.77085   0.01388   0.00000  Uiso   1.00
C201   C     0.83566   0.84711   0.03543   0.00000  Uiso   1.00
C202   C     0.06505   0.72202   0.97531   0.00000  Uiso   1.00
C203   C     0.08759   0.70015   0.91564   0.00000  Uiso   1.00
C204   C     0.15077   0.74407   0.89226   0.00000  Uiso   1.00
C205   C     0.02963   0.64420   0.06994   0.00000  Uiso   1.00
C206   C     0.02240   0.55690   0.08982   0.00000  Uiso   1.00
C207   C     0.05578   0.53529   0.14610   0.00000  Uiso   1.00
H208   H     0.10023   0.84847   0.10178   0.00000  Uiso   1.00
H209   H     0.98149   0.94927   0.11247   0.00000  Uiso   1.00
H210   H     0.19769   0.87857   0.01425   0.00000  Uiso   1.00
H211   H     0.13251   0.73534   0.18840   0.00000  Uiso   1.00
H212   H     0.83258   0.03304   0.10884   0.00000  Uiso   1.00
H213   H     0.28846   0.88394   0.90173   0.00000  Uiso   1.00
H214   H     0.15102   0.58192   0.26897   0.00000  Uiso   1.00
H215   H     0.96712   0.63276   0.98258   0.00000  Uiso   1.00
H216   H     0.84107   0.72172   0.98674   0.00000  Uiso   1.00
H217   H     0.05727   0.65102   0.88851   0.00000  Uiso   1.00
H218   H     0.99209   0.50780   0.06266   0.00000  Uiso   1.00
H219   H     0.71861   0.84835   0.00679   0.00000  Uiso   1.00
H220   H     0.17449   0.69925   0.79968   0.00000  Uiso   1.00
H221   H     0.03705   0.39723   0.16692   0.00000  Uiso   1.00
O222   O     0.69508   0.00312   0.06268   0.00000  Uiso   1.00
O223   O     0.29319   0.80750   0.79097   0.00000  Uiso   1.00
O224   O     0.11286   0.41126   0.27278   0.00000  Uiso   1.00
N225   N     0.82305   0.97735   0.08426   0.00000  Uiso   1.00
N226   N     0.24926   0.83797   0.89063   0.00000  Uiso   1.00
N227   N     0.12078   0.55560   0.23396   0.00000  Uiso   1.00
N228   N     0.76172   0.87797   0.02935   0.00000  Uiso   1.00
N229   N     0.18794   0.73859   0.83571   0.00000  Uiso   1.00
N230   N     0.05946   0.45622   0.17904   0.00000  Uiso   1.00
C231   C     0.43027   0.70095   0.57447   0.00000  Uiso   1.00
C232   C     0.51325   0.67610   0.56376   0.00000  Uiso   1.00
C233   C     0.54885   0.59985   0.58533   0.00000  Uiso   1.00
C234   C     0.62510   0.58930   0.57057   0.00000  Uiso   1.00
C235   C     0.74797   0.54104   0.55925   0.00000  Uiso   1.00
C236   C     0.39578   0.71450   0.51039   0.00000  Uiso   1.00
C237   C     0.33262   0.67055   0.48709   0.00000  Uiso   1.00
C238   C     0.30999   0.69234   0.42740   0.00000  Uiso   1.00
C239   C     0.25046   0.70375   0.33323   0.00000  Uiso   1.00
C240   C     0.43120   0.79232   0.60501   0.00000  Uiso   1.00
C241   C     0.39780   0.81380   0.66127   0.00000  Uiso   1.00
C242   C     0.40498   0.90111   0.68124   0.00000  Uiso   1.00
C243   C     0.40045   0.03334   0.73399   0.00000  Uiso   1.00
C244   C     0.50239   0.81782   0.50989   0.00000  Uiso   1.00
C245   C     0.55241   0.73958   0.52868   0.00000  Uiso   1.00
C246   C     0.62863   0.72915   0.51388   0.00000  Uiso   1.00
C247   C     0.66434   0.65289   0.53543   0.00000  Uiso   1.00
C248   C     0.43495   0.77798   0.47531   0.00000  Uiso   1.00
C249   C     0.41241   0.79985   0.41564   0.00000  Uiso   1.00
C250   C     0.34923   0.75593   0.39226   0.00000  Uiso   1.00
C251   C     0.47037   0.85580   0.56994   0.00000  Uiso   1.00
C252   C     0.47760   0.94310   0.58982   0.00000  Uiso   1.00
C253   C     0.44422   0.96471   0.64610   0.00000  Uiso   1.00
H254   H     0.39977   0.65153   0.60178   0.00000  Uiso   1.00
H255   H     0.51851   0.55073   0.61247   0.00000  Uiso   1.00
H256   H     0.30231   0.62143   0.51425   0.00000  Uiso   1.00
H257   H     0.36749   0.76466   0.68840   0.00000  Uiso   1.00
H258   H     0.66742   0.46696   0.60884   0.00000  Uiso   1.00
H259   H     0.21154   0.61606   0.40173   0.00000  Uiso   1.00
H260   H     0.34898   0.91808   0.76897   0.00000  Uiso   1.00
H261   H     0.53288   0.86724   0.48258   0.00000  Uiso   1.00
H262   H     0.65893   0.77828   0.48674   0.00000  Uiso   1.00
H263   H     0.44273   0.84898   0.38851   0.00000  Uiso   1.00
H264   H     0.50791   0.99220   0.56266   0.00000  Uiso   1.00
H265   H     0.78139   0.65165   0.50679   0.00000  Uiso   1.00
H266   H     0.32551   0.80075   0.29968   0.00000  Uiso   1.00
H267   H     0.46295   0.10277   0.66692   0.00000  Uiso   1.00
O268   O     0.80492   0.49688   0.56268   0.00000  Uiso   1.00
O269   O     0.20681   0.69250   0.29097   0.00000  Uiso   1.00
O270   O     0.38714   0.08874   0.77278   0.00000  Uiso   1.00
N271   N     0.67695   0.52265   0.58426   0.00000  Uiso   1.00
N272   N     0.25074   0.66203   0.39063   0.00000  Uiso   1.00
N273   N     0.37922   0.94440   0.73396   0.00000  Uiso   1.00
N274   N     0.73828   0.62203   0.52935   0.00000  Uiso   1.00
N275   N     0.31206   0.76141   0.33571   0.00000  Uiso   1.00
N276   N     0.44054   0.04378   0.67904   0.00000  Uiso   1.00
C277   C     0.93027   0.79905   0.42553   0.00000  Uiso   1.00
C278   C     0.01325   0.82390   0.43624   0.00000  Uiso   1.00
C279   C     0.04885   0.90015   0.41467   0.00000  Uiso   1.00
C280   C     0.12510   0.91070   0.42943   0.00000  Uiso   1.00
C281   C     0.24797   0.95896   0.44075   0.00000  Uiso   1.00
C282   C     0.89578   0.78550   0.48961   0.00000  Uiso   1.00
C283   C     0.83262   0.82945   0.51291   0.00000  Uiso   1.00
C284   C     0.80999   0.80766   0.57260   0.00000  Uiso   1.00
C285   C     0.75046   0.79625   0.66677   0.00000  Uiso   1.00
C286   C     0.93120   0.70768   0.39499   0.00000  Uiso   1.00
C287   C     0.89780   0.68620   0.33873   0.00000  Uiso   1.00
C288   C     0.90498   0.59889   0.31876   0.00000  Uiso   1.00
C289   C     0.90045   0.46666   0.26601   0.00000  Uiso   1.00
C290   C     0.00239   0.68218   0.49011   0.00000  Uiso   1.00
C291   C     0.05241   0.76042   0.47132   0.00000  Uiso   1.00
C292   C     0.12863   0.77085   0.48612   0.00000  Uiso   1.00
C293   C     0.16434   0.84711   0.46457   0.00000  Uiso   1.00
C294   C     0.93495   0.72202   0.52469   0.00000  Uiso   1.00
C295   C     0.91241   0.70015   0.58436   0.00000  Uiso   1.00
C296   C     0.84923   0.74407   0.60774   0.00000  Uiso   1.00
C297   C     0.97037   0.64420   0.43006   0.00000  Uiso   1.00
C298   C     0.97760   0.55690   0.41018   0.00000  Uiso   1.00
C299   C     0.94422   0.53529   0.35390   0.00000  Uiso   1.00
H300   H     0.89977   0.84847   0.39822   0.00000  Uiso   1.00
H301   H     0.01851   0.94927   0.38753   0.00000  Uiso   1.00
H302   H     0.80231   0.87857   0.48575   0.00000  Uiso   1.00
H303   H     0.86749   0.73534   0.31160   0.00000  Uiso   1.00
H304   H     0.16742   0.03304   0.39116   0.00000  Uiso   1.00
H305   H     0.71154   0.88394   0.59827   0.00000  Uiso   1.00
H306   H     0.84898   0.58192   0.23103   0.00000  Uiso   1.00
H307   H     0.03288   0.63276   0.51742   0.00000  Uiso   1.00
H308   H     0.15893   0.72172   0.51326   0.00000  Uiso   1.00
H309   H     0.94273   0.65102   0.61149   0.00000  Uiso   1.00
H310   H     0.00791   0.50780   0.43734   0.00000  Uiso   1.00
H311   H     0.28139   0.84835   0.49321   0.00000  Uiso   1.00
H312   H     0.82551   0.69925   0.70032   0.00000  Uiso   1.00
H313   H     0.96295   0.39723   0.33308   0.00000  Uiso   1.00
O314   O     0.30492   0.00312   0.43732   0.00000  Uiso   1.00
O315   O     0.70681   0.80750   0.70903   0.00000  Uiso   1.00
O316   O     0.88714   0.41126   0.22722   0.00000  Uiso   1.00
N317   N     0.17695   0.97735   0.41574   0.00000  Uiso   1.00
N318   N     0.75074   0.83797   0.60937   0.00000  Uiso   1.00
N319   N     0.87922   0.55560   0.26604   0.00000  Uiso   1.00
N320   N     0.23828   0.87797   0.47065   0.00000  Uiso   1.00
N321   N     0.81206   0.73859   0.66429   0.00000  Uiso   1.00
N322   N     0.94054   0.45622   0.32096   0.00000  Uiso   1.00
C323   C     0.56973   0.70095   0.92553   0.00000  Uiso   1.00
C324   C     0.48675   0.67610   0.93624   0.00000  Uiso   1.00
C325   C     0.45115   0.59985   0.91467   0.00000  Uiso   1.00
C326   C     0.37490   0.58930   0.92943   0.00000  Uiso   1.00
C327   C     0.25203   0.54104   0.94075   0.00000  Uiso   1.00
C328   C     0.60422   0.71450   0.98961   0.00000  Uiso   1.00
C329   C     0.66738   0.67055   0.01291   0.00000  Uiso   1.00
C330   C     0.69001   0.69234   0.07260   0.00000  Uiso   1.00
C331   C     0.74954   0.70375   0.16677   0.00000  Uiso   1.00
C332   C     0.56880   0.79232   0.89499   0.00000  Uiso   1.00
C333   C     0.60220   0.81380   0.83873   0.00000  Uiso   1.00
C334   C     0.59502   0.90111   0.81876   0.00000  Uiso   1.00
C335   C     0.59955   0.03334   0.76601   0.00000  Uiso   1.00
C336   C     0.49761   0.81782   0.99011   0.00000  Uiso   1.00
C337   C     0.44759   0.73958   0.97132   0.00000  Uiso   1.00
C338   C     0.37137   0.72915   0.98612   0.00000  Uiso   1.00
C339   C     0.33566   0.65289   0.96457   0.00000  Uiso   1.00
C340   C     0.56505   0.77798   0.02469   0.00000  Uiso   1.00
C341   C     0.58759   0.79985   0.08436   0.00000  Uiso   1.00
C342   C     0.65077   0.75593   0.10774   0.00000  Uiso   1.00
C343   C     0.52963   0.85580   0.93006   0.00000  Uiso   1.00
C344   C     0.52240   0.94310   0.91018   0.00000  Uiso   1.00
C345   C     0.55578   0.96471   0.85390   0.00000  Uiso   1.00
H346   H     0.60023   0.65153   0.89822   0.00000  Uiso   1.00
H347   H     0.48149   0.55073   0.88753   0.00000  Uiso   1.00
H348   H     0.69769   0.62143   0.98575   0.00000  Uiso   1.00
H349   H     0.63251   0.76466   0.81160   0.00000  Uiso   1.00
H350   H     0.33258   0.46696   0.89116   0.00000  Uiso   1.00
H351   H     0.78846   0.61606   0.09827   0.00000  Uiso   1.00
H352   H     0.65102   0.91808   0.73103   0.00000  Uiso   1.00
H353   H     0.46712   0.86724   0.01742   0.00000  Uiso   1.00
H354   H     0.34107   0.77828   0.01326   0.00000  Uiso   1.00
H355   H     0.55727   0.84898   0.11149   0.00000  Uiso   1.00
H356   H     0.49209   0.99220   0.93734   0.00000  Uiso   1.00
H357   H     0.21861   0.65165   0.99321   0.00000  Uiso   1.00
H358   H     0.67449   0.80075   0.20032   0.00000  Uiso   1.00
H359   H     0.53705   0.10277   0.83308   0.00000  Uiso   1.00
O360   O     0.19508   0.49688   0.93732   0.00000  Uiso   1.00
O361   O     0.79319   0.69250   0.20903   0.00000  Uiso   1.00
O362   O     0.61286   0.08874   0.72722   0.00000  Uiso   1.00
N363   N     0.32305   0.52265   0.91574   0.00000  Uiso   1.00
N364   N     0.74926   0.66203   0.10937   0.00000  Uiso   1.00
N365   N     0.62078   0.94440   0.76604   0.00000  Uiso   1.00
N366   N     0.26172   0.62203   0.97065   0.00000  Uiso   1.00
N367   N     0.68794   0.76141   0.16429   0.00000  Uiso   1.00
N368   N     0.55946   0.04378   0.82096   0.00000  Uiso   1.00
