data_job_01819
_audit_creation_date              2018-12-19
_audit_creation_method            'Materials Studio'
_symmetry_space_group_name_H-M    'P1'
_symmetry_Int_Tables_number       1
_symmetry_cell_setting            triclinic
loop_
_symmetry_equiv_pos_as_xyz
  x,y,z
_cell_length_a                    8.3181
_cell_length_b                    10.2564
_cell_length_c                    18.3151
_cell_angle_alpha                 87.3124
_cell_angle_beta                  91.5280
_cell_angle_gamma                 88.6470
loop_
_atom_site_label
_atom_site_type_symbol
_atom_site_fract_x
_atom_site_fract_y
_atom_site_fract_z
_atom_site_U_iso_or_equiv
_atom_site_adp_type
_atom_site_occupancy
C1     C     0.59423   0.64285   0.81780   0.00000  Uiso   1.00
C2     C     0.59187   0.71302   0.88936   0.00000  Uiso   1.00
C3     C     0.46062   0.72493   0.93400   0.00000  Uiso   1.00
C4     C     0.48287   0.79285   0.99715   0.00000  Uiso   1.00
C5     C     0.45664   0.89365   0.10555   0.00000  Uiso   1.00
C6     C     0.64754   0.74308   0.75982   0.00000  Uiso   1.00
C7     C     0.56309   0.78026   0.69554   0.00000  Uiso   1.00
C8     C     0.63221   0.87348   0.64963   0.00000  Uiso   1.00
C9     C     0.69246   0.02088   0.55688   0.00000  Uiso   1.00
C10    C     0.73028   0.54060   0.82668   0.00000  Uiso   1.00
C11    C     0.71543   0.40752   0.81859   0.00000  Uiso   1.00
C12    C     0.85423   0.33026   0.82896   0.00000  Uiso   1.00
C13    C     0.04295   0.16327   0.84001   0.00000  Uiso   1.00
C14    C     0.86713   0.74228   0.85058   0.00000  Uiso   1.00
C15    C     0.74011   0.76703   0.90717   0.00000  Uiso   1.00
C16    C     0.76256   0.83494   0.97027   0.00000  Uiso   1.00
C17    C     0.63136   0.84696   0.01499   0.00000  Uiso   1.00
C18    C     0.79576   0.79709   0.77762   0.00000  Uiso   1.00
C19    C     0.86503   0.89027   0.73180   0.00000  Uiso   1.00
C20    C     0.78071   0.92758   0.66747   0.00000  Uiso   1.00
C21    C     0.87852   0.59460   0.84448   0.00000  Uiso   1.00
C22    C     0.01737   0.51754   0.85486   0.00000  Uiso   1.00
C23    C     0.00273   0.38437   0.84679   0.00000  Uiso   1.00
H24    H     0.47882   0.60080   0.80393   0.00000  Uiso   1.00
H25    H     0.34592   0.68313   0.92020   0.00000  Uiso   1.00
H26    H     0.44839   0.73844   0.68177   0.00000  Uiso   1.00
H27    H     0.60070   0.36576   0.80481   0.00000  Uiso   1.00
H28    H     0.26393   0.79827   0.05694   0.00000  Uiso   1.00
H29    H     0.48002   0.91485   0.55418   0.00000  Uiso   1.00
H30    H     0.80119   0.12899   0.81363   0.00000  Uiso   1.00
H31    H     0.98254   0.78433   0.86444   0.00000  Uiso   1.00
H32    H     0.87728   0.87673   0.98403   0.00000  Uiso   1.00
H33    H     0.97975   0.93204   0.74560   0.00000  Uiso   1.00
H34    H     0.13206   0.55936   0.86864   0.00000  Uiso   1.00
H35    H     0.69520   0.95541   0.10875   0.00000  Uiso   1.00
H36    H     0.91129   0.07198   0.60599   0.00000  Uiso   1.00
H37    H     0.23246   0.28612   0.86544   0.00000  Uiso   1.00
O38    O     0.40122   0.93435   0.16041   0.00000  Uiso   1.00
O39    O     0.68473   0.08727   0.50081   0.00000  Uiso   1.00
O40    O     0.10610   0.05624   0.84120   0.00000  Uiso   1.00
N41    N     0.37989   0.82255   0.05273   0.00000  Uiso   1.00
N42    N     0.58190   0.93156   0.58269   0.00000  Uiso   1.00
N43    N     0.88218   0.19685   0.82523   0.00000  Uiso   1.00
N44    N     0.61195   0.90710   0.08061   0.00000  Uiso   1.00
N45    N     0.81396   0.01611   0.61056   0.00000  Uiso   1.00
N46    N     0.11424   0.28140   0.85310   0.00000  Uiso   1.00
C47    C     0.40577   0.35715   0.18220   0.00000  Uiso   1.00
C48    C     0.40813   0.28698   0.11064   0.00000  Uiso   1.00
C49    C     0.53938   0.27507   0.06600   0.00000  Uiso   1.00
C50    C     0.51713   0.20715   0.00285   0.00000  Uiso   1.00
C51    C     0.54336   0.10635   0.89445   0.00000  Uiso   1.00
C52    C     0.35246   0.25692   0.24018   0.00000  Uiso   1.00
C53    C     0.43691   0.21974   0.30446   0.00000  Uiso   1.00
C54    C     0.36779   0.12652   0.35037   0.00000  Uiso   1.00
C55    C     0.30754   0.97912   0.44312   0.00000  Uiso   1.00
C56    C     0.26972   0.45940   0.17332   0.00000  Uiso   1.00
C57    C     0.28457   0.59248   0.18141   0.00000  Uiso   1.00
C58    C     0.14577   0.66974   0.17104   0.00000  Uiso   1.00
C59    C     0.95705   0.83673   0.15999   0.00000  Uiso   1.00
C60    C     0.13287   0.25772   0.14942   0.00000  Uiso   1.00
C61    C     0.25989   0.23297   0.09283   0.00000  Uiso   1.00
C62    C     0.23744   0.16506   0.02973   0.00000  Uiso   1.00
C63    C     0.36864   0.15304   0.98501   0.00000  Uiso   1.00
C64    C     0.20424   0.20291   0.22238   0.00000  Uiso   1.00
C65    C     0.13497   0.10973   0.26820   0.00000  Uiso   1.00
C66    C     0.21929   0.07242   0.33253   0.00000  Uiso   1.00
C67    C     0.12148   0.40540   0.15552   0.00000  Uiso   1.00
C68    C     0.98263   0.48246   0.14514   0.00000  Uiso   1.00
C69    C     0.99727   0.61563   0.15321   0.00000  Uiso   1.00
H70    H     0.52118   0.39920   0.19607   0.00000  Uiso   1.00
H71    H     0.65408   0.31687   0.07980   0.00000  Uiso   1.00
H72    H     0.55161   0.26156   0.31823   0.00000  Uiso   1.00
H73    H     0.39930   0.63424   0.19519   0.00000  Uiso   1.00
H74    H     0.73607   0.20173   0.94306   0.00000  Uiso   1.00
H75    H     0.51998   0.08515   0.44582   0.00000  Uiso   1.00
H76    H     0.19881   0.87101   0.18637   0.00000  Uiso   1.00
H77    H     0.01746   0.21567   0.13556   0.00000  Uiso   1.00
H78    H     0.12272   0.12327   0.01597   0.00000  Uiso   1.00
H79    H     0.02025   0.06796   0.25440   0.00000  Uiso   1.00
H80    H     0.86794   0.44064   0.13136   0.00000  Uiso   1.00
H81    H     0.30480   0.04459   0.89125   0.00000  Uiso   1.00
H82    H     0.08871   0.92802   0.39401   0.00000  Uiso   1.00
H83    H     0.76754   0.71388   0.13456   0.00000  Uiso   1.00
O84    O     0.59878   0.06565   0.83959   0.00000  Uiso   1.00
O85    O     0.31527   0.91273   0.49919   0.00000  Uiso   1.00
O86    O     0.89390   0.94376   0.15880   0.00000  Uiso   1.00
N87    N     0.62011   0.17745   0.94727   0.00000  Uiso   1.00
N88    N     0.41810   0.06844   0.41731   0.00000  Uiso   1.00
N89    N     0.11782   0.80315   0.17477   0.00000  Uiso   1.00
N90    N     0.38805   0.09290   0.91939   0.00000  Uiso   1.00
N91    N     0.18604   0.98389   0.38944   0.00000  Uiso   1.00
N92    N     0.88576   0.71860   0.14690   0.00000  Uiso   1.00
