data_job_02608
_audit_creation_date              2018-12-19
_audit_creation_method            'Materials Studio'
_symmetry_space_group_name_H-M    'P1'
_symmetry_Int_Tables_number       1
_symmetry_cell_setting            triclinic
loop_
_symmetry_equiv_pos_as_xyz
  x,y,z
_cell_length_a                    15.5816
_cell_length_b                    19.1848
_cell_length_c                    24.8875
_cell_angle_alpha                 90.0000
_cell_angle_beta                  121.7190
_cell_angle_gamma                 90.0000
loop_
_atom_site_label
_atom_site_type_symbol
_atom_site_fract_x
_atom_site_fract_y
_atom_site_fract_z
_atom_site_U_iso_or_equiv
_atom_site_adp_type
_atom_site_occupancy
C1     C     0.19691   0.31846   0.85494   0.00000  Uiso   1.00
C2     C     0.25619   0.35879   0.83212   0.00000  Uiso   1.00
C3     C     0.21885   0.38166   0.77081   0.00000  Uiso   1.00
C4     C     0.28510   0.41766   0.75949   0.00000  Uiso   1.00
C5     C     0.36194   0.47832   0.71671   0.00000  Uiso   1.00
C6     C     0.25610   0.25158   0.88457   0.00000  Uiso   1.00
C7     C     0.21869   0.18431   0.86735   0.00000  Uiso   1.00
C8     C     0.28486   0.13008   0.90019   0.00000  Uiso   1.00
C9     C     0.36155   0.02430   0.93886   0.00000  Uiso   1.00
C10    C     0.20458   0.36096   0.90908   0.00000  Uiso   1.00
C11    C     0.12385   0.38565   0.91248   0.00000  Uiso   1.00
C12    C     0.14664   0.42349   0.96597   0.00000  Uiso   1.00
C13    C     0.14333   0.48755   0.04269   0.00000  Uiso   1.00
C14    C     0.38095   0.34174   0.94387   0.00000  Uiso   1.00
C15    C     0.35615   0.37143   0.88043   0.00000  Uiso   1.00
C16    C     0.42247   0.40741   0.86920   0.00000  Uiso   1.00
C17    C     0.38524   0.43033   0.80789   0.00000  Uiso   1.00
C18    C     0.35606   0.26422   0.93287   0.00000  Uiso   1.00
C19    C     0.42230   0.21007   0.96575   0.00000  Uiso   1.00
C20    C     0.38500   0.14274   0.94858   0.00000  Uiso   1.00
C21    C     0.30454   0.37361   0.95738   0.00000  Uiso   1.00
C22    C     0.32746   0.41141   0.01088   0.00000  Uiso   1.00
C23    C     0.24678   0.43616   0.01436   0.00000  Uiso   1.00
H24    H     0.11909   0.30861   0.81733   0.00000  Uiso   1.00
H25    H     0.14149   0.37185   0.73344   0.00000  Uiso   1.00
H26    H     0.14132   0.17455   0.82997   0.00000  Uiso   1.00
H27    H     0.04650   0.37586   0.87509   0.00000  Uiso   1.00
H28    H     0.21042   0.44752   0.66172   0.00000  Uiso   1.00
H29    H     0.21006   0.03149   0.86528   0.00000  Uiso   1.00
H30    H     0.01010   0.45599   0.96043   0.00000  Uiso   1.00
H31    H     0.45878   0.35159   0.98148   0.00000  Uiso   1.00
H32    H     0.49982   0.41719   0.90660   0.00000  Uiso   1.00
H33    H     0.49965   0.21988   0.00313   0.00000  Uiso   1.00
H34    H     0.40483   0.42119   0.04825   0.00000  Uiso   1.00
H35    H     0.50125   0.48432   0.80226   0.00000  Uiso   1.00
H36    H     0.50089   0.06828   0.00582   0.00000  Uiso   1.00
H37    H     0.30093   0.49278   0.10097   0.00000  Uiso   1.00
O38    O     0.37672   0.50828   0.67976   0.00000  Uiso   1.00
O39    O     0.37623   0.96246   0.94683   0.00000  Uiso   1.00
O40    O     0.11389   0.51940   0.07166   0.00000  Uiso   1.00
N41    N     0.27323   0.44719   0.70508   0.00000  Uiso   1.00
N42    N     0.27289   0.05822   0.89539   0.00000  Uiso   1.00
N43    N     0.08595   0.45508   0.98435   0.00000  Uiso   1.00
N44    N     0.42972   0.46699   0.78070   0.00000  Uiso   1.00
N45    N     0.42939   0.07802   0.97101   0.00000  Uiso   1.00
N46    N     0.24245   0.47488   0.05997   0.00000  Uiso   1.00
C47    C     0.80309   0.31846   0.64506   0.00000  Uiso   1.00
C48    C     0.74381   0.35879   0.66788   0.00000  Uiso   1.00
C49    C     0.78115   0.38166   0.72919   0.00000  Uiso   1.00
C50    C     0.71490   0.41766   0.74051   0.00000  Uiso   1.00
C51    C     0.63806   0.47832   0.78329   0.00000  Uiso   1.00
C52    C     0.74390   0.25158   0.61543   0.00000  Uiso   1.00
C53    C     0.78131   0.18431   0.63265   0.00000  Uiso   1.00
C54    C     0.71514   0.13008   0.59981   0.00000  Uiso   1.00
C55    C     0.63845   0.02430   0.56114   0.00000  Uiso   1.00
C56    C     0.79542   0.36096   0.59092   0.00000  Uiso   1.00
C57    C     0.87615   0.38565   0.58752   0.00000  Uiso   1.00
C58    C     0.85336   0.42349   0.53403   0.00000  Uiso   1.00
C59    C     0.85667   0.48755   0.45731   0.00000  Uiso   1.00
C60    C     0.61905   0.34174   0.55613   0.00000  Uiso   1.00
C61    C     0.64385   0.37143   0.61957   0.00000  Uiso   1.00
C62    C     0.57753   0.40741   0.63080   0.00000  Uiso   1.00
C63    C     0.61476   0.43033   0.69211   0.00000  Uiso   1.00
C64    C     0.64394   0.26422   0.56713   0.00000  Uiso   1.00
C65    C     0.57770   0.21007   0.53425   0.00000  Uiso   1.00
C66    C     0.61500   0.14274   0.55142   0.00000  Uiso   1.00
C67    C     0.69546   0.37361   0.54262   0.00000  Uiso   1.00
C68    C     0.67254   0.41141   0.48912   0.00000  Uiso   1.00
C69    C     0.75322   0.43616   0.48564   0.00000  Uiso   1.00
H70    H     0.88091   0.30861   0.68267   0.00000  Uiso   1.00
H71    H     0.85851   0.37185   0.76656   0.00000  Uiso   1.00
H72    H     0.85868   0.17455   0.67003   0.00000  Uiso   1.00
H73    H     0.95350   0.37586   0.62491   0.00000  Uiso   1.00
H74    H     0.78958   0.44752   0.83828   0.00000  Uiso   1.00
H75    H     0.78994   0.03149   0.63472   0.00000  Uiso   1.00
H76    H     0.98990   0.45599   0.53957   0.00000  Uiso   1.00
H77    H     0.54122   0.35159   0.51852   0.00000  Uiso   1.00
H78    H     0.50018   0.41719   0.59340   0.00000  Uiso   1.00
H79    H     0.50035   0.21988   0.49687   0.00000  Uiso   1.00
H80    H     0.59517   0.42119   0.45175   0.00000  Uiso   1.00
H81    H     0.49875   0.48432   0.69774   0.00000  Uiso   1.00
H82    H     0.49911   0.06828   0.49418   0.00000  Uiso   1.00
H83    H     0.69907   0.49278   0.39903   0.00000  Uiso   1.00
O84    O     0.62328   0.50828   0.82024   0.00000  Uiso   1.00
O85    O     0.62377   0.96246   0.55317   0.00000  Uiso   1.00
O86    O     0.88611   0.51940   0.42834   0.00000  Uiso   1.00
N87    N     0.72677   0.44719   0.79492   0.00000  Uiso   1.00
N88    N     0.72711   0.05822   0.60461   0.00000  Uiso   1.00
N89    N     0.91405   0.45508   0.51565   0.00000  Uiso   1.00
N90    N     0.57028   0.46699   0.71930   0.00000  Uiso   1.00
N91    N     0.57061   0.07802   0.52899   0.00000  Uiso   1.00
N92    N     0.75755   0.47488   0.44003   0.00000  Uiso   1.00
C93    C     0.80309   0.68154   0.14506   0.00000  Uiso   1.00
C94    C     0.74381   0.64121   0.16788   0.00000  Uiso   1.00
C95    C     0.78115   0.61834   0.22919   0.00000  Uiso   1.00
C96    C     0.71490   0.58234   0.24051   0.00000  Uiso   1.00
C97    C     0.63806   0.52168   0.28329   0.00000  Uiso   1.00
C98    C     0.74390   0.74842   0.11543   0.00000  Uiso   1.00
C99    C     0.78131   0.81569   0.13265   0.00000  Uiso   1.00
C100   C     0.71514   0.86992   0.09981   0.00000  Uiso   1.00
C101   C     0.63845   0.97570   0.06114   0.00000  Uiso   1.00
C102   C     0.79542   0.63904   0.09092   0.00000  Uiso   1.00
C103   C     0.87615   0.61435   0.08752   0.00000  Uiso   1.00
C104   C     0.85336   0.57651   0.03403   0.00000  Uiso   1.00
C105   C     0.85667   0.51245   0.95731   0.00000  Uiso   1.00
C106   C     0.61905   0.65826   0.05613   0.00000  Uiso   1.00
C107   C     0.64385   0.62857   0.11957   0.00000  Uiso   1.00
C108   C     0.57753   0.59259   0.13080   0.00000  Uiso   1.00
C109   C     0.61476   0.56967   0.19211   0.00000  Uiso   1.00
C110   C     0.64394   0.73578   0.06713   0.00000  Uiso   1.00
C111   C     0.57770   0.78993   0.03425   0.00000  Uiso   1.00
C112   C     0.61500   0.85726   0.05142   0.00000  Uiso   1.00
C113   C     0.69546   0.62639   0.04262   0.00000  Uiso   1.00
C114   C     0.67254   0.58859   0.98912   0.00000  Uiso   1.00
C115   C     0.75322   0.56384   0.98564   0.00000  Uiso   1.00
H116   H     0.88091   0.69139   0.18267   0.00000  Uiso   1.00
H117   H     0.85851   0.62815   0.26656   0.00000  Uiso   1.00
H118   H     0.85868   0.82545   0.17003   0.00000  Uiso   1.00
H119   H     0.95350   0.62414   0.12491   0.00000  Uiso   1.00
H120   H     0.78958   0.55248   0.33828   0.00000  Uiso   1.00
H121   H     0.78994   0.96851   0.13472   0.00000  Uiso   1.00
H122   H     0.98990   0.54401   0.03957   0.00000  Uiso   1.00
H123   H     0.54122   0.64841   0.01852   0.00000  Uiso   1.00
H124   H     0.50018   0.58281   0.09340   0.00000  Uiso   1.00
H125   H     0.50035   0.78012   0.99687   0.00000  Uiso   1.00
H126   H     0.59517   0.57881   0.95175   0.00000  Uiso   1.00
H127   H     0.49875   0.51568   0.19774   0.00000  Uiso   1.00
H128   H     0.49911   0.93172   0.99418   0.00000  Uiso   1.00
H129   H     0.69907   0.50722   0.89903   0.00000  Uiso   1.00
O130   O     0.62328   0.49172   0.32024   0.00000  Uiso   1.00
O131   O     0.62377   0.03754   0.05317   0.00000  Uiso   1.00
O132   O     0.88611   0.48060   0.92834   0.00000  Uiso   1.00
N133   N     0.72677   0.55281   0.29492   0.00000  Uiso   1.00
N134   N     0.72711   0.94178   0.10461   0.00000  Uiso   1.00
N135   N     0.91405   0.54492   0.01565   0.00000  Uiso   1.00
N136   N     0.57028   0.53301   0.21930   0.00000  Uiso   1.00
N137   N     0.57061   0.92198   0.02899   0.00000  Uiso   1.00
N138   N     0.75755   0.52512   0.94003   0.00000  Uiso   1.00
C139   C     0.19691   0.68154   0.35494   0.00000  Uiso   1.00
C140   C     0.25619   0.64121   0.33212   0.00000  Uiso   1.00
C141   C     0.21885   0.61834   0.27081   0.00000  Uiso   1.00
C142   C     0.28510   0.58234   0.25949   0.00000  Uiso   1.00
C143   C     0.36194   0.52168   0.21671   0.00000  Uiso   1.00
C144   C     0.25610   0.74842   0.38457   0.00000  Uiso   1.00
C145   C     0.21869   0.81569   0.36735   0.00000  Uiso   1.00
C146   C     0.28486   0.86992   0.40019   0.00000  Uiso   1.00
C147   C     0.36155   0.97570   0.43886   0.00000  Uiso   1.00
C148   C     0.20458   0.63904   0.40908   0.00000  Uiso   1.00
C149   C     0.12385   0.61435   0.41248   0.00000  Uiso   1.00
C150   C     0.14664   0.57651   0.46597   0.00000  Uiso   1.00
C151   C     0.14333   0.51245   0.54269   0.00000  Uiso   1.00
C152   C     0.38095   0.65826   0.44387   0.00000  Uiso   1.00
C153   C     0.35615   0.62857   0.38043   0.00000  Uiso   1.00
C154   C     0.42247   0.59259   0.36920   0.00000  Uiso   1.00
C155   C     0.38524   0.56967   0.30789   0.00000  Uiso   1.00
C156   C     0.35606   0.73578   0.43287   0.00000  Uiso   1.00
C157   C     0.42230   0.78993   0.46575   0.00000  Uiso   1.00
C158   C     0.38500   0.85726   0.44858   0.00000  Uiso   1.00
C159   C     0.30454   0.62639   0.45738   0.00000  Uiso   1.00
C160   C     0.32746   0.58859   0.51088   0.00000  Uiso   1.00
C161   C     0.24678   0.56384   0.51436   0.00000  Uiso   1.00
H162   H     0.11909   0.69139   0.31733   0.00000  Uiso   1.00
H163   H     0.14149   0.62815   0.23344   0.00000  Uiso   1.00
H164   H     0.14132   0.82545   0.32997   0.00000  Uiso   1.00
H165   H     0.04650   0.62414   0.37509   0.00000  Uiso   1.00
H166   H     0.21042   0.55248   0.16172   0.00000  Uiso   1.00
H167   H     0.21006   0.96851   0.36528   0.00000  Uiso   1.00
H168   H     0.01010   0.54401   0.46043   0.00000  Uiso   1.00
H169   H     0.45878   0.64841   0.48148   0.00000  Uiso   1.00
H170   H     0.49982   0.58281   0.40660   0.00000  Uiso   1.00
H171   H     0.49965   0.78012   0.50313   0.00000  Uiso   1.00
H172   H     0.40483   0.57881   0.54825   0.00000  Uiso   1.00
H173   H     0.50125   0.51568   0.30226   0.00000  Uiso   1.00
H174   H     0.50089   0.93172   0.50582   0.00000  Uiso   1.00
H175   H     0.30093   0.50722   0.60097   0.00000  Uiso   1.00
O176   O     0.37672   0.49172   0.17976   0.00000  Uiso   1.00
O177   O     0.37623   0.03754   0.44683   0.00000  Uiso   1.00
O178   O     0.11389   0.48060   0.57166   0.00000  Uiso   1.00
N179   N     0.27323   0.55281   0.20508   0.00000  Uiso   1.00
N180   N     0.27289   0.94178   0.39539   0.00000  Uiso   1.00
N181   N     0.08595   0.54492   0.48435   0.00000  Uiso   1.00
N182   N     0.42972   0.53301   0.28070   0.00000  Uiso   1.00
N183   N     0.42939   0.92198   0.47101   0.00000  Uiso   1.00
N184   N     0.24245   0.52512   0.55997   0.00000  Uiso   1.00
