data_job_01501
_audit_creation_date              2018-12-19
_audit_creation_method            'Materials Studio'
_symmetry_space_group_name_H-M    'P1'
_symmetry_Int_Tables_number       1
_symmetry_cell_setting            triclinic
loop_
_symmetry_equiv_pos_as_xyz
  x,y,z
_cell_length_a                    9.2335
_cell_length_b                    10.1449
_cell_length_c                    14.3100
_cell_angle_alpha                 73.6956
_cell_angle_beta                  87.3778
_cell_angle_gamma                 79.8550
loop_
_atom_site_label
_atom_site_type_symbol
_atom_site_fract_x
_atom_site_fract_y
_atom_site_fract_z
_atom_site_U_iso_or_equiv
_atom_site_adp_type
_atom_site_occupancy
C1     C     0.02434   0.17098   0.81890   0.00000  Uiso   1.00
C2     C     0.03027   0.31977   0.82011   0.00000  Uiso   1.00
C3     C     0.93952   0.39500   0.87403   0.00000  Uiso   1.00
C4     C     0.96243   0.52961   0.86511   0.00000  Uiso   1.00
C5     C     0.95488   0.75197   0.87618   0.00000  Uiso   1.00
C6     C     0.00325   0.17713   0.71260   0.00000  Uiso   1.00
C7     C     0.88980   0.13241   0.67612   0.00000  Uiso   1.00
C8     C     0.88999   0.14694   0.57670   0.00000  Uiso   1.00
C9     C     0.84056   0.14775   0.42087   0.00000  Uiso   1.00
C10    C     0.17798   0.08821   0.84745   0.00000  Uiso   1.00
C11    C     0.21144   0.96870   0.92433   0.00000  Uiso   1.00
C12    C     0.35875   0.90834   0.93844   0.00000  Uiso   1.00
C13    C     0.58061   0.77109   0.99197   0.00000  Uiso   1.00
C14    C     0.22642   0.27627   0.70721   0.00000  Uiso   1.00
C15    C     0.14002   0.37696   0.75944   0.00000  Uiso   1.00
C16    C     0.16309   0.51149   0.75045   0.00000  Uiso   1.00
C17    C     0.07239   0.58691   0.80434   0.00000  Uiso   1.00
C18    C     0.11301   0.23432   0.65193   0.00000  Uiso   1.00
C19    C     0.11337   0.24891   0.55255   0.00000  Uiso   1.00
C20    C     0.99994   0.20424   0.51593   0.00000  Uiso   1.00
C21    C     0.28774   0.14540   0.78678   0.00000  Uiso   1.00
C22    C     0.43502   0.08521   0.80076   0.00000  Uiso   1.00
C23    C     0.46870   0.96564   0.87766   0.00000  Uiso   1.00
H24    H     0.93889   0.12645   0.86613   0.00000  Uiso   1.00
H25    H     0.85457   0.35070   0.92096   0.00000  Uiso   1.00
H26    H     0.80488   0.08815   0.72309   0.00000  Uiso   1.00
H27    H     0.12648   0.92447   0.97126   0.00000  Uiso   1.00
H28    H     0.80947   0.62457   0.95497   0.00000  Uiso   1.00
H29    H     0.70471   0.07091   0.53775   0.00000  Uiso   1.00
H30    H     0.38286   0.72576   0.06108   0.00000  Uiso   1.00
H31    H     0.31188   0.32080   0.65998   0.00000  Uiso   1.00
H32    H     0.24804   0.55572   0.70350   0.00000  Uiso   1.00
H33    H     0.19833   0.29317   0.50563   0.00000  Uiso   1.00
H34    H     0.51993   0.12949   0.75380   0.00000  Uiso   1.00
H35    H     0.12881   0.79097   0.77847   0.00000  Uiso   1.00
H36    H     0.02405   0.23730   0.36125   0.00000  Uiso   1.00
H37    H     0.70220   0.89217   0.88458   0.00000  Uiso   1.00
O38    O     0.92038   0.85882   0.89904   0.00000  Uiso   1.00
O39    O     0.78296   0.13241   0.35167   0.00000  Uiso   1.00
O40    O     0.67267   0.67960   0.03827   0.00000  Uiso   1.00
N41    N     0.89341   0.63148   0.90747   0.00000  Uiso   1.00
N42    N     0.79545   0.11386   0.51739   0.00000  Uiso   1.00
N43    N     0.42946   0.79116   0.00665   0.00000  Uiso   1.00
N44    N     0.06524   0.72102   0.81250   0.00000  Uiso   1.00
N45    N     0.96729   0.20340   0.42242   0.00000  Uiso   1.00
N46    N     0.60129   0.88070   0.91167   0.00000  Uiso   1.00
C47    C     0.97566   0.82902   0.18110   0.00000  Uiso   1.00
C48    C     0.96973   0.68023   0.17989   0.00000  Uiso   1.00
C49    C     0.06048   0.60500   0.12597   0.00000  Uiso   1.00
C50    C     0.03757   0.47039   0.13489   0.00000  Uiso   1.00
C51    C     0.04512   0.24803   0.12382   0.00000  Uiso   1.00
C52    C     0.99675   0.82287   0.28740   0.00000  Uiso   1.00
C53    C     0.11020   0.86759   0.32388   0.00000  Uiso   1.00
C54    C     0.11001   0.85306   0.42330   0.00000  Uiso   1.00
C55    C     0.15944   0.85225   0.57913   0.00000  Uiso   1.00
C56    C     0.82202   0.91179   0.15255   0.00000  Uiso   1.00
C57    C     0.78856   0.03130   0.07567   0.00000  Uiso   1.00
C58    C     0.64125   0.09166   0.06156   0.00000  Uiso   1.00
C59    C     0.41939   0.22891   0.00803   0.00000  Uiso   1.00
C60    C     0.77358   0.72373   0.29279   0.00000  Uiso   1.00
C61    C     0.85998   0.62304   0.24056   0.00000  Uiso   1.00
C62    C     0.83691   0.48851   0.24955   0.00000  Uiso   1.00
C63    C     0.92761   0.41309   0.19566   0.00000  Uiso   1.00
C64    C     0.88699   0.76568   0.34807   0.00000  Uiso   1.00
C65    C     0.88663   0.75109   0.44745   0.00000  Uiso   1.00
C66    C     0.00006   0.79576   0.48407   0.00000  Uiso   1.00
C67    C     0.71226   0.85460   0.21322   0.00000  Uiso   1.00
C68    C     0.56498   0.91479   0.19924   0.00000  Uiso   1.00
C69    C     0.53130   0.03436   0.12234   0.00000  Uiso   1.00
H70    H     0.06111   0.87355   0.13387   0.00000  Uiso   1.00
H71    H     0.14543   0.64930   0.07904   0.00000  Uiso   1.00
H72    H     0.19512   0.91185   0.27691   0.00000  Uiso   1.00
H73    H     0.87352   0.07553   0.02874   0.00000  Uiso   1.00
H74    H     0.19053   0.37543   0.04503   0.00000  Uiso   1.00
H75    H     0.29529   0.92909   0.46225   0.00000  Uiso   1.00
H76    H     0.61714   0.27424   0.93892   0.00000  Uiso   1.00
H77    H     0.68812   0.67920   0.34002   0.00000  Uiso   1.00
H78    H     0.75196   0.44428   0.29650   0.00000  Uiso   1.00
H79    H     0.80167   0.70683   0.49437   0.00000  Uiso   1.00
H80    H     0.48007   0.87051   0.24620   0.00000  Uiso   1.00
H81    H     0.87119   0.20903   0.22153   0.00000  Uiso   1.00
H82    H     0.97595   0.76270   0.63875   0.00000  Uiso   1.00
H83    H     0.29780   0.10783   0.11542   0.00000  Uiso   1.00
O84    O     0.07962   0.14118   0.10096   0.00000  Uiso   1.00
O85    O     0.21704   0.86759   0.64833   0.00000  Uiso   1.00
O86    O     0.32733   0.32040   0.96173   0.00000  Uiso   1.00
N87    N     0.10659   0.36852   0.09253   0.00000  Uiso   1.00
N88    N     0.20455   0.88614   0.48261   0.00000  Uiso   1.00
N89    N     0.57054   0.20884   0.99335   0.00000  Uiso   1.00
N90    N     0.93476   0.27898   0.18750   0.00000  Uiso   1.00
N91    N     0.03271   0.79660   0.57758   0.00000  Uiso   1.00
N92    N     0.39871   0.11930   0.08833   0.00000  Uiso   1.00
