data_job_06445
_audit_creation_date              2018-12-19
_audit_creation_method            'Materials Studio'
_symmetry_space_group_name_H-M    'P1'
_symmetry_Int_Tables_number       1
_symmetry_cell_setting            triclinic
loop_
_symmetry_equiv_pos_as_xyz
  x,y,z
_cell_length_a                    15.6820
_cell_length_b                    15.7051
_cell_length_c                    15.7139
_cell_angle_alpha                 99.7185
_cell_angle_beta                  99.8458
_cell_angle_gamma                 99.9203
loop_
_atom_site_label
_atom_site_type_symbol
_atom_site_fract_x
_atom_site_fract_y
_atom_site_fract_z
_atom_site_U_iso_or_equiv
_atom_site_adp_type
_atom_site_occupancy
C1     C     0.12382   0.72625   0.08015   0.00000  Uiso   1.00
C2     C     0.06999   0.73871   0.99434   0.00000  Uiso   1.00
C3     C     0.00300   0.67533   0.93663   0.00000  Uiso   1.00
C4     C     0.96177   0.69965   0.86168   0.00000  Uiso   1.00
C5     C     0.87442   0.70609   0.73094   0.00000  Uiso   1.00
C6     C     0.22052   0.74808   0.07272   0.00000  Uiso   1.00
C7     C     0.28009   0.69258   0.08091   0.00000  Uiso   1.00
C8     C     0.36557   0.72480   0.07195   0.00000  Uiso   1.00
C9     C     0.51193   0.74581   0.06295   0.00000  Uiso   1.00
C10    C     0.11241   0.79881   0.15249   0.00000  Uiso   1.00
C11    C     0.08112   0.78597   0.22778   0.00000  Uiso   1.00
C12    C     0.07560   0.86091   0.28600   0.00000  Uiso   1.00
C13    C     0.05412   0.96068   0.40087   0.00000  Uiso   1.00
C14    C     0.16971   0.88214   0.04968   0.00000  Uiso   1.00
C15    C     0.09492   0.82338   0.97779   0.00000  Uiso   1.00
C16    C     0.05377   0.84781   0.90292   0.00000  Uiso   1.00
C17    C     0.98673   0.78448   0.84510   0.00000  Uiso   1.00
C18    C     0.24544   0.83274   0.05617   0.00000  Uiso   1.00
C19    C     0.33086   0.86505   0.04720   0.00000  Uiso   1.00
C20    C     0.39054   0.80962   0.05537   0.00000  Uiso   1.00
C21    C     0.13734   0.88348   0.13594   0.00000  Uiso   1.00
C22    C     0.13188   0.95845   0.19406   0.00000  Uiso   1.00
C23    C     0.10058   0.94573   0.26942   0.00000  Uiso   1.00
H24    H     0.10442   0.66033   0.09303   0.00000  Uiso   1.00
H25    H     0.98374   0.60981   0.94945   0.00000  Uiso   1.00
H26    H     0.26078   0.62706   0.09372   0.00000  Uiso   1.00
H27    H     0.06183   0.72044   0.24056   0.00000  Uiso   1.00
H28    H     0.86095   0.59112   0.78296   0.00000  Uiso   1.00
H29    H     0.44512   0.62752   0.08719   0.00000  Uiso   1.00
H30    H     0.02560   0.82442   0.39683   0.00000  Uiso   1.00
H31    H     0.18912   0.94807   0.03679   0.00000  Uiso   1.00
H32    H     0.07308   0.91334   0.89013   0.00000  Uiso   1.00
H33    H     0.35013   0.93058   0.03440   0.00000  Uiso   1.00
H34    H     0.15118   0.02396   0.18123   0.00000  Uiso   1.00
H35    H     0.93347   0.83748   0.73480   0.00000  Uiso   1.00
H36    H     0.51764   0.87386   0.03904   0.00000  Uiso   1.00
H37    H     0.09812   0.07077   0.34868   0.00000  Uiso   1.00
O38    O     0.81936   0.68625   0.66340   0.00000  Uiso   1.00
O39    O     0.58577   0.73400   0.06256   0.00000  Uiso   1.00
O40    O     0.03538   0.99233   0.46879   0.00000  Uiso   1.00
N41    N     0.89393   0.65388   0.79176   0.00000  Uiso   1.00
N42    N     0.44009   0.68789   0.07618   0.00000  Uiso   1.00
N43    N     0.04790   0.87198   0.36569   0.00000  Uiso   1.00
N44    N     0.93295   0.78644   0.76585   0.00000  Uiso   1.00
N45    N     0.47911   0.82045   0.05027   0.00000  Uiso   1.00
N46    N     0.08692   0.00454   0.33978   0.00000  Uiso   1.00
C47    C     0.07959   0.12373   0.72607   0.00000  Uiso   1.00
C48    C     0.99358   0.06987   0.73848   0.00000  Uiso   1.00
C49    C     0.93568   0.00303   0.67519   0.00000  Uiso   1.00
C50    C     0.86055   0.96174   0.69945   0.00000  Uiso   1.00
C51    C     0.72949   0.87437   0.70584   0.00000  Uiso   1.00
C52    C     0.07216   0.22021   0.74769   0.00000  Uiso   1.00
C53    C     0.08034   0.27977   0.69214   0.00000  Uiso   1.00
C54    C     0.07138   0.36504   0.72416   0.00000  Uiso   1.00
C55    C     0.06238   0.51110   0.74487   0.00000  Uiso   1.00
C56    C     0.15216   0.11232   0.79871   0.00000  Uiso   1.00
C57    C     0.22763   0.08119   0.78606   0.00000  Uiso   1.00
C58    C     0.28604   0.07564   0.86104   0.00000  Uiso   1.00
C59    C     0.40126   0.05418   0.96097   0.00000  Uiso   1.00
C60    C     0.04914   0.16926   0.88172   0.00000  Uiso   1.00
C61    C     0.97704   0.09460   0.82302   0.00000  Uiso   1.00
C62    C     0.90199   0.05340   0.84739   0.00000  Uiso   1.00
C63    C     0.84399   0.98651   0.78414   0.00000  Uiso   1.00
C64    C     0.05562   0.24494   0.83222   0.00000  Uiso   1.00
C65    C     0.04665   0.33014   0.86434   0.00000  Uiso   1.00
C66    C     0.05481   0.38982   0.80885   0.00000  Uiso   1.00
C67    C     0.13563   0.13705   0.88325   0.00000  Uiso   1.00
C68    C     0.19394   0.13155   0.95826   0.00000  Uiso   1.00
C69    C     0.26947   0.10042   0.94573   0.00000  Uiso   1.00
H70    H     0.09247   0.10449   0.66026   0.00000  Uiso   1.00
H71    H     0.94850   0.98392   0.60977   0.00000  Uiso   1.00
H72    H     0.09315   0.26062   0.62672   0.00000  Uiso   1.00
H73    H     0.24041   0.06206   0.72063   0.00000  Uiso   1.00
H74    H     0.78157   0.86117   0.59106   0.00000  Uiso   1.00
H75    H     0.08660   0.44462   0.62682   0.00000  Uiso   1.00
H76    H     0.39713   0.02593   0.82485   0.00000  Uiso   1.00
H77    H     0.03627   0.18851   0.94754   0.00000  Uiso   1.00
H78    H     0.88921   0.07255   0.91281   0.00000  Uiso   1.00
H79    H     0.03386   0.34925   0.92977   0.00000  Uiso   1.00
H80    H     0.18112   0.15069   0.02367   0.00000  Uiso   1.00
H81    H     0.73344   0.93311   0.83702   0.00000  Uiso   1.00
H82    H     0.03848   0.51656   0.87278   0.00000  Uiso   1.00
H83    H     0.34901   0.09786   0.07081   0.00000  Uiso   1.00
O84    O     0.66177   0.81936   0.68601   0.00000  Uiso   1.00
O85    O     0.06197   0.58483   0.73293   0.00000  Uiso   1.00
O86    O     0.46938   0.03550   0.99273   0.00000  Uiso   1.00
N87    N     0.79043   0.89401   0.65372   0.00000  Uiso   1.00
N88    N     0.07560   0.43949   0.68715   0.00000  Uiso   1.00
N89    N     0.36594   0.04807   0.87229   0.00000  Uiso   1.00
N90    N     0.76454   0.93271   0.78607   0.00000  Uiso   1.00
N91    N     0.04971   0.47820   0.81950   0.00000  Uiso   1.00
N92    N     0.34004   0.08678   0.00464   0.00000  Uiso   1.00
C93    C     0.72612   0.07973   0.12358   0.00000  Uiso   1.00
C94    C     0.73852   0.99397   0.06994   0.00000  Uiso   1.00
C95    C     0.67503   0.93620   0.00315   0.00000  Uiso   1.00
C96    C     0.69932   0.86131   0.96207   0.00000  Uiso   1.00
C97    C     0.70567   0.73062   0.87502   0.00000  Uiso   1.00
C98    C     0.74785   0.07218   0.22004   0.00000  Uiso   1.00
C99    C     0.69219   0.08018   0.27945   0.00000  Uiso   1.00
C100   C     0.72434   0.07114   0.36473   0.00000  Uiso   1.00
C101   C     0.74520   0.06195   0.51073   0.00000  Uiso   1.00
C102   C     0.79893   0.15228   0.11216   0.00000  Uiso   1.00
C103   C     0.78623   0.22765   0.08089   0.00000  Uiso   1.00
C104   C     0.86140   0.28605   0.07536   0.00000  Uiso   1.00
C105   C     0.96156   0.40123   0.05386   0.00000  Uiso   1.00
C106   C     0.88218   0.04945   0.16937   0.00000  Uiso   1.00
C107   C     0.82329   0.97753   0.09481   0.00000  Uiso   1.00
C108   C     0.84769   0.90270   0.05382   0.00000  Uiso   1.00
C109   C     0.78424   0.84483   0.98698   0.00000  Uiso   1.00
C110   C     0.83261   0.05574   0.24491   0.00000  Uiso   1.00
C111   C     0.86485   0.04669   0.33012   0.00000  Uiso   1.00
C112   C     0.80926   0.05467   0.38965   0.00000  Uiso   1.00
C113   C     0.88370   0.13584   0.13703   0.00000  Uiso   1.00
C114   C     0.95890   0.19414   0.13155   0.00000  Uiso   1.00
C115   C     0.94632   0.26958   0.10028   0.00000  Uiso   1.00
H116   H     0.66012   0.09253   0.10422   0.00000  Uiso   1.00
H117   H     0.60943   0.94894   0.98393   0.00000  Uiso   1.00
H118   H     0.62660   0.09292   0.26019   0.00000  Uiso   1.00
H119   H     0.72063   0.24035   0.06165   0.00000  Uiso   1.00
H120   H     0.59060   0.78248   0.86155   0.00000  Uiso   1.00
H121   H     0.62681   0.08609   0.44407   0.00000  Uiso   1.00
H122   H     0.82509   0.39698   0.02541   0.00000  Uiso   1.00
H123   H     0.94818   0.03665   0.18874   0.00000  Uiso   1.00
H124   H     0.91329   0.89000   0.07308   0.00000  Uiso   1.00
H125   H     0.93046   0.03397   0.34934   0.00000  Uiso   1.00
H126   H     0.02448   0.18140   0.15080   0.00000  Uiso   1.00
H127   H     0.83722   0.73464   0.93391   0.00000  Uiso   1.00
H128   H     0.87344   0.03825   0.51643   0.00000  Uiso   1.00
H129   H     0.07171   0.34913   0.09778   0.00000  Uiso   1.00
O130   O     0.68576   0.66308   0.82014   0.00000  Uiso   1.00
O131   O     0.73327   0.06141   0.58438   0.00000  Uiso   1.00
O132   O     0.99340   0.46929   0.03512   0.00000  Uiso   1.00
N133   N     0.65344   0.79136   0.89444   0.00000  Uiso   1.00
N134   N     0.68729   0.07520   0.43906   0.00000  Uiso   1.00
N135   N     0.87266   0.36587   0.04767   0.00000  Uiso   1.00
N136   N     0.78614   0.76561   0.93338   0.00000  Uiso   1.00
N137   N     0.81999   0.04945   0.47799   0.00000  Uiso   1.00
N138   N     0.00536   0.34012   0.08661   0.00000  Uiso   1.00
C139   C     0.62388   0.58000   0.22621   0.00000  Uiso   1.00
C140   C     0.56997   0.49410   0.23866   0.00000  Uiso   1.00
C141   C     0.50299   0.43632   0.17535   0.00000  Uiso   1.00
C142   C     0.46168   0.36129   0.19966   0.00000  Uiso   1.00
C143   C     0.37423   0.23041   0.20611   0.00000  Uiso   1.00
C144   C     0.72055   0.57261   0.24796   0.00000  Uiso   1.00
C145   C     0.78017   0.58085   0.19248   0.00000  Uiso   1.00
C146   C     0.86562   0.57192   0.22463   0.00000  Uiso   1.00
C147   C     0.01196   0.56299   0.24554   0.00000  Uiso   1.00
C148   C     0.61247   0.65237   0.29873   0.00000  Uiso   1.00
C149   C     0.58124   0.72770   0.28594   0.00000  Uiso   1.00
C150   C     0.57571   0.78594   0.36084   0.00000  Uiso   1.00
C151   C     0.55424   0.90086   0.46058   0.00000  Uiso   1.00
C152   C     0.66963   0.54949   0.38195   0.00000  Uiso   1.00
C153   C     0.59483   0.47753   0.32325   0.00000  Uiso   1.00
C154   C     0.55361   0.40257   0.34767   0.00000  Uiso   1.00
C155   C     0.48657   0.34469   0.28441   0.00000  Uiso   1.00
C156   C     0.74540   0.55604   0.33255   0.00000  Uiso   1.00
C157   C     0.83079   0.54710   0.36479   0.00000  Uiso   1.00
C158   C     0.89052   0.55532   0.30937   0.00000  Uiso   1.00
C159   C     0.63732   0.63581   0.38333   0.00000  Uiso   1.00
C160   C     0.63185   0.69394   0.45826   0.00000  Uiso   1.00
C161   C     0.60061   0.76934   0.44558   0.00000  Uiso   1.00
H162   H     0.60454   0.59290   0.16035   0.00000  Uiso   1.00
H163   H     0.48378   0.44916   0.10989   0.00000  Uiso   1.00
H164   H     0.76092   0.59368   0.12702   0.00000  Uiso   1.00
H165   H     0.56201   0.74050   0.22047   0.00000  Uiso   1.00
H166   H     0.36088   0.28249   0.09124   0.00000  Uiso   1.00
H167   H     0.94525   0.58723   0.12738   0.00000  Uiso   1.00
H168   H     0.52582   0.89684   0.32443   0.00000  Uiso   1.00
H169   H     0.68898   0.53659   0.44782   0.00000  Uiso   1.00
H170   H     0.57285   0.38977   0.41313   0.00000  Uiso   1.00
H171   H     0.84999   0.53428   0.43026   0.00000  Uiso   1.00
H172   H     0.65109   0.68110   0.52371   0.00000  Uiso   1.00
H173   H     0.43318   0.23428   0.33737   0.00000  Uiso   1.00
H174   H     0.01755   0.53903   0.37350   0.00000  Uiso   1.00
H175   H     0.59812   0.84863   0.57055   0.00000  Uiso   1.00
O176   O     0.31914   0.16280   0.18629   0.00000  Uiso   1.00
O177   O     0.08581   0.56263   0.23370   0.00000  Uiso   1.00
O178   O     0.53552   0.96882   0.49223   0.00000  Uiso   1.00
N179   N     0.39382   0.29130   0.15393   0.00000  Uiso   1.00
N180   N     0.94017   0.57620   0.18771   0.00000  Uiso   1.00
N181   N     0.54806   0.86567   0.37194   0.00000  Uiso   1.00
N182   N     0.43272   0.26536   0.28637   0.00000  Uiso   1.00
N183   N     0.97907   0.55026   0.32015   0.00000  Uiso   1.00
N184   N     0.58696   0.83973   0.50438   0.00000  Uiso   1.00
C185   C     0.57950   0.22608   0.62362   0.00000  Uiso   1.00
C186   C     0.49353   0.23846   0.56984   0.00000  Uiso   1.00
C187   C     0.43563   0.17511   0.50306   0.00000  Uiso   1.00
C188   C     0.36056   0.19936   0.46185   0.00000  Uiso   1.00
C189   C     0.22957   0.20571   0.37461   0.00000  Uiso   1.00
C190   C     0.57201   0.24768   0.72003   0.00000  Uiso   1.00
C191   C     0.58010   0.19208   0.77954   0.00000  Uiso   1.00
C192   C     0.57110   0.22410   0.86475   0.00000  Uiso   1.00
C193   C     0.56200   0.24479   0.01071   0.00000  Uiso   1.00
C194   C     0.65213   0.29880   0.61219   0.00000  Uiso   1.00
C195   C     0.72761   0.28619   0.58104   0.00000  Uiso   1.00
C196   C     0.78608   0.36126   0.57549   0.00000  Uiso   1.00
C197   C     0.90139   0.46132   0.55401   0.00000  Uiso   1.00
C198   C     0.54913   0.38181   0.66916   0.00000  Uiso   1.00
C199   C     0.47704   0.32305   0.59458   0.00000  Uiso   1.00
C200   C     0.40203   0.34740   0.55345   0.00000  Uiso   1.00
C201   C     0.34404   0.28410   0.48662   0.00000  Uiso   1.00
C202   C     0.55551   0.33227   0.74477   0.00000  Uiso   1.00
C203   C     0.54650   0.36438   0.82992   0.00000  Uiso   1.00
C204   C     0.55457   0.30884   0.88954   0.00000  Uiso   1.00
C205   C     0.63564   0.38339   0.63693   0.00000  Uiso   1.00
C206   C     0.69401   0.45849   0.63143   0.00000  Uiso   1.00
C207   C     0.76956   0.44600   0.60027   0.00000  Uiso   1.00
H208   H     0.59234   0.16022   0.60436   0.00000  Uiso   1.00
H209   H     0.44842   0.10965   0.48394   0.00000  Uiso   1.00
H210   H     0.59287   0.12663   0.76037   0.00000  Uiso   1.00
H211   H     0.74035   0.22073   0.56191   0.00000  Uiso   1.00
H212   H     0.28157   0.09087   0.36137   0.00000  Uiso   1.00
H213   H     0.58619   0.12668   0.94425   0.00000  Uiso   1.00
H214   H     0.89718   0.32511   0.52574   0.00000  Uiso   1.00
H215   H     0.53629   0.44767   0.68842   0.00000  Uiso   1.00
H216   H     0.38929   0.41287   0.57261   0.00000  Uiso   1.00
H217   H     0.53374   0.42984   0.84904   0.00000  Uiso   1.00
H218   H     0.68122   0.52394   0.65058   0.00000  Uiso   1.00
H219   H     0.23357   0.33698   0.43334   0.00000  Uiso   1.00
H220   H     0.53820   0.37278   0.01622   0.00000  Uiso   1.00
H221   H     0.84919   0.57121   0.59771   0.00000  Uiso   1.00
O222   O     0.16187   0.18584   0.31967   0.00000  Uiso   1.00
O223   O     0.56153   0.23282   0.08438   0.00000  Uiso   1.00
O224   O     0.96955   0.49315   0.53531   0.00000  Uiso   1.00
N225   N     0.29045   0.15358   0.39419   0.00000  Uiso   1.00
N226   N     0.57524   0.18705   0.93914   0.00000  Uiso   1.00
N227   N     0.86601   0.37256   0.54790   0.00000  Uiso   1.00
N228   N     0.26463   0.28600   0.43291   0.00000  Uiso   1.00
N229   N     0.54942   0.31947   0.97786   0.00000  Uiso   1.00
N230   N     0.84018   0.50499   0.58662   0.00000  Uiso   1.00
C231   C     0.22616   0.62364   0.57998   0.00000  Uiso   1.00
C232   C     0.23859   0.56998   0.49426   0.00000  Uiso   1.00
C233   C     0.17508   0.50313   0.43655   0.00000  Uiso   1.00
C234   C     0.19940   0.46205   0.36169   0.00000  Uiso   1.00
C235   C     0.20579   0.37497   0.23108   0.00000  Uiso   1.00
C236   C     0.24796   0.72018   0.57245   0.00000  Uiso   1.00
C237   C     0.19235   0.77961   0.58049   0.00000  Uiso   1.00
C238   C     0.22457   0.86496   0.57145   0.00000  Uiso   1.00
C239   C     0.24554   0.01108   0.56229   0.00000  Uiso   1.00
C240   C     0.29891   0.61223   0.65243   0.00000  Uiso   1.00
C241   C     0.28613   0.58092   0.72775   0.00000  Uiso   1.00
C242   C     0.36125   0.57540   0.78607   0.00000  Uiso   1.00
C243   C     0.46131   0.55391   0.90110   0.00000  Uiso   1.00
C244   C     0.38228   0.66956   0.54965   0.00000  Uiso   1.00
C245   C     0.32339   0.59493   0.47779   0.00000  Uiso   1.00
C246   C     0.34781   0.55393   0.40300   0.00000  Uiso   1.00
C247   C     0.28436   0.48703   0.34519   0.00000  Uiso   1.00
C248   C     0.33276   0.74512   0.55598   0.00000  Uiso   1.00
C249   C     0.36508   0.83041   0.54694   0.00000  Uiso   1.00
C250   C     0.30952   0.88995   0.55495   0.00000  Uiso   1.00
C251   C     0.38371   0.63717   0.63597   0.00000  Uiso   1.00
C252   C     0.45886   0.63171   0.69419   0.00000  Uiso   1.00
C253   C     0.44620   0.60039   0.76957   0.00000  Uiso   1.00
H254   H     0.16014   0.60423   0.59280   0.00000  Uiso   1.00
H255   H     0.10946   0.48386   0.44932   0.00000  Uiso   1.00
H256   H     0.12673   0.76030   0.59324   0.00000  Uiso   1.00
H257   H     0.22050   0.56163   0.74047   0.00000  Uiso   1.00
H258   H     0.09067   0.36142   0.28296   0.00000  Uiso   1.00
H259   H     0.12709   0.94431   0.58646   0.00000  Uiso   1.00
H260   H     0.32482   0.52538   0.89692   0.00000  Uiso   1.00
H261   H     0.44830   0.68897   0.53683   0.00000  Uiso   1.00
H262   H     0.41344   0.57324   0.39027   0.00000  Uiso   1.00
H263   H     0.43070   0.84968   0.53420   0.00000  Uiso   1.00
H264   H     0.52447   0.65101   0.68143   0.00000  Uiso   1.00
H265   H     0.33738   0.43397   0.23503   0.00000  Uiso   1.00
H266   H     0.37380   0.01687   0.53854   0.00000  Uiso   1.00
H267   H     0.57153   0.59793   0.84900   0.00000  Uiso   1.00
O268   O     0.18588   0.32006   0.16358   0.00000  Uiso   1.00
O269   O     0.23367   0.08479   0.56178   0.00000  Uiso   1.00
O270   O     0.49308   0.53516   0.96910   0.00000  Uiso   1.00
N271   N     0.15352   0.39437   0.29180   0.00000  Uiso   1.00
N272   N     0.18757   0.93933   0.57554   0.00000  Uiso   1.00
N273   N     0.37243   0.54769   0.86581   0.00000  Uiso   1.00
N274   N     0.28628   0.43340   0.26601   0.00000  Uiso   1.00
N275   N     0.32032   0.97837   0.54975   0.00000  Uiso   1.00
N276   N     0.50518   0.58672   0.84003   0.00000  Uiso   1.00
