data_job_06104
_audit_creation_date              2018-12-19
_audit_creation_method            'Materials Studio'
_symmetry_space_group_name_H-M    'P1'
_symmetry_Int_Tables_number       1
_symmetry_cell_setting            triclinic
loop_
_symmetry_equiv_pos_as_xyz
  x,y,z
_cell_length_a                    15.7939
_cell_length_b                    16.4058
_cell_length_c                    16.4209
_cell_angle_alpha                 69.7690
_cell_angle_beta                  71.2997
_cell_angle_gamma                 108.6225
loop_
_atom_site_label
_atom_site_type_symbol
_atom_site_fract_x
_atom_site_fract_y
_atom_site_fract_z
_atom_site_U_iso_or_equiv
_atom_site_adp_type
_atom_site_occupancy
C1     C     0.37819   0.54350   0.72799   0.00000  Uiso   1.00
C2     C     0.26570   0.46742   0.77849   0.00000  Uiso   1.00
C3     C     0.19497   0.48072   0.75034   0.00000  Uiso   1.00
C4     C     0.09579   0.40218   0.80610   0.00000  Uiso   1.00
C5     C     0.92527   0.29754   0.87222   0.00000  Uiso   1.00
C6     C     0.39609   0.55893   0.80867   0.00000  Uiso   1.00
C7     C     0.43501   0.64918   0.80589   0.00000  Uiso   1.00
C8     C     0.44561   0.64768   0.88705   0.00000  Uiso   1.00
C9     C     0.47760   0.68513  -0.00001   0.00000  Uiso   1.00
C10    C     0.43825   0.49238   0.69899   0.00000  Uiso   1.00
C11    C     0.51265   0.52668   0.60399   0.00000  Uiso   1.00
C12    C     0.55877   0.46915   0.59281   0.00000  Uiso   1.00
C13    C     0.65622   0.40326   0.53545   0.00000  Uiso   1.00
C14    C     0.32781   0.38038   0.87706   0.00000  Uiso   1.00
C15    C     0.23834   0.37881   0.85946   0.00000  Uiso   1.00
C16    C     0.13924   0.30024   0.91527   0.00000  Uiso   1.00
C17    C     0.06838   0.31342   0.88721   0.00000  Uiso   1.00
C18    C     0.36873   0.47033   0.88964   0.00000  Uiso   1.00
C19    C     0.37928   0.46870   0.97082   0.00000  Uiso   1.00
C20    C     0.41820   0.55892   0.96817   0.00000  Uiso   1.00
C21    C     0.41089   0.40377   0.77995   0.00000  Uiso   1.00
C22    C     0.45691   0.34619   0.76892   0.00000  Uiso   1.00
C23    C     0.53136   0.38039   0.67392   0.00000  Uiso   1.00
H24    H     0.39949   0.61249   0.66496   0.00000  Uiso   1.00
H25    H     0.21618   0.54930   0.68768   0.00000  Uiso   1.00
H26    H     0.45619   0.71774   0.74322   0.00000  Uiso   1.00
H27    H     0.53381   0.59524   0.54135   0.00000  Uiso   1.00
H28    H     0.00086   0.44019   0.74860   0.00000  Uiso   1.00
H29    H     0.50697   0.79535   0.86569   0.00000  Uiso   1.00
H30    H     0.67065   0.53705   0.44001   0.00000  Uiso   1.00
H31    H     0.30651   0.31139   0.94010   0.00000  Uiso   1.00
H32    H     0.11808   0.23168   0.97792   0.00000  Uiso   1.00
H33    H     0.35810   0.40012   0.03346   0.00000  Uiso   1.00
H34    H     0.43572   0.27763   0.83159   0.00000  Uiso   1.00
H35    H     0.92124   0.18240   0.98418   0.00000  Uiso   1.00
H36    H     0.42736   0.53756   0.10126   0.00000  Uiso   1.00
H37    H     0.59104   0.27926   0.67558   0.00000  Uiso   1.00
O38    O     0.83877   0.26430   0.88633   0.00000  Uiso   1.00
O39    O     0.50279   0.73026   0.03993   0.00000  Uiso   1.00
O40    O     0.71753   0.39138   0.48145   0.00000  Uiso   1.00
N41    N     0.00798   0.39045   0.79884   0.00000  Uiso   1.00
N42    N     0.48115   0.72250   0.90832   0.00000  Uiso   1.00
N43    N     0.63420   0.48103   0.51035   0.00000  Uiso   1.00
N44    N     0.96514   0.25173   0.92560   0.00000  Uiso   1.00
N45    N     0.43831   0.58379   0.03508   0.00000  Uiso   1.00
N46    N     0.59136   0.34231   0.63711   0.00000  Uiso   1.00
C47    C     0.83477   0.72854   0.54345   0.00000  Uiso   1.00
C48    C     0.79839   0.75423   0.46723   0.00000  Uiso   1.00
C49    C     0.71449   0.76928   0.48035   0.00000  Uiso   1.00
C50    C     0.69384   0.79211   0.40171   0.00000  Uiso   1.00
C51    C     0.62802   0.83079   0.29685   0.00000  Uiso   1.00
C52    C     0.83728   0.63236   0.55888   0.00000  Uiso   1.00
C53    C     0.78609   0.54496   0.64906   0.00000  Uiso   1.00
C54    C     0.79819   0.46521   0.64758   0.00000  Uiso   1.00
C55    C     0.79280   0.31473   0.68501   0.00000  Uiso   1.00
C56    C     0.94576   0.80848   0.49255   0.00000  Uiso   1.00
C57    C     0.98579   0.86914   0.52697   0.00000  Uiso   1.00
C58    C     0.08923   0.93765   0.46965   0.00000  Uiso   1.00
C59    C     0.25227   0.06061   0.40410   0.00000  Uiso   1.00
C60    C     0.94730   0.74233   0.38046   0.00000  Uiso   1.00
C61    C     0.85951   0.76171   0.37870   0.00000  Uiso   1.00
C62    C     0.83899   0.78453   0.30002   0.00000  Uiso   1.00
C63    C     0.75507   0.79961   0.31302   0.00000  Uiso   1.00
C64    C     0.89839   0.63985   0.47035   0.00000  Uiso   1.00
C65    C     0.91058   0.56021   0.46873   0.00000  Uiso   1.00
C66    C     0.85942   0.47271   0.55889   0.00000  Uiso   1.00
C67    C     0.00688   0.81597   0.40401   0.00000  Uiso   1.00
C68    C     0.11028   0.88439   0.34664   0.00000  Uiso   1.00
C69    C     0.15046   0.94515   0.38096   0.00000  Uiso   1.00
H70    H     0.78719   0.72271   0.61237   0.00000  Uiso   1.00
H71    H     0.66721   0.76346   0.54888   0.00000  Uiso   1.00
H72    H     0.73881   0.53919   0.71756   0.00000  Uiso   1.00
H73    H     0.93847   0.86332   0.59548   0.00000  Uiso   1.00
H74    H     0.56111   0.81192   0.43945   0.00000  Uiso   1.00
H75    H     0.71211   0.33903   0.79514   0.00000  Uiso   1.00
H76    H     0.13314   0.02252   0.53771   0.00000  Uiso   1.00
H77    H     0.99488   0.74816   0.31153   0.00000  Uiso   1.00
H78    H     0.88630   0.79032   0.23152   0.00000  Uiso   1.00
H79    H     0.95789   0.56603   0.40021   0.00000  Uiso   1.00
H80    H     0.15755   0.89016   0.27813   0.00000  Uiso   1.00
H81    H     0.73893   0.83370   0.18187   0.00000  Uiso   1.00
H82    H     0.88993   0.36081   0.53756   0.00000  Uiso   1.00
H83    H     0.31096   0.04431   0.28014   0.00000  Uiso   1.00
O84    O     0.57482   0.85005   0.26347   0.00000  Uiso   1.00
O85    O     0.77294   0.22965   0.73012   0.00000  Uiso   1.00
O86    O     0.32532   0.12638   0.39238   0.00000  Uiso   1.00
N87    N     0.61788   0.81128   0.38980   0.00000  Uiso   1.00
N88    N     0.75904   0.36915   0.72235   0.00000  Uiso   1.00
N89    N     0.15267   0.00814   0.48169   0.00000  Uiso   1.00
N90    N     0.71356   0.82300   0.25120   0.00000  Uiso   1.00
N91    N     0.85472   0.38088   0.58375   0.00000  Uiso   1.00
N92    N     0.24835   0.01987   0.34309   0.00000  Uiso   1.00
C93    C     0.10617   0.72795   0.72856   0.00000  Uiso   1.00
C94    C     0.04419   0.77867   0.75413   0.00000  Uiso   1.00
C95    C     0.94540   0.75070   0.76896   0.00000  Uiso   1.00
C96    C     0.90198   0.80665   0.79172   0.00000  Uiso   1.00
C97    C     0.79762   0.87313   0.83021   0.00000  Uiso   1.00
C98    C     0.20465   0.80852   0.63254   0.00000  Uiso   1.00
C99    C     0.24078   0.80564   0.54515   0.00000  Uiso   1.00
C100   C     0.33244   0.88672   0.46556   0.00000  Uiso   1.00
C101   C     0.47723   0.99950   0.31531   0.00000  Uiso   1.00
C102   C     0.13721   0.69884   0.80862   0.00000  Uiso   1.00
C103   C     0.11666   0.60374   0.86926   0.00000  Uiso   1.00
C104   C     0.15156   0.59247   0.93790   0.00000  Uiso   1.00
C105   C     0.19164   0.53495   0.06104   0.00000  Uiso   1.00
C106   C     0.20471   0.87705   0.74260   0.00000  Uiso   1.00
C107   C     0.09772   0.85966   0.76175   0.00000  Uiso   1.00
C108   C     0.05443   0.91566   0.78450   0.00000  Uiso   1.00
C109   C     0.95560   0.88778   0.79937   0.00000  Uiso   1.00
C110   C     0.25818   0.88950   0.64017   0.00000  Uiso   1.00
C111   C     0.34981   0.97060   0.56069   0.00000  Uiso   1.00
C112   C     0.38607   0.96785   0.47320   0.00000  Uiso   1.00
C113   C     0.19073   0.77982   0.81625   0.00000  Uiso   1.00
C114   C     0.22568   0.76870   0.88480   0.00000  Uiso   1.00
C115   C     0.20519   0.67360   0.94554   0.00000  Uiso   1.00
H116   H     0.06450   0.66490   0.72261   0.00000  Uiso   1.00
H117   H     0.90401   0.68803   0.76304   0.00000  Uiso   1.00
H118   H     0.19935   0.74296   0.53928   0.00000  Uiso   1.00
H119   H     0.07524   0.54109   0.86334   0.00000  Uiso   1.00
H120   H     0.74969   0.74941   0.81120   0.00000  Uiso   1.00
H121   H     0.37244   0.86521   0.33938   0.00000  Uiso   1.00
H122   H     0.11074   0.43952   0.02272   0.00000  Uiso   1.00
H123   H     0.24639   0.94010   0.74854   0.00000  Uiso   1.00
H124   H     0.09587   0.97833   0.79039   0.00000  Uiso   1.00
H125   H     0.39121   0.03325   0.56662   0.00000  Uiso   1.00
H126   H     0.26710   0.83138   0.89068   0.00000  Uiso   1.00
H127   H     0.90541   0.98503   0.83339   0.00000  Uiso   1.00
H128   H     0.52817   0.10083   0.36157   0.00000  Uiso   1.00
H129   H     0.26646   0.67514   0.04492   0.00000  Uiso   1.00
O130   O     0.72527   0.88743   0.84933   0.00000  Uiso   1.00
O131   O     0.54230   0.03933   0.23033   0.00000  Uiso   1.00
O132   O     0.19895   0.48085   0.12686   0.00000  Uiso   1.00
N133   N     0.80699   0.79961   0.81069   0.00000  Uiso   1.00
N134   N     0.38922   0.90787   0.36957   0.00000  Uiso   1.00
N135   N     0.14457   0.50990   0.00842   0.00000  Uiso   1.00
N136   N     0.89078   0.92639   0.82264   0.00000  Uiso   1.00
N137   N     0.47301   0.03466   0.38151   0.00000  Uiso   1.00
N138   N     0.22836   0.63668   0.02036   0.00000  Uiso   1.00
C139   C     0.62181   0.45650   0.27201   0.00000  Uiso   1.00
C140   C     0.73430   0.53258   0.22151   0.00000  Uiso   1.00
C141   C     0.80503   0.51928   0.24966   0.00000  Uiso   1.00
C142   C     0.90421   0.59782   0.19390   0.00000  Uiso   1.00
C143   C     0.07473   0.70246   0.12778   0.00000  Uiso   1.00
C144   C     0.60391   0.44107   0.19133   0.00000  Uiso   1.00
C145   C     0.56499   0.35082   0.19411   0.00000  Uiso   1.00
C146   C     0.55439   0.35232   0.11295   0.00000  Uiso   1.00
C147   C     0.52240   0.31487   0.00001   0.00000  Uiso   1.00
C148   C     0.56175   0.50762   0.30101   0.00000  Uiso   1.00
C149   C     0.48735   0.47332   0.39601   0.00000  Uiso   1.00
C150   C     0.44123   0.53085   0.40719   0.00000  Uiso   1.00
C151   C     0.34378   0.59674   0.46455   0.00000  Uiso   1.00
C152   C     0.67219   0.61962   0.12294   0.00000  Uiso   1.00
C153   C     0.76166   0.62119   0.14054   0.00000  Uiso   1.00
C154   C     0.86076   0.69976   0.08473   0.00000  Uiso   1.00
C155   C     0.93162   0.68658   0.11279   0.00000  Uiso   1.00
C156   C     0.63127   0.52967   0.11036   0.00000  Uiso   1.00
C157   C     0.62072   0.53130   0.02918   0.00000  Uiso   1.00
C158   C     0.58180   0.44108   0.03183   0.00000  Uiso   1.00
C159   C     0.58911   0.59623   0.22005   0.00000  Uiso   1.00
C160   C     0.54309   0.65381   0.23108   0.00000  Uiso   1.00
C161   C     0.46864   0.61961   0.32608   0.00000  Uiso   1.00
H162   H     0.60051   0.38751   0.33504   0.00000  Uiso   1.00
H163   H     0.78382   0.45070   0.31232   0.00000  Uiso   1.00
H164   H     0.54381   0.28226   0.25678   0.00000  Uiso   1.00
H165   H     0.46619   0.40476   0.45865   0.00000  Uiso   1.00
H166   H     0.99914   0.55981   0.25140   0.00000  Uiso   1.00
H167   H     0.49303   0.20465   0.13431   0.00000  Uiso   1.00
H168   H     0.32935   0.46295   0.55999   0.00000  Uiso   1.00
H169   H     0.69349   0.68861   0.05990   0.00000  Uiso   1.00
H170   H     0.88192   0.76832   0.02208   0.00000  Uiso   1.00
H171   H     0.64190   0.59988   0.96654   0.00000  Uiso   1.00
H172   H     0.56428   0.72237   0.16841   0.00000  Uiso   1.00
H173   H     0.07876   0.81760   0.01582   0.00000  Uiso   1.00
H174   H     0.57264   0.46244   0.89874   0.00000  Uiso   1.00
H175   H     0.40896   0.72074   0.32442   0.00000  Uiso   1.00
O176   O     0.16123   0.73570   0.11367   0.00000  Uiso   1.00
O177   O     0.49721   0.26974   0.96007   0.00000  Uiso   1.00
O178   O     0.28247   0.60862   0.51855   0.00000  Uiso   1.00
N179   N     0.99202   0.60955   0.20116   0.00000  Uiso   1.00
N180   N     0.51885   0.27750   0.09168   0.00000  Uiso   1.00
N181   N     0.36580   0.51897   0.48965   0.00000  Uiso   1.00
N182   N     0.03486   0.74827   0.07440   0.00000  Uiso   1.00
N183   N     0.56169   0.41621   0.96492   0.00000  Uiso   1.00
N184   N     0.40864   0.65769   0.36289   0.00000  Uiso   1.00
C185   C     0.16522   0.27146   0.45655   0.00000  Uiso   1.00
C186   C     0.20161   0.24577   0.53277   0.00000  Uiso   1.00
C187   C     0.28551   0.23072   0.51965   0.00000  Uiso   1.00
C188   C     0.30616   0.20789   0.59829   0.00000  Uiso   1.00
C189   C     0.37198   0.16920   0.70315   0.00000  Uiso   1.00
C190   C     0.16272   0.36764   0.44112   0.00000  Uiso   1.00
C191   C     0.21391   0.45504   0.35094   0.00000  Uiso   1.00
C192   C     0.20181   0.53479   0.35242   0.00000  Uiso   1.00
C193   C     0.20719   0.68527   0.31499   0.00000  Uiso   1.00
C194   C     0.05424   0.19152   0.50745   0.00000  Uiso   1.00
C195   C     0.01421   0.13086   0.47303   0.00000  Uiso   1.00
C196   C     0.91077   0.06235   0.53035   0.00000  Uiso   1.00
C197   C     0.74773   0.93939   0.59590   0.00000  Uiso   1.00
C198   C     0.05270   0.25767   0.61954   0.00000  Uiso   1.00
C199   C     0.14049   0.23829   0.62130   0.00000  Uiso   1.00
C200   C     0.16101   0.21547   0.69998   0.00000  Uiso   1.00
C201   C     0.24493   0.20039   0.68698   0.00000  Uiso   1.00
C202   C     0.10161   0.36015   0.52965   0.00000  Uiso   1.00
C203   C     0.08942   0.43979   0.53127   0.00000  Uiso   1.00
C204   C     0.14058   0.52729   0.44111   0.00000  Uiso   1.00
C205   C     0.99312   0.18403   0.59599   0.00000  Uiso   1.00
C206   C     0.88972   0.11561   0.65336   0.00000  Uiso   1.00
C207   C     0.84954   0.05485   0.61904   0.00000  Uiso   1.00
H208   H     0.21281   0.27729   0.38763   0.00000  Uiso   1.00
H209   H     0.33279   0.23653   0.45112   0.00000  Uiso   1.00
H210   H     0.26119   0.46081   0.28244   0.00000  Uiso   1.00
H211   H     0.06153   0.13668   0.40452   0.00000  Uiso   1.00
H212   H     0.43889   0.18808   0.56055   0.00000  Uiso   1.00
H213   H     0.28789   0.66097   0.20486   0.00000  Uiso   1.00
H214   H     0.86686   0.97748   0.46229   0.00000  Uiso   1.00
H215   H     0.00512   0.25184   0.68847   0.00000  Uiso   1.00
H216   H     0.11370   0.20968   0.76848   0.00000  Uiso   1.00
H217   H     0.04211   0.43397   0.59979   0.00000  Uiso   1.00
H218   H     0.84245   0.10983   0.72187   0.00000  Uiso   1.00
H219   H     0.26107   0.16629   0.81813   0.00000  Uiso   1.00
H220   H     0.11007   0.63919   0.46244   0.00000  Uiso   1.00
H221   H     0.68904   0.95569   0.71986   0.00000  Uiso   1.00
O222   O     0.42518   0.14995   0.73653   0.00000  Uiso   1.00
O223   O     0.22706   0.77035   0.26988   0.00000  Uiso   1.00
O224   O     0.67468   0.87362   0.60761   0.00000  Uiso   1.00
N225   N     0.38212   0.18872   0.61020   0.00000  Uiso   1.00
N226   N     0.24096   0.63085   0.27765   0.00000  Uiso   1.00
N227   N     0.84733   0.99186   0.51831   0.00000  Uiso   1.00
N228   N     0.28644   0.17699   0.74880   0.00000  Uiso   1.00
N229   N     0.14528   0.61912   0.41625   0.00000  Uiso   1.00
N230   N     0.75165   0.98013   0.65691   0.00000  Uiso   1.00
C231   C     0.89383   0.27205   0.27144   0.00000  Uiso   1.00
C232   C     0.95581   0.22133   0.24587   0.00000  Uiso   1.00
C233   C     0.05460   0.24930   0.23104   0.00000  Uiso   1.00
C234   C     0.09802   0.19334   0.20828   0.00000  Uiso   1.00
C235   C     0.20238   0.12687   0.16979   0.00000  Uiso   1.00
C236   C     0.79535   0.19148   0.36746   0.00000  Uiso   1.00
C237   C     0.75922   0.19436   0.45485   0.00000  Uiso   1.00
C238   C     0.66756   0.11328   0.53444   0.00000  Uiso   1.00
C239   C     0.52277   0.00050   0.68469   0.00000  Uiso   1.00
C240   C     0.86279   0.30116   0.19138   0.00000  Uiso   1.00
C241   C     0.88334   0.39626   0.13074   0.00000  Uiso   1.00
C242   C     0.84844   0.40753   0.06210   0.00000  Uiso   1.00
C243   C     0.80836   0.46505   0.93896   0.00000  Uiso   1.00
C244   C     0.79529   0.12295   0.25740   0.00000  Uiso   1.00
C245   C     0.90228   0.14034   0.23825   0.00000  Uiso   1.00
C246   C     0.94557   0.08434   0.21550   0.00000  Uiso   1.00
C247   C     0.04440   0.11222   0.20063   0.00000  Uiso   1.00
C248   C     0.74182   0.11049   0.35983   0.00000  Uiso   1.00
C249   C     0.65019   0.02940   0.43931   0.00000  Uiso   1.00
C250   C     0.61393   0.03215   0.52680   0.00000  Uiso   1.00
C251   C     0.80927   0.22018   0.18375   0.00000  Uiso   1.00
C252   C     0.77432   0.23130   0.11520   0.00000  Uiso   1.00
C253   C     0.79481   0.32640   0.05446   0.00000  Uiso   1.00
H254   H     0.93550   0.33510   0.27739   0.00000  Uiso   1.00
H255   H     0.09599   0.31197   0.23696   0.00000  Uiso   1.00
H256   H     0.80065   0.25704   0.46072   0.00000  Uiso   1.00
H257   H     0.92476   0.45891   0.13666   0.00000  Uiso   1.00
H258   H     0.25031   0.25059   0.18880   0.00000  Uiso   1.00
H259   H     0.62756   0.13479   0.66062   0.00000  Uiso   1.00
H260   H     0.88926   0.56048   0.97728   0.00000  Uiso   1.00
H261   H     0.75361   0.05990   0.25146   0.00000  Uiso   1.00
H262   H     0.90413   0.02167   0.20961   0.00000  Uiso   1.00
H263   H     0.60879   0.96674   0.43338   0.00000  Uiso   1.00
H264   H     0.73290   0.16862   0.10932   0.00000  Uiso   1.00
H265   H     0.09459   0.01497   0.16661   0.00000  Uiso   1.00
H266   H     0.47183   0.89917   0.63843   0.00000  Uiso   1.00
H267   H     0.73354   0.32486   0.95508   0.00000  Uiso   1.00
O268   O     0.27473   0.11257   0.15067   0.00000  Uiso   1.00
O269   O     0.45770   0.96067   0.76967   0.00000  Uiso   1.00
O270   O     0.80105   0.51915   0.87314   0.00000  Uiso   1.00
N271   N     0.19301   0.20039   0.18931   0.00000  Uiso   1.00
N272   N     0.61078   0.09212   0.63043   0.00000  Uiso   1.00
N273   N     0.85543   0.49010   0.99158   0.00000  Uiso   1.00
N274   N     0.10922   0.07361   0.17736   0.00000  Uiso   1.00
N275   N     0.52699   0.96534   0.61849   0.00000  Uiso   1.00
N276   N     0.77164   0.36332   0.97964   0.00000  Uiso   1.00
