data_job_06951
_audit_creation_date              2018-12-19
_audit_creation_method            'Materials Studio'
_symmetry_space_group_name_H-M    'P1'
_symmetry_Int_Tables_number       1
_symmetry_cell_setting            triclinic
loop_
_symmetry_equiv_pos_as_xyz
  x,y,z
_cell_length_a                    22.7858
_cell_length_b                    20.1978
_cell_length_c                    18.8699
_cell_angle_alpha                 92.5370
_cell_angle_beta                  77.9571
_cell_angle_gamma                 67.9765
loop_
_atom_site_label
_atom_site_type_symbol
_atom_site_fract_x
_atom_site_fract_y
_atom_site_fract_z
_atom_site_U_iso_or_equiv
_atom_site_adp_type
_atom_site_occupancy
C1     C     0.00706   0.29534   0.81815   0.00000  Uiso   1.00
C2     C     0.97421   0.33857   0.76290   0.00000  Uiso   1.00
C3     C     0.00273   0.33306   0.68915   0.00000  Uiso   1.00
C4     C     0.96456   0.37732   0.64776   0.00000  Uiso   1.00
C5     C     0.92337   0.43717   0.55722   0.00000  Uiso   1.00
C6     C     0.00225   0.35058   0.87918   0.00000  Uiso   1.00
C7     C     0.05434   0.35517   0.90320   0.00000  Uiso   1.00
C8     C     0.03977   0.40953   0.95970   0.00000  Uiso   1.00
C9     C     0.04210   0.48800   0.04973   0.00000  Uiso   1.00
C10    C     0.96350   0.25743   0.85186   0.00000  Uiso   1.00
C11    C     0.98302   0.18369   0.85293   0.00000  Uiso   1.00
C12    C     0.93582   0.15963   0.88645   0.00000  Uiso   1.00
C13    C     0.87799   0.09347   0.93405   0.00000  Uiso   1.00
C14    C     0.88856   0.38372   0.87578   0.00000  Uiso   1.00
C15    C     0.90985   0.38658   0.79421   0.00000  Uiso   1.00
C16    C     0.87163   0.43085   0.75292   0.00000  Uiso   1.00
C17    C     0.90009   0.42541   0.67912   0.00000  Uiso   1.00
C18    C     0.93789   0.39859   0.91048   0.00000  Uiso   1.00
C19    C     0.92324   0.45295   0.96697   0.00000  Uiso   1.00
C20    C     0.97529   0.45762   0.99106   0.00000  Uiso   1.00
C21    C     0.89914   0.30544   0.88316   0.00000  Uiso   1.00
C22    C     0.85191   0.28148   0.91669   0.00000  Uiso   1.00
C23    C     0.87135   0.20772   0.91781   0.00000  Uiso   1.00
H24    H     0.05717   0.25796   0.79378   0.00000  Uiso   1.00
H25    H     0.05255   0.29591   0.66495   0.00000  Uiso   1.00
H26    H     0.10414   0.31801   0.87897   0.00000  Uiso   1.00
H27    H     0.03283   0.14656   0.82871   0.00000  Uiso   1.00
H28    H     0.01905   0.35917   0.53593   0.00000  Uiso   1.00
H29    H     0.12784   0.40574   0.98722   0.00000  Uiso   1.00
H30    H     0.97746   0.04421   0.88123   0.00000  Uiso   1.00
H31    H     0.83845   0.42110   0.90015   0.00000  Uiso   1.00
H32    H     0.82182   0.46800   0.77715   0.00000  Uiso   1.00
H33    H     0.87343   0.49009   0.99118   0.00000  Uiso   1.00
H34    H     0.80211   0.31865   0.94091   0.00000  Uiso   1.00
H35    H     0.83178   0.49884   0.62700   0.00000  Uiso   1.00
H36    H     0.94059   0.54542   0.07829   0.00000  Uiso   1.00
H37    H     0.79020   0.18389   0.97229   0.00000  Uiso   1.00
O38    O     0.91843   0.45693   0.49864   0.00000  Uiso   1.00
O39    O     0.06117   0.51802   0.09073   0.00000  Uiso   1.00
O40    O     0.86387   0.04371   0.95165   0.00000  Uiso   1.00
N41    N     0.97725   0.38559   0.57424   0.00000  Uiso   1.00
N42    N     0.07897   0.42915   0.99616   0.00000  Uiso   1.00
N43    N     0.93838   0.09115   0.89708   0.00000  Uiso   1.00
N44    N     0.87649   0.46075   0.62324   0.00000  Uiso   1.00
N45    N     0.97821   0.50430   0.04517   0.00000  Uiso   1.00
N46    N     0.83762   0.16631   0.94608   0.00000  Uiso   1.00
C47    C     0.89525   0.78195   0.48000   0.00000  Uiso   1.00
C48    C     0.84207   0.78713   0.44046   0.00000  Uiso   1.00
C49    C     0.80755   0.84661   0.41025   0.00000  Uiso   1.00
C50    C     0.76085   0.84064   0.37641   0.00000  Uiso   1.00
C51    C     0.68003   0.85831   0.31557   0.00000  Uiso   1.00
C52    C     0.87341   0.76253   0.55538   0.00000  Uiso   1.00
C53    C     0.86527   0.80133   0.62180   0.00000  Uiso   1.00
C54    C     0.84497   0.77464   0.68469   0.00000  Uiso   1.00
C55    C     0.81286   0.75409   0.80228   0.00000  Uiso   1.00
C56    C     0.95549   0.71644   0.43978   0.00000  Uiso   1.00
C57    C     0.01637   0.71648   0.40901   0.00000  Uiso   1.00
C58    C     0.06518   0.65098   0.37459   0.00000  Uiso   1.00
C59    C     0.16052   0.55887   0.31269   0.00000  Uiso   1.00
C60    C     0.87369   0.66556   0.47360   0.00000  Uiso   1.00
C61    C     0.83035   0.72391   0.43699   0.00000  Uiso   1.00
C62    C     0.78370   0.71785   0.40318   0.00000  Uiso   1.00
C63    C     0.74912   0.77731   0.37293   0.00000  Uiso   1.00
C64    C     0.86170   0.69931   0.55191   0.00000  Uiso   1.00
C65    C     0.84141   0.67256   0.61473   0.00000  Uiso   1.00
C66    C     0.83323   0.71131   0.68122   0.00000  Uiso   1.00
C67    C     0.94378   0.65322   0.43630   0.00000  Uiso   1.00
C68    C     0.99251   0.58771   0.40194   0.00000  Uiso   1.00
C69    C     0.05345   0.58765   0.37112   0.00000  Uiso   1.00
H70    H     0.90437   0.83116   0.48270   0.00000  Uiso   1.00
H71    H     0.81663   0.89553   0.41295   0.00000  Uiso   1.00
H72    H     0.87434   0.85024   0.62447   0.00000  Uiso   1.00
H73    H     0.02542   0.76541   0.41171   0.00000  Uiso   1.00
H74    H     0.71417   0.93902   0.33412   0.00000  Uiso   1.00
H75    H     0.83588   0.84351   0.78010   0.00000  Uiso   1.00
H76    H     0.15446   0.66462   0.33146   0.00000  Uiso   1.00
H77    H     0.86457   0.61635   0.47090   0.00000  Uiso   1.00
H78    H     0.77464   0.66892   0.40050   0.00000  Uiso   1.00
H79    H     0.83236   0.62364   0.61202   0.00000  Uiso   1.00
H80    H     0.98343   0.53880   0.39926   0.00000  Uiso   1.00
H81    H     0.68009   0.75510   0.32401   0.00000  Uiso   1.00
H82    H     0.80181   0.65959   0.77000   0.00000  Uiso   1.00
H83    H     0.12038   0.48070   0.32136   0.00000  Uiso   1.00
O84    O     0.63868   0.88553   0.28299   0.00000  Uiso   1.00
O85    O     0.79837   0.76022   0.86810   0.00000  Uiso   1.00
O86    O     0.21633   0.52553   0.27949   0.00000  Uiso   1.00
N87    N     0.71850   0.88851   0.34139   0.00000  Uiso   1.00
N88    N     0.83228   0.79923   0.75836   0.00000  Uiso   1.00
N89    N     0.13013   0.63198   0.33893   0.00000  Uiso   1.00
N90    N     0.70016   0.78954   0.33595   0.00000  Uiso   1.00
N91    N     0.81395   0.70026   0.75292   0.00000  Uiso   1.00
N92    N     0.11179   0.53301   0.33350   0.00000  Uiso   1.00
C93    C     0.42983   0.56828   0.08437   0.00000  Uiso   1.00
C94    C     0.42260   0.50016   0.05724   0.00000  Uiso   1.00
C95    C     0.40735   0.45252   0.10086   0.00000  Uiso   1.00
C96    C     0.40299   0.39335   0.06557   0.00000  Uiso   1.00
C97    C     0.39020   0.28922   0.03504   0.00000  Uiso   1.00
C98    C     0.49796   0.56077   0.04446   0.00000  Uiso   1.00
C99    C     0.54606   0.56410   0.07734   0.00000  Uiso   1.00
C100   C     0.60514   0.55597   0.03129   0.00000  Uiso   1.00
C101   C     0.70933   0.54600   0.98091   0.00000  Uiso   1.00
C102   C     0.38223   0.62997   0.05529   0.00000  Uiso   1.00
C103   C     0.33303   0.69150   0.09727   0.00000  Uiso   1.00
C104   C     0.29468   0.74163   0.06033   0.00000  Uiso   1.00
C105   C     0.21917   0.83910   0.02677   0.00000  Uiso   1.00
C106   C     0.44922   0.54792   0.94412   0.00000  Uiso   1.00
C107   C     0.43314   0.48910   0.98106   0.00000  Uiso   1.00
C108   C     0.42880   0.42999   0.94570   0.00000  Uiso   1.00
C109   C     0.41354   0.38227   0.98926   0.00000  Uiso   1.00
C110   C     0.50849   0.54971   0.96828   0.00000  Uiso   1.00
C111   C     0.56752   0.54157   0.92217   0.00000  Uiso   1.00
C112   C     0.61570   0.54489   0.95497   0.00000  Uiso   1.00
C113   C     0.39276   0.61891   0.97911   0.00000  Uiso   1.00
C114   C     0.35448   0.66896   0.94210   0.00000  Uiso   1.00
C115   C     0.30523   0.73055   0.98401   0.00000  Uiso   1.00
H116   H     0.42163   0.57690   0.14367   0.00000  Uiso   1.00
H117   H     0.39920   0.46109   0.15982   0.00000  Uiso   1.00
H118   H     0.53789   0.57267   0.13629   0.00000  Uiso   1.00
H119   H     0.32489   0.70004   0.15622   0.00000  Uiso   1.00
H120   H     0.37900   0.32781   0.14411   0.00000  Uiso   1.00
H121   H     0.67143   0.56310   0.09451   0.00000  Uiso   1.00
H122   H     0.22227   0.83168   0.13653   0.00000  Uiso   1.00
H123   H     0.45742   0.53931   0.88481   0.00000  Uiso   1.00
H124   H     0.43695   0.42144   0.88674   0.00000  Uiso   1.00
H125   H     0.57565   0.53302   0.86322   0.00000  Uiso   1.00
H126   H     0.36264   0.66039   0.88315   0.00000  Uiso   1.00
H127   H     0.40965   0.29562   0.92248   0.00000  Uiso   1.00
H128   H     0.70208   0.53092   0.87288   0.00000  Uiso   1.00
H129   H     0.25292   0.79950   0.91490   0.00000  Uiso   1.00
O130   O     0.38024   0.23484   0.03924   0.00000  Uiso   1.00
O131   O     0.76389   0.54355   0.97417   0.00000  Uiso   1.00
O132   O     0.17460   0.89592   0.02930   0.00000  Uiso   1.00
N133   N     0.38901   0.33642   0.09169   0.00000  Uiso   1.00
N134   N     0.66242   0.55639   0.04532   0.00000  Uiso   1.00
N135   N     0.24251   0.80750   0.08460   0.00000  Uiso   1.00
N136   N     0.40550   0.31910   0.97243   0.00000  Uiso   1.00
N137   N     0.67891   0.53907   0.92606   0.00000  Uiso   1.00
N138   N     0.25899   0.79018   0.96534   0.00000  Uiso   1.00
C139   C     0.63999   0.06192   0.93927   0.00000  Uiso   1.00
C140   C     0.62353   0.99643   0.95368   0.00000  Uiso   1.00
C141   C     0.66782   0.92516   0.93979   0.00000  Uiso   1.00
C142   C     0.64306   0.87307   0.95681   0.00000  Uiso   1.00
C143   C     0.62765   0.76856   0.97468   0.00000  Uiso   1.00
C144   C     0.61474   0.11085   0.01222   0.00000  Uiso   1.00
C145   C     0.65163   0.13579   0.04754   0.00000  Uiso   1.00
C146   C     0.61947   0.18002   0.11384   0.00000  Uiso   1.00
C147   C     0.59039   0.25319   0.22257   0.00000  Uiso   1.00
C148   C     0.59761   0.10193   0.88955   0.00000  Uiso   1.00
C149   C     0.62010   0.11938   0.82174   0.00000  Uiso   1.00
C150   C     0.57353   0.15612   0.78477   0.00000  Uiso   1.00
C151   C     0.51786   0.21544   0.70305   0.00000  Uiso   1.00
C152   C     0.51728   0.09614   0.99420   0.00000  Uiso   1.00
C153   C     0.55688   0.01502   0.98352   0.00000  Uiso   1.00
C154   C     0.53205   0.96303   0.00056   0.00000  Uiso   1.00
C155   C     0.57629   0.89169   0.98670   0.00000  Uiso   1.00
C156   C     0.54809   0.12944   0.04206   0.00000  Uiso   1.00
C157   C     0.51587   0.17365   0.10832   0.00000  Uiso   1.00
C158   C     0.55270   0.19865   0.14373   0.00000  Uiso   1.00
C159   C     0.53096   0.12052   0.91939   0.00000  Uiso   1.00
C160   C     0.48434   0.15724   0.88252   0.00000  Uiso   1.00
C161   C     0.50676   0.17475   0.81466   0.00000  Uiso   1.00
H162   H     0.69188   0.04745   0.91604   0.00000  Uiso   1.00
H163   H     0.71939   0.91080   0.91670   0.00000  Uiso   1.00
H164   H     0.70320   0.12140   0.02443   0.00000  Uiso   1.00
H165   H     0.67168   0.10499   0.79867   0.00000  Uiso   1.00
H166   H     0.72051   0.76750   0.93062   0.00000  Uiso   1.00
H167   H     0.68637   0.21158   0.15776   0.00000  Uiso   1.00
H168   H     0.61990   0.17698   0.68170   0.00000  Uiso   1.00
H169   H     0.46539   0.11062   0.01743   0.00000  Uiso   1.00
H170   H     0.48047   0.97743   0.02365   0.00000  Uiso   1.00
H171   H     0.46429   0.18803   0.13139   0.00000  Uiso   1.00
H172   H     0.43277   0.17162   0.90562   0.00000  Uiso   1.00
H173   H     0.52659   0.82157   0.01743   0.00000  Uiso   1.00
H174   H     0.49245   0.26566   0.24457   0.00000  Uiso   1.00
H175   H     0.42599   0.23106   0.76851   0.00000  Uiso   1.00
O176   O     0.63756   0.70578   0.97631   0.00000  Uiso   1.00
O177   O     0.59277   0.28841   0.27431   0.00000  Uiso   1.00
O178   O     0.50557   0.24301   0.64972   0.00000  Uiso   1.00
N179   N     0.67280   0.79850   0.95018   0.00000  Uiso   1.00
N180   N     0.64088   0.21368   0.16255   0.00000  Uiso   1.00
N181   N     0.57874   0.18135   0.71748   0.00000  Uiso   1.00
N182   N     0.56845   0.82760   0.99689   0.00000  Uiso   1.00
N183   N     0.53654   0.24278   0.20926   0.00000  Uiso   1.00
N184   N     0.47440   0.21045   0.76419   0.00000  Uiso   1.00
C185   C     0.43719   0.68329   0.53332   0.00000  Uiso   1.00
C186   C     0.37548   0.70058   0.50566   0.00000  Uiso   1.00
C187   C     0.31288   0.71949   0.54898   0.00000  Uiso   1.00
C188   C     0.26294   0.73324   0.51322   0.00000  Uiso   1.00
C189   C     0.16525   0.76089   0.48188   0.00000  Uiso   1.00
C190   C     0.46765   0.73481   0.50273   0.00000  Uiso   1.00
C191   C     0.48255   0.78250   0.54359   0.00000  Uiso   1.00
C192   C     0.51020   0.82505   0.50536   0.00000  Uiso   1.00
C193   C     0.55564   0.90581   0.46947   0.00000  Uiso   1.00
C194   C     0.48394   0.60816   0.49525   0.00000  Uiso   1.00
C195   C     0.51256   0.54936   0.52982   0.00000  Uiso   1.00
C196   C     0.55394   0.48529   0.48528   0.00000  Uiso   1.00
C197   C     0.62469   0.36941   0.43779   0.00000  Uiso   1.00
C198   C     0.45982   0.67406   0.39278   0.00000  Uiso   1.00
C199   C     0.38777   0.69557   0.42932   0.00000  Uiso   1.00
C200   C     0.33791   0.70929   0.39348   0.00000  Uiso   1.00
C201   C     0.27525   0.72822   0.43674   0.00000  Uiso   1.00
C202   C     0.47994   0.72980   0.42640   0.00000  Uiso   1.00
C203   C     0.50758   0.77229   0.38809   0.00000  Uiso   1.00
C204   C     0.52251   0.82004   0.42888   0.00000  Uiso   1.00
C205   C     0.49623   0.60315   0.41891   0.00000  Uiso   1.00
C206   C     0.53759   0.53916   0.37432   0.00000  Uiso   1.00
C207   C     0.56626   0.48027   0.40881   0.00000  Uiso   1.00
H208   H     0.42762   0.68719   0.59275   0.00000  Uiso   1.00
H209   H     0.30339   0.72337   0.60806   0.00000  Uiso   1.00
H210   H     0.47303   0.78636   0.60266   0.00000  Uiso   1.00
H211   H     0.50303   0.55326   0.58889   0.00000  Uiso   1.00
H212   H     0.17107   0.76130   0.59136   0.00000  Uiso   1.00
H213   H     0.52880   0.89410   0.57999   0.00000  Uiso   1.00
H214   H     0.59206   0.40257   0.55095   0.00000  Uiso   1.00
H215   H     0.46939   0.67016   0.33334   0.00000  Uiso   1.00
H216   H     0.34744   0.70540   0.33441   0.00000  Uiso   1.00
H217   H     0.51709   0.76839   0.32902   0.00000  Uiso   1.00
H218   H     0.54709   0.53530   0.31525   0.00000  Uiso   1.00
H219   H     0.20682   0.74672   0.36926   0.00000  Uiso   1.00
H220   H     0.56456   0.87952   0.35789   0.00000  Uiso   1.00
H221   H     0.62782   0.38799   0.32885   0.00000  Uiso   1.00
O222   O     0.10797   0.77753   0.48569   0.00000  Uiso   1.00
O223   O     0.57731   0.95174   0.47078   0.00000  Uiso   1.00
O224   O     0.66030   0.30686   0.43268   0.00000  Uiso   1.00
N225   N     0.19622   0.75302   0.53894   0.00000  Uiso   1.00
N226   N     0.53067   0.87718   0.52831   0.00000  Uiso   1.00
N227   N     0.58983   0.41765   0.50116   0.00000  Uiso   1.00
N228   N     0.21546   0.74517   0.41943   0.00000  Uiso   1.00
N229   N     0.54990   0.86934   0.40880   0.00000  Uiso   1.00
N230   N     0.60907   0.40980   0.38165   0.00000  Uiso   1.00
C231   C     0.08399   0.21611   0.31474   0.00000  Uiso   1.00
C232   C     0.09337   0.17349   0.24160   0.00000  Uiso   1.00
C233   C     0.11096   0.19278   0.17316   0.00000  Uiso   1.00
C234   C     0.11705   0.14656   0.11289   0.00000  Uiso   1.00
C235   C     0.13333   0.08998   0.99810   0.00000  Uiso   1.00
C236   C     0.12967   0.16445   0.35476   0.00000  Uiso   1.00
C237   C     0.17778   0.17615   0.38148   0.00000  Uiso   1.00
C238   C     0.21442   0.12232   0.41647   0.00000  Uiso   1.00
C239   C     0.28703   0.05173   0.47742   0.00000  Uiso   1.00
C240   C     0.01490   0.23062   0.35791   0.00000  Uiso   1.00
C241   C     0.96652   0.29795   0.38729   0.00000  Uiso   1.00
C242   C     0.90654   0.29983   0.42494   0.00000  Uiso   1.00
C243   C     0.80096   0.33199   0.49077   0.00000  Uiso   1.00
C244   C     0.06350   0.09972   0.32939   0.00000  Uiso   1.00
C245   C     0.08224   0.11027   0.24956   0.00000  Uiso   1.00
C246   C     0.08830   0.06401   0.18937   0.00000  Uiso   1.00
C247   C     0.10590   0.08323   0.12086   0.00000  Uiso   1.00
C248   C     0.11854   0.10123   0.36272   0.00000  Uiso   1.00
C249   C     0.15511   0.04737   0.39768   0.00000  Uiso   1.00
C250   C     0.20327   0.05898   0.42444   0.00000  Uiso   1.00
C251   C     0.00377   0.16740   0.36586   0.00000  Uiso   1.00
C252   C     0.94385   0.16918   0.40349   0.00000  Uiso   1.00
C253   C     0.89539   0.23650   0.43291   0.00000  Uiso   1.00
H254   H     0.09266   0.26532   0.30855   0.00000  Uiso   1.00
H255   H     0.11958   0.24171   0.16703   0.00000  Uiso   1.00
H256   H     0.18638   0.22508   0.37532   0.00000  Uiso   1.00
H257   H     0.97515   0.34686   0.38112   0.00000  Uiso   1.00
H258   H     0.14454   0.18763   0.01364   0.00000  Uiso   1.00
H259   H     0.28537   0.15258   0.45284   0.00000  Uiso   1.00
H260   H     0.83997   0.40939   0.46508   0.00000  Uiso   1.00
H261   H     0.05484   0.05049   0.33559   0.00000  Uiso   1.00
H262   H     0.07968   0.01509   0.19554   0.00000  Uiso   1.00
H263   H     0.14648   0.99846   0.40383   0.00000  Uiso   1.00
H264   H     0.93526   0.12024   0.40963   0.00000  Uiso   1.00
H265   H     0.11216   0.00369   0.03678   0.00000  Uiso   1.00
H266   H     0.25300   0.96865   0.47599   0.00000  Uiso   1.00
H267   H     0.80759   0.22545   0.48822   0.00000  Uiso   1.00
O268   O     0.14540   0.07623   0.93259   0.00000  Uiso   1.00
O269   O     0.33016   0.03026   0.50883   0.00000  Uiso   1.00
O270   O     0.74579   0.36718   0.52488   0.00000  Uiso   1.00
N271   N     0.13350   0.14920   0.03830   0.00000  Uiso   1.00
N272   N     0.26518   0.11643   0.44892   0.00000  Uiso   1.00
N273   N     0.84876   0.35652   0.46038   0.00000  Uiso   1.00
N274   N     0.11607   0.05023   0.05075   0.00000  Uiso   1.00
N275   N     0.24775   0.01746   0.46137   0.00000  Uiso   1.00
N276   N     0.83134   0.25755   0.47283   0.00000  Uiso   1.00
C277   C     0.30630   0.27362   0.38590   0.00000  Uiso   1.00
C278   C     0.30266   0.26367   0.46612   0.00000  Uiso   1.00
C279   C     0.24598   0.27830   0.51991   0.00000  Uiso   1.00
C280   C     0.25297   0.26560   0.59000   0.00000  Uiso   1.00
C281   C     0.23797   0.25413   0.71216   0.00000  Uiso   1.00
C282   C     0.35149   0.20044   0.34201   0.00000  Uiso   1.00
C283   C     0.33587   0.16192   0.29145   0.00000  Uiso   1.00
C284   C     0.38398   0.09599   0.25706   0.00000  Uiso   1.00
C285   C     0.44481   0.98638   0.18651   0.00000  Uiso   1.00
C286   C     0.34232   0.32346   0.36932   0.00000  Uiso   1.00
C287   C     0.31899   0.38836   0.34171   0.00000  Uiso   1.00
C288   C     0.35938   0.42600   0.33029   0.00000  Uiso   1.00
C289   C     0.40597   0.50739   0.30215   0.00000  Uiso   1.00
C290   C     0.41951   0.22504   0.41472   0.00000  Uiso   1.00
C291   C     0.36416   0.23728   0.48177   0.00000  Uiso   1.00
C292   C     0.37124   0.22456   0.55179   0.00000  Uiso   1.00
C293   C     0.31457   0.23917   0.60568   0.00000  Uiso   1.00
C294   C     0.41299   0.17405   0.35766   0.00000  Uiso   1.00
C295   C     0.46113   0.10817   0.32334   0.00000  Uiso   1.00
C296   C     0.44558   0.06956   0.27274   0.00000  Uiso   1.00
C297   C     0.40381   0.29707   0.38498   0.00000  Uiso   1.00
C298   C     0.44425   0.33462   0.37360   0.00000  Uiso   1.00
C299   C     0.42099   0.39957   0.34597   0.00000  Uiso   1.00
H300   H     0.25842   0.29416   0.37371   0.00000  Uiso   1.00
H301   H     0.19840   0.29872   0.50777   0.00000  Uiso   1.00
H302   H     0.28828   0.18235   0.27935   0.00000  Uiso   1.00
H303   H     0.27140   0.40876   0.32960   0.00000  Uiso   1.00
H304   H     0.15897   0.29211   0.66330   0.00000  Uiso   1.00
H305   H     0.34850   0.04676   0.18163   0.00000  Uiso   1.00
H306   H     0.31291   0.52419   0.28760   0.00000  Uiso   1.00
H307   H     0.46739   0.20450   0.42690   0.00000  Uiso   1.00
H308   H     0.41883   0.20414   0.56389   0.00000  Uiso   1.00
H309   H     0.50871   0.08777   0.33546   0.00000  Uiso   1.00
H310   H     0.49184   0.31418   0.38571   0.00000  Uiso   1.00
H311   H     0.33788   0.21534   0.70884   0.00000  Uiso   1.00
H312   H     0.52741   0.96999   0.22717   0.00000  Uiso   1.00
H313   H     0.49183   0.44742   0.33314   0.00000  Uiso   1.00
O314   O     0.21271   0.25508   0.77522   0.00000  Uiso   1.00
O315   O     0.46137   0.93320   0.14328   0.00000  Uiso   1.00
O316   O     0.41468   0.55958   0.28231   0.00000  Uiso   1.00
N317   N     0.20774   0.27410   0.65522   0.00000  Uiso   1.00
N318   N     0.38493   0.04471   0.20490   0.00000  Uiso   1.00
N319   N     0.35167   0.49106   0.30395   0.00000  Uiso   1.00
N320   N     0.30401   0.23280   0.67973   0.00000  Uiso   1.00
N321   N     0.48121   0.00340   0.22941   0.00000  Uiso   1.00
N322   N     0.44794   0.44975   0.32846   0.00000  Uiso   1.00
C323   C     0.38136   0.86283   0.85937   0.00000  Uiso   1.00
C324   C     0.45556   0.82483   0.83774   0.00000  Uiso   1.00
C325   C     0.49159   0.75638   0.85169   0.00000  Uiso   1.00
C326   C     0.55900   0.73121   0.82745   0.00000  Uiso   1.00
C327   C     0.66961   0.66582   0.79944   0.00000  Uiso   1.00
C328   C     0.36054   0.88239   0.78877   0.00000  Uiso   1.00
C329   C     0.31667   0.86234   0.76156   0.00000  Uiso   1.00
C330   C     0.30409   0.88565   0.69609   0.00000  Uiso   1.00
C331   C     0.26715   0.90967   0.59209   0.00000  Uiso   1.00
C332   C     0.36611   0.93407   0.90507   0.00000  Uiso   1.00
C333   C     0.32690   0.95750   0.97565   0.00000  Uiso   1.00
C334   C     0.31900   0.02433   0.00810   0.00000  Uiso   1.00
C335   C     0.29070   0.12859   0.08468   0.00000  Uiso   1.00
C336   C     0.43701   0.93987   0.79150   0.00000  Uiso   1.00
C337   C     0.48578   0.86667   0.80088   0.00000  Uiso   1.00
C338   C     0.55316   0.84161   0.77661   0.00000  Uiso   1.00
C339   C     0.58928   0.77314   0.79052   0.00000  Uiso   1.00
C340   C     0.39076   0.92423   0.75191   0.00000  Uiso   1.00
C341   C     0.37824   0.94758   0.68647   0.00000  Uiso   1.00
C342   C     0.33437   0.92757   0.65916   0.00000  Uiso   1.00
C343   C     0.39633   0.97592   0.86821   0.00000  Uiso   1.00
C344   C     0.38848   0.04273   0.90056   0.00000  Uiso   1.00
C345   C     0.34928   0.06625   0.97117   0.00000  Uiso   1.00
H346   H     0.35782   0.83026   0.88806   0.00000  Uiso   1.00
H347   H     0.46818   0.72401   0.88022   0.00000  Uiso   1.00
H348   H     0.29328   0.82997   0.79010   0.00000  Uiso   1.00
H349   H     0.30352   0.92510   0.00416   0.00000  Uiso   1.00
H350   H     0.60385   0.62465   0.85524   0.00000  Uiso   1.00
H351   H     0.23506   0.84810   0.66523   0.00000  Uiso   1.00
H352   H     0.25665   0.04871   0.11661   0.00000  Uiso   1.00
H353   H     0.46054   0.97245   0.76280   0.00000  Uiso   1.00
H354   H     0.57653   0.87400   0.74808   0.00000  Uiso   1.00
H355   H     0.40164   0.97996   0.65796   0.00000  Uiso   1.00
H356   H     0.41188   0.07510   0.87202   0.00000  Uiso   1.00
H357   H     0.69180   0.74640   0.74799   0.00000  Uiso   1.00
H358   H     0.32300   0.96984   0.55799   0.00000  Uiso   1.00
H359   H     0.34460   0.17045   0.00937   0.00000  Uiso   1.00
O360   O     0.72228   0.61819   0.79417   0.00000  Uiso   1.00
O361   O     0.23842   0.91135   0.54490   0.00000  Uiso   1.00
O362   O     0.26676   0.17454   0.13710   0.00000  Uiso   1.00
N363   N     0.60863   0.66682   0.83203   0.00000  Uiso   1.00
N364   N     0.26384   0.87572   0.65438   0.00000  Uiso   1.00
N365   N     0.28401   0.06328   0.07638   0.00000  Uiso   1.00
N366   N     0.65596   0.73233   0.77432   0.00000  Uiso   1.00
N367   N     0.31117   0.94123   0.59667   0.00000  Uiso   1.00
N368   N     0.33134   0.12879   0.01867   0.00000  Uiso   1.00
C369   C     0.93314   0.00335   0.13209   0.00000  Uiso   1.00
C370   C     0.93513   0.07790   0.13983   0.00000  Uiso   1.00
C371   C     0.95631   0.11127   0.08309   0.00000  Uiso   1.00
C372   C     0.95432   0.17954   0.10146   0.00000  Uiso   1.00
C373   C     0.96079   0.29020   0.10244   0.00000  Uiso   1.00
C374   C     0.86272   0.01410   0.16567   0.00000  Uiso   1.00
C375   C     0.82303   0.99380   0.13065   0.00000  Uiso   1.00
C376   C     0.76009   0.00835   0.17077   0.00000  Uiso   1.00
C377   C     0.65415   0.01990   0.21188   0.00000  Uiso   1.00
C378   C     0.97332   0.96047   0.18229   0.00000  Uiso   1.00
C379   C     0.02661   0.89508   0.16124   0.00000  Uiso   1.00
C380   C     0.05678   0.86447   0.21537   0.00000  Uiso   1.00
C381   C     0.12257   0.79277   0.28228   0.00000  Uiso   1.00
C382   C     0.89194   0.06525   0.26563   0.00000  Uiso   1.00
C383   C     0.91275   0.11153   0.21236   0.00000  Uiso   1.00
C384   C     0.91073   0.17976   0.23083   0.00000  Uiso   1.00
C385   C     0.93190   0.21322   0.17412   0.00000  Uiso   1.00
C386   C     0.84034   0.04772   0.23820   0.00000  Uiso   1.00
C387   C     0.77745   0.06229   0.27839   0.00000  Uiso   1.00
C388   C     0.73767   0.04203   0.24344   0.00000  Uiso   1.00
C389   C     0.95095   0.99410   0.25482   0.00000  Uiso   1.00
C390   C     0.98103   0.96358   0.30899   0.00000  Uiso   1.00
C391   C     0.03436   0.89816   0.28803   0.00000  Uiso   1.00
H392   H     0.95056   0.97717   0.07562   0.00000  Uiso   1.00
H393   H     0.97362   0.08524   0.02696   0.00000  Uiso   1.00
H394   H     0.84037   0.96778   0.07452   0.00000  Uiso   1.00
H395   H     0.04392   0.86908   0.10511   0.00000  Uiso   1.00
H396   H     0.98930   0.21988   0.00499   0.00000  Uiso   1.00
H397   H     0.70833   0.97220   0.10528   0.00000  Uiso   1.00
H398   H     0.13756   0.76407   0.16979   0.00000  Uiso   1.00
H399   H     0.87451   0.09143   0.32210   0.00000  Uiso   1.00
H400   H     0.89341   0.20576   0.28696   0.00000  Uiso   1.00
H401   H     0.76015   0.08831   0.33452   0.00000  Uiso   1.00
H402   H     0.96370   0.98961   0.36511   0.00000  Uiso   1.00
H403   H     0.92419   0.31771   0.21602   0.00000  Uiso   1.00
H404   H     0.64322   0.07002   0.31630   0.00000  Uiso   1.00
H405   H     0.07245   0.86190   0.38081   0.00000  Uiso   1.00
O406   O     0.97053   0.34196   0.08294   0.00000  Uiso   1.00
O407   O     0.60190   0.01699   0.21451   0.00000  Uiso   1.00
O408   O     0.16505   0.74394   0.29914   0.00000  Uiso   1.00
N409   N     0.97140   0.22721   0.05948   0.00000  Uiso   1.00
N410   N     0.70870   0.99565   0.15324   0.00000  Uiso   1.00
N411   N     0.10998   0.80106   0.21355   0.00000  Uiso   1.00
N412   N     0.93636   0.27985   0.17303   0.00000  Uiso   1.00
N413   N     0.67366   0.04829   0.26679   0.00000  Uiso   1.00
N414   N     0.07495   0.85370   0.32710   0.00000  Uiso   1.00
C415   C     0.66961   0.58959   0.26108   0.00000  Uiso   1.00
C416   C     0.69743   0.63740   0.21740   0.00000  Uiso   1.00
C417   C     0.66133   0.70451   0.20056   0.00000  Uiso   1.00
C418   C     0.69591   0.73971   0.16005   0.00000  Uiso   1.00
C419   C     0.72875   0.81862   0.09566   0.00000  Uiso   1.00
C420   C     0.69531   0.51760   0.21219   0.00000  Uiso   1.00
C421   C     0.65742   0.48399   0.19099   0.00000  Uiso   1.00
C422   C     0.69022   0.41833   0.14610   0.00000  Uiso   1.00
C423   C     0.71975   0.31123   0.07368   0.00000  Uiso   1.00
C424   C     0.70216   0.57483   0.32485   0.00000  Uiso   1.00
C425   C     0.67002   0.58931   0.39837   0.00000  Uiso   1.00
C426   C     0.70858   0.57181   0.44833   0.00000  Uiso   1.00
C427   C     0.74874   0.55356   0.55082   0.00000  Uiso   1.00
C428   C     0.79523   0.53276   0.21906   0.00000  Uiso   1.00
C429   C     0.76567   0.60652   0.19457   0.00000  Uiso   1.00
C430   C     0.80032   0.64163   0.15407   0.00000  Uiso   1.00
C431   C     0.76427   0.70878   0.13718   0.00000  Uiso   1.00
C432   C     0.76354   0.48673   0.18937   0.00000  Uiso   1.00
C433   C     0.79640   0.42111   0.14450   0.00000  Uiso   1.00
C434   C     0.75857   0.38740   0.12324   0.00000  Uiso   1.00
C435   C     0.77039   0.54396   0.30202   0.00000  Uiso   1.00
C436   C     0.80901   0.52643   0.35188   0.00000  Uiso   1.00
C437   C     0.77694   0.54088   0.42546   0.00000  Uiso   1.00
H438   H     0.61648   0.61362   0.27884   0.00000  Uiso   1.00
H439   H     0.60853   0.72838   0.21823   0.00000  Uiso   1.00
H440   H     0.60462   0.50789   0.20867   0.00000  Uiso   1.00
H441   H     0.61722   0.61320   0.41601   0.00000  Uiso   1.00
H442   H     0.62980   0.84198   0.14094   0.00000  Uiso   1.00
H443   H     0.62155   0.37705   0.12080   0.00000  Uiso   1.00
H444   H     0.64812   0.59911   0.55802   0.00000  Uiso   1.00
H445   H     0.84835   0.50872   0.20129   0.00000  Uiso   1.00
H446   H     0.85312   0.61772   0.13642   0.00000  Uiso   1.00
H447   H     0.84920   0.39723   0.12686   0.00000  Uiso   1.00
H448   H     0.86181   0.50254   0.33420   0.00000  Uiso   1.00
H449   H     0.82831   0.75217   0.07453   0.00000  Uiso   1.00
H450   H     0.82007   0.28723   0.05440   0.00000  Uiso   1.00
H451   H     0.84664   0.50930   0.49162   0.00000  Uiso   1.00
O452   O     0.72801   0.87066   0.06644   0.00000  Uiso   1.00
O453   O     0.71719   0.26069   0.04003   0.00000  Uiso   1.00
O454   O     0.75205   0.55203   0.61365   0.00000  Uiso   1.00
N455   N     0.67586   0.80589   0.13422   0.00000  Uiso   1.00
N456   N     0.66816   0.37121   0.11539   0.00000  Uiso   1.00
N457   N     0.69300   0.57880   0.52415   0.00000  Uiso   1.00
N458   N     0.78268   0.75757   0.09849   0.00000  Uiso   1.00
N459   N     0.77498   0.32289   0.07965   0.00000  Uiso   1.00
N460   N     0.79982   0.53048   0.48842   0.00000  Uiso   1.00
C461   C     0.84963   0.04889   0.63382   0.00000  Uiso   1.00
C462   C     0.90721   0.00450   0.66403   0.00000  Uiso   1.00
C463   C     0.97207   0.97395   0.62520   0.00000  Uiso   1.00
C464   C     0.01746   0.93529   0.66267   0.00000  Uiso   1.00
C465   C     0.10974   0.86750   0.69836   0.00000  Uiso   1.00
C466   C     0.80210   0.01143   0.64689   0.00000  Uiso   1.00
C467   C     0.77859   0.98672   0.59365   0.00000  Uiso   1.00
C468   C     0.73549   0.95391   0.61670   0.00000  Uiso   1.00
C469   C     0.66456   0.89694   0.62578   0.00000  Uiso   1.00
C470   C     0.81577   0.12092   0.68346   0.00000  Uiso   1.00
C471   C     0.80373   0.18828   0.66097   0.00000  Uiso   1.00
C472   C     0.77213   0.24766   0.71481   0.00000  Uiso   1.00
C473   C     0.72241   0.36070   0.78067   0.00000  Uiso   1.00
C474   C     0.81490   0.03456   0.76940   0.00000  Uiso   1.00
C475   C     0.88835   0.99671   0.73767   0.00000  Uiso   1.00
C476   C     0.93365   0.95809   0.77521   0.00000  Uiso   1.00
C477   C     0.99857   0.92749   0.73644   0.00000  Uiso   1.00
C478   C     0.78324   0.00365   0.72053   0.00000  Uiso   1.00
C479   C     0.74017   0.97087   0.74366   0.00000  Uiso   1.00
C480   C     0.71660   0.94611   0.69047   0.00000  Uiso   1.00
C481   C     0.79691   0.11314   0.75710   0.00000  Uiso   1.00
C482   C     0.76532   0.17243   0.81098   0.00000  Uiso   1.00
C483   C     0.75323   0.23986   0.78858   0.00000  Uiso   1.00
H484   H     0.86430   0.05495   0.57649   0.00000  Uiso   1.00
H485   H     0.98664   0.97998   0.56821   0.00000  Uiso   1.00
H486   H     0.79318   0.99276   0.53667   0.00000  Uiso   1.00
H487   H     0.81833   0.19429   0.60398   0.00000  Uiso   1.00
H488   H     0.11396   0.89340   0.59150   0.00000  Uiso   1.00
H489   H     0.70602   0.92037   0.52500   0.00000  Uiso   1.00
H490   H     0.75904   0.34533   0.66694   0.00000  Uiso   1.00
H491   H     0.80022   0.02850   0.82674   0.00000  Uiso   1.00
H492   H     0.91904   0.95208   0.83220   0.00000  Uiso   1.00
H493   H     0.72559   0.96486   0.80065   0.00000  Uiso   1.00
H494   H     0.75073   0.16639   0.86796   0.00000  Uiso   1.00
H495   H     0.05909   0.87075   0.80576   0.00000  Uiso   1.00
H496   H     0.65115   0.89773   0.73926   0.00000  Uiso   1.00
H497   H     0.70417   0.32269   0.88119   0.00000  Uiso   1.00
O498   O     0.16584   0.83226   0.69770   0.00000  Uiso   1.00
O499   O     0.63064   0.86766   0.61045   0.00000  Uiso   1.00
O500   O     0.70020   0.42520   0.79667   0.00000  Uiso   1.00
N501   N     0.08474   0.89857   0.64118   0.00000  Uiso   1.00
N502   N     0.70335   0.92378   0.57900   0.00000  Uiso   1.00
N503   N     0.75290   0.32108   0.71170   0.00000  Uiso   1.00
N504   N     0.05522   0.88638   0.75647   0.00000  Uiso   1.00
N505   N     0.67383   0.91159   0.69429   0.00000  Uiso   1.00
N506   N     0.72338   0.30890   0.82699   0.00000  Uiso   1.00
C507   C     0.24121   0.39690   0.86205   0.00000  Uiso   1.00
C508   C     0.23652   0.40292   0.94405   0.00000  Uiso   1.00
C509   C     0.24195   0.34754   0.98653   0.00000  Uiso   1.00
C510   C     0.23624   0.36394   0.06053   0.00000  Uiso   1.00
C511   C     0.23056   0.36275   0.18326   0.00000  Uiso   1.00
C512   C     0.17805   0.45420   0.85225   0.00000  Uiso   1.00
C513   C     0.13433   0.44193   0.81754   0.00000  Uiso   1.00
C514   C     0.07939   0.50150   0.81426   0.00000  Uiso   1.00
C515   C     0.98297   0.57994   0.79441   0.00000  Uiso   1.00
C516   C     0.29547   0.42103   0.82814   0.00000  Uiso   1.00
C517   C     0.35047   0.38089   0.77313   0.00000  Uiso   1.00
C518   C     0.39439   0.41255   0.74953   0.00000  Uiso   1.00
C519   C     0.48028   0.43949   0.69225   0.00000  Uiso   1.00
C520   C     0.22140   0.52451   0.91794   0.00000  Uiso   1.00
C521   C     0.22576   0.47223   0.97441   0.00000  Uiso   1.00
C522   C     0.22003   0.48872   0.04837   0.00000  Uiso   1.00
C523   C     0.22546   0.43338   0.09095   0.00000  Uiso   1.00
C524   C     0.16729   0.52351   0.88261   0.00000  Uiso   1.00
C525   C     0.11241   0.58312   0.87938   0.00000  Uiso   1.00
C526   C     0.06861   0.57094   0.84467   0.00000  Uiso   1.00
C527   C     0.28471   0.49035   0.85850   0.00000  Uiso   1.00
C528   C     0.32855   0.52208   0.83498   0.00000  Uiso   1.00
C529   C     0.38361   0.48199   0.77995   0.00000  Uiso   1.00
H530   H     0.24958   0.34294   0.83841   0.00000  Uiso   1.00
H531   H     0.25027   0.29391   0.96301   0.00000  Uiso   1.00
H532   H     0.14267   0.38829   0.79404   0.00000  Uiso   1.00
H533   H     0.35878   0.32725   0.74965   0.00000  Uiso   1.00
H534   H     0.24627   0.27012   0.11456   0.00000  Uiso   1.00
H535   H     0.01940   0.46913   0.75825   0.00000  Uiso   1.00
H536   H     0.47511   0.34043   0.66463   0.00000  Uiso   1.00
H537   H     0.21302   0.57848   0.94158   0.00000  Uiso   1.00
H538   H     0.21171   0.54237   0.07185   0.00000  Uiso   1.00
H539   H     0.10410   0.63675   0.90288   0.00000  Uiso   1.00
H540   H     0.32021   0.57572   0.85848   0.00000  Uiso   1.00
H541   H     0.21497   0.47178   0.20289   0.00000  Uiso   1.00
H542   H     0.98809   0.67079   0.84658   0.00000  Uiso   1.00
H543   H     0.44380   0.54209   0.75297   0.00000  Uiso   1.00
O544   O     0.23039   0.34295   0.24256   0.00000  Uiso   1.00
O545   O     0.93275   0.60405   0.77509   0.00000  Uiso   1.00
O546   O     0.53063   0.43519   0.65227   0.00000  Uiso   1.00
N547   N     0.23910   0.32253   0.11747   0.00000  Uiso   1.00
N548   N     0.02698   0.50859   0.78435   0.00000  Uiso   1.00
N549   N     0.45302   0.38828   0.69681   0.00000  Uiso   1.00
N550   N     0.22225   0.43104   0.16500   0.00000  Uiso   1.00
N551   N     0.01013   0.61710   0.83188   0.00000  Uiso   1.00
N552   N     0.43617   0.49679   0.74434   0.00000  Uiso   1.00
