data_job_05977
_audit_creation_date              2018-12-19
_audit_creation_method            'Materials Studio'
_symmetry_space_group_name_H-M    'P1'
_symmetry_Int_Tables_number       1
_symmetry_cell_setting            triclinic
loop_
_symmetry_equiv_pos_as_xyz
  x,y,z
_cell_length_a                    7.5737
_cell_length_b                    23.4769
_cell_length_c                    24.0367
_cell_angle_alpha                 118.3710
_cell_angle_beta                  83.6486
_cell_angle_gamma                 88.6959
loop_
_atom_site_label
_atom_site_type_symbol
_atom_site_fract_x
_atom_site_fract_y
_atom_site_fract_z
_atom_site_U_iso_or_equiv
_atom_site_adp_type
_atom_site_occupancy
C1     C     0.80212   0.65514   0.70836   0.00000  Uiso   1.00
C2     C     0.84408   0.72515   0.74919   0.00000  Uiso   1.00
C3     C     0.72107   0.77920   0.77837   0.00000  Uiso   1.00
C4     C     0.78607   0.83904   0.81370   0.00000  Uiso   1.00
C5     C     0.82363   0.94691   0.87617   0.00000  Uiso   1.00
C6     C     0.91934   0.63030   0.64420   0.00000  Uiso   1.00
C7     C     0.85960   0.60459   0.58511   0.00000  Uiso   1.00
C8     C     0.98797   0.58458   0.53206   0.00000  Uiso   1.00
C9     C     0.14238   0.54514   0.43154   0.00000  Uiso   1.00
C10    C     0.87196   0.61695   0.73911   0.00000  Uiso   1.00
C11    C     0.77240   0.57999   0.75981   0.00000  Uiso   1.00
C12    C     0.86089   0.54873   0.78665   0.00000  Uiso   1.00
C13    C     0.94174   0.48856   0.83349   0.00000  Uiso   1.00
C14    C     0.13632   0.66531   0.71920   0.00000  Uiso   1.00
C15    C     0.02560   0.73067   0.75507   0.00000  Uiso   1.00
C16    C     0.09081   0.79045   0.79037   0.00000  Uiso   1.00
C17    C     0.96792   0.84458   0.81960   0.00000  Uiso   1.00
C18    C     0.10086   0.63582   0.65008   0.00000  Uiso   1.00
C19    C     0.22935   0.61584   0.59711   0.00000  Uiso   1.00
C20    C     0.16982   0.59011   0.53796   0.00000  Uiso   1.00
C21    C     0.05348   0.62247   0.74500   0.00000  Uiso   1.00
C22    C     0.14215   0.59125   0.77181   0.00000  Uiso   1.00
C23    C     0.04274   0.55426   0.79255   0.00000  Uiso   1.00
H24    H     0.66080   0.65084   0.70377   0.00000  Uiso   1.00
H25    H     0.58060   0.77491   0.77380   0.00000  Uiso   1.00
H26    H     0.71912   0.60032   0.58057   0.00000  Uiso   1.00
H27    H     0.63193   0.57573   0.75524   0.00000  Uiso   1.00
H28    H     0.57175   0.91489   0.85402   0.00000  Uiso   1.00
H29    H     0.86382   0.54674   0.44658   0.00000  Uiso   1.00
H30    H     0.67997   0.49490   0.81492   0.00000  Uiso   1.00
H31    H     0.27765   0.66961   0.72378   0.00000  Uiso   1.00
H32    H     0.23129   0.79471   0.79492   0.00000  Uiso   1.00
H33    H     0.36981   0.62012   0.60168   0.00000  Uiso   1.00
H34    H     0.28262   0.59553   0.77636   0.00000  Uiso   1.00
H35    H     0.09987   0.93096   0.87116   0.00000  Uiso   1.00
H36    H     0.39195   0.56281   0.46372   0.00000  Uiso   1.00
H37    H     0.20810   0.51097   0.83206   0.00000  Uiso   1.00
O38    O     0.79420   0.00488   0.90900   0.00000  Uiso   1.00
O39    O     0.17739   0.52187   0.37446   0.00000  Uiso   1.00
O40    O     0.93618   0.45386   0.85771   0.00000  Uiso   1.00
N41    N     0.70240   0.90151   0.84830   0.00000  Uiso   1.00
N42    N     0.97547   0.55731   0.46737   0.00000  Uiso   1.00
N43    N     0.80360   0.50883   0.81172   0.00000  Uiso   1.00
N44    N     0.98658   0.91015   0.85752   0.00000  Uiso   1.00
N45    N     0.25965   0.56596   0.47659   0.00000  Uiso   1.00
N46    N     0.08778   0.51748   0.82094   0.00000  Uiso   1.00
C47    C     0.51409   0.27631   0.94673   0.00000  Uiso   1.00
C48    C     0.59272   0.23680   0.97473   0.00000  Uiso   1.00
C49    C     0.49752   0.20200   0.99926   0.00000  Uiso   1.00
C50    C     0.59394   0.16904   0.02267   0.00000  Uiso   1.00
C51    C     0.68788   0.10744   0.06636   0.00000  Uiso   1.00
C52    C     0.56932   0.34501   0.98468   0.00000  Uiso   1.00
C53    C     0.45445   0.40119   0.01756   0.00000  Uiso   1.00
C54    C     0.53120   0.45932   0.04933   0.00000  Uiso   1.00
C55    C     0.58883   0.56572   0.10842   0.00000  Uiso   1.00
C56    C     0.61360   0.24943   0.87937   0.00000  Uiso   1.00
C57    C     0.53595   0.22526   0.82370   0.00000  Uiso   1.00
C58    C     0.64998   0.20294   0.76680   0.00000  Uiso   1.00
C59    C     0.77635   0.16094   0.66237   0.00000  Uiso   1.00
C60    C     0.85464   0.27967   0.94467   0.00000  Uiso   1.00
C61    C     0.77769   0.23862   0.97362   0.00000  Uiso   1.00
C62    C     0.87429   0.20571   0.99699   0.00000  Uiso   1.00
C63    C     0.77925   0.17086   0.02155   0.00000  Uiso   1.00
C64    C     0.75429   0.34683   0.98356   0.00000  Uiso   1.00
C65    C     0.83123   0.40490   0.01529   0.00000  Uiso   1.00
C66    C     0.71650   0.46115   0.04821   0.00000  Uiso   1.00
C67    C     0.79857   0.25125   0.87825   0.00000  Uiso   1.00
C68    C     0.91274   0.22897   0.82143   0.00000  Uiso   1.00
C69    C     0.83528   0.20477   0.76568   0.00000  Uiso   1.00
H70    H     0.37008   0.27490   0.94760   0.00000  Uiso   1.00
H71    H     0.35436   0.20060   0.00013   0.00000  Uiso   1.00
H72    H     0.31132   0.39976   0.01841   0.00000  Uiso   1.00
H73    H     0.39281   0.22386   0.82458   0.00000  Uiso   1.00
H74    H     0.41851   0.11906   0.05789   0.00000  Uiso   1.00
H75    H     0.32773   0.53900   0.09643   0.00000  Uiso   1.00
H76    H     0.49958   0.16807   0.68770   0.00000  Uiso   1.00
H77    H     0.99865   0.28109   0.94380   0.00000  Uiso   1.00
H78    H     0.01743   0.20713   0.99612   0.00000  Uiso   1.00
H79    H     0.97438   0.40629   0.01441   0.00000  Uiso   1.00
H80    H     0.05587   0.23039   0.82058   0.00000  Uiso   1.00
H81    H     0.95668   0.12436   0.05465   0.00000  Uiso   1.00
H82    H     0.86590   0.54430   0.09318   0.00000  Uiso   1.00
H83    H     0.03775   0.17337   0.68446   0.00000  Uiso   1.00
O84    O     0.68860   0.07296   0.09077   0.00000  Uiso   1.00
O85    O     0.56950   0.62391   0.14132   0.00000  Uiso   1.00
O86    O     0.79496   0.13726   0.60508   0.00000  Uiso   1.00
N87    N     0.54259   0.13044   0.04994   0.00000  Uiso   1.00
N88    N     0.45772   0.52306   0.08598   0.00000  Uiso   1.00
N89    N     0.61838   0.17629   0.70385   0.00000  Uiso   1.00
N90    N     0.83218   0.13329   0.04819   0.00000  Uiso   1.00
N91    N     0.74731   0.52591   0.08423   0.00000  Uiso   1.00
N92    N     0.90796   0.17914   0.70210   0.00000  Uiso   1.00
C93    C     0.46282   0.03915   0.33249   0.00000  Uiso   1.00
C94    C     0.56843   0.01537   0.26649   0.00000  Uiso   1.00
C95    C     0.49870   0.98758   0.20916   0.00000  Uiso   1.00
C96    C     0.61733   0.96901   0.15394   0.00000  Uiso   1.00
C97    C     0.75367   0.93070   0.05114   0.00000  Uiso   1.00
C98    C     0.55186   0.00307   0.36198   0.00000  Uiso   1.00
C99    C     0.46819   0.96493   0.38494   0.00000  Uiso   1.00
C100   C     0.57287   0.93601   0.41011   0.00000  Uiso   1.00
C101   C     0.68346   0.87863   0.45560   0.00000  Uiso   1.00
C102   C     0.49754   0.11029   0.37166   0.00000  Uiso   1.00
C103   C     0.36819   0.16231   0.40278   0.00000  Uiso   1.00
C104   C     0.42714   0.22366   0.43611   0.00000  Uiso   1.00
C105   C     0.45338   0.33276   0.49663   0.00000  Uiso   1.00
C106   C     0.79751   0.05561   0.33637   0.00000  Uiso   1.00
C107   C     0.75022   0.02431   0.26860   0.00000  Uiso   1.00
C108   C     0.86899   0.00579   0.21345   0.00000  Uiso   1.00
C109   C     0.79944   0.97797   0.15605   0.00000  Uiso   1.00
C110   C     0.73364   0.01200   0.36409   0.00000  Uiso   1.00
C111   C     0.83847   0.98314   0.38923   0.00000  Uiso   1.00
C112   C     0.75498   0.94496   0.41222   0.00000  Uiso   1.00
C113   C     0.67932   0.11923   0.37377   0.00000  Uiso   1.00
C114   C     0.73848   0.18052   0.40707   0.00000  Uiso   1.00
C115   C     0.60925   0.23262   0.43822   0.00000  Uiso   1.00
H116   H     0.32130   0.03219   0.33085   0.00000  Uiso   1.00
H117   H     0.35801   0.98066   0.20755   0.00000  Uiso   1.00
H118   H     0.32751   0.95802   0.38331   0.00000  Uiso   1.00
H119   H     0.22753   0.15537   0.40114   0.00000  Uiso   1.00
H120   H     0.47890   0.92746   0.07178   0.00000  Uiso   1.00
H121   H     0.41455   0.87974   0.44239   0.00000  Uiso   1.00
H122   H     0.20373   0.29589   0.47999   0.00000  Uiso   1.00
H123   H     0.93904   0.06257   0.33801   0.00000  Uiso   1.00
H124   H     0.00966   0.01271   0.21510   0.00000  Uiso   1.00
H125   H     0.97914   0.99007   0.39086   0.00000  Uiso   1.00
H126   H     0.87916   0.18742   0.40869   0.00000  Uiso   1.00
H127   H     0.00780   0.95346   0.07790   0.00000  Uiso   1.00
H128   H     0.94344   0.90575   0.44852   0.00000  Uiso   1.00
H129   H     0.73263   0.32189   0.48611   0.00000  Uiso   1.00
O130   O     0.77866   0.90709   0.99385   0.00000  Uiso   1.00
O131   O     0.69423   0.84450   0.48009   0.00000  Uiso   1.00
O132   O     0.41764   0.39047   0.52942   0.00000  Uiso   1.00
N133   N     0.59368   0.94043   0.09009   0.00000  Uiso   1.00
N134   N     0.53352   0.89581   0.43658   0.00000  Uiso   1.00
N135   N     0.33642   0.28487   0.47175   0.00000  Uiso   1.00
N136   N     0.87827   0.95443   0.09338   0.00000  Uiso   1.00
N137   N     0.81812   0.90980   0.43988   0.00000  Uiso   1.00
N138   N     0.62101   0.29887   0.47504   0.00000  Uiso   1.00
C139   C     0.19788   0.34486   0.29164   0.00000  Uiso   1.00
C140   C     0.15592   0.27485   0.25081   0.00000  Uiso   1.00
C141   C     0.27893   0.22080   0.22163   0.00000  Uiso   1.00
C142   C     0.21393   0.16096   0.18630   0.00000  Uiso   1.00
C143   C     0.17637   0.05309   0.12383   0.00000  Uiso   1.00
C144   C     0.08066   0.36970   0.35580   0.00000  Uiso   1.00
C145   C     0.14040   0.39541   0.41489   0.00000  Uiso   1.00
C146   C     0.01203   0.41542   0.46794   0.00000  Uiso   1.00
C147   C     0.85762   0.45486   0.56846   0.00000  Uiso   1.00
C148   C     0.12804   0.38305   0.26089   0.00000  Uiso   1.00
C149   C     0.22760   0.42001   0.24019   0.00000  Uiso   1.00
C150   C     0.13911   0.45127   0.21335   0.00000  Uiso   1.00
C151   C     0.05826   0.51144   0.16651   0.00000  Uiso   1.00
C152   C     0.86368   0.33469   0.28080   0.00000  Uiso   1.00
C153   C     0.97439   0.26933   0.24493   0.00000  Uiso   1.00
C154   C     0.90918   0.20955   0.20963   0.00000  Uiso   1.00
C155   C     0.03208   0.15543   0.18040   0.00000  Uiso   1.00
C156   C     0.89914   0.36418   0.34992   0.00000  Uiso   1.00
C157   C     0.77065   0.38416   0.40289   0.00000  Uiso   1.00
C158   C     0.83018   0.40989   0.46204   0.00000  Uiso   1.00
C159   C     0.94652   0.37753   0.25500   0.00000  Uiso   1.00
C160   C     0.85785   0.40875   0.22819   0.00000  Uiso   1.00
C161   C     0.95726   0.44574   0.20745   0.00000  Uiso   1.00
H162   H     0.33920   0.34916   0.29623   0.00000  Uiso   1.00
H163   H     0.41940   0.22509   0.22620   0.00000  Uiso   1.00
H164   H     0.28088   0.39968   0.41943   0.00000  Uiso   1.00
H165   H     0.36807   0.42427   0.24476   0.00000  Uiso   1.00
H166   H     0.42825   0.08511   0.14598   0.00000  Uiso   1.00
H167   H     0.13618   0.45326   0.55342   0.00000  Uiso   1.00
H168   H     0.32003   0.50510   0.18508   0.00000  Uiso   1.00
H169   H     0.72235   0.33039   0.27622   0.00000  Uiso   1.00
H170   H     0.76871   0.20529   0.20508   0.00000  Uiso   1.00
H171   H     0.63019   0.37988   0.39831   0.00000  Uiso   1.00
H172   H     0.71738   0.40447   0.22364   0.00000  Uiso   1.00
H173   H     0.90013   0.06904   0.12884   0.00000  Uiso   1.00
H174   H     0.60805   0.43719   0.53628   0.00000  Uiso   1.00
H175   H     0.79190   0.48903   0.16794   0.00000  Uiso   1.00
O176   O     0.20580   0.99512   0.09100   0.00000  Uiso   1.00
O177   O     0.82261   0.47813   0.62554   0.00000  Uiso   1.00
O178   O     0.06382   0.54614   0.14229   0.00000  Uiso   1.00
N179   N     0.29760   0.09850   0.15170   0.00000  Uiso   1.00
N180   N     0.02453   0.44269   0.53263   0.00000  Uiso   1.00
N181   N     0.19640   0.49117   0.18828   0.00000  Uiso   1.00
N182   N     0.01342   0.08985   0.14248   0.00000  Uiso   1.00
N183   N     0.74035   0.43404   0.52341   0.00000  Uiso   1.00
N184   N     0.91222   0.48252   0.17906   0.00000  Uiso   1.00
C185   C     0.48591   0.72369   0.05327   0.00000  Uiso   1.00
C186   C     0.40728   0.76320   0.02527   0.00000  Uiso   1.00
C187   C     0.50248   0.79800   0.00074   0.00000  Uiso   1.00
C188   C     0.40606   0.83096   0.97733   0.00000  Uiso   1.00
C189   C     0.31212   0.89256   0.93364   0.00000  Uiso   1.00
C190   C     0.43068   0.65499   0.01532   0.00000  Uiso   1.00
C191   C     0.54555   0.59881   0.98244   0.00000  Uiso   1.00
C192   C     0.46880   0.54068   0.95067   0.00000  Uiso   1.00
C193   C     0.41117   0.43428   0.89158   0.00000  Uiso   1.00
C194   C     0.38640   0.75057   0.12063   0.00000  Uiso   1.00
C195   C     0.46405   0.77474   0.17630   0.00000  Uiso   1.00
C196   C     0.35002   0.79706   0.23320   0.00000  Uiso   1.00
C197   C     0.22365   0.83906   0.33763   0.00000  Uiso   1.00
C198   C     0.14536   0.72033   0.05533   0.00000  Uiso   1.00
C199   C     0.22231   0.76138   0.02638   0.00000  Uiso   1.00
C200   C     0.12571   0.79429   0.00301   0.00000  Uiso   1.00
C201   C     0.22075   0.82914   0.97845   0.00000  Uiso   1.00
C202   C     0.24571   0.65317   0.01644   0.00000  Uiso   1.00
C203   C     0.16877   0.59510   0.98471   0.00000  Uiso   1.00
C204   C     0.28350   0.53885   0.95179   0.00000  Uiso   1.00
C205   C     0.20143   0.74875   0.12175   0.00000  Uiso   1.00
C206   C     0.08726   0.77103   0.17857   0.00000  Uiso   1.00
C207   C     0.16472   0.79523   0.23432   0.00000  Uiso   1.00
H208   H     0.62992   0.72510   0.05240   0.00000  Uiso   1.00
H209   H     0.64564   0.79940   0.99987   0.00000  Uiso   1.00
H210   H     0.68868   0.60024   0.98159   0.00000  Uiso   1.00
H211   H     0.60719   0.77614   0.17542   0.00000  Uiso   1.00
H212   H     0.58149   0.88094   0.94211   0.00000  Uiso   1.00
H213   H     0.67227   0.46100   0.90357   0.00000  Uiso   1.00
H214   H     0.50042   0.83193   0.31230   0.00000  Uiso   1.00
H215   H     0.00135   0.71891   0.05620   0.00000  Uiso   1.00
H216   H     0.98257   0.79287   0.00388   0.00000  Uiso   1.00
H217   H     0.02562   0.59371   0.98559   0.00000  Uiso   1.00
H218   H     0.94413   0.76961   0.17942   0.00000  Uiso   1.00
H219   H     0.04332   0.87564   0.94535   0.00000  Uiso   1.00
H220   H     0.13410   0.45570   0.90682   0.00000  Uiso   1.00
H221   H     0.96225   0.82663   0.31554   0.00000  Uiso   1.00
O222   O     0.31140   0.92704   0.90923   0.00000  Uiso   1.00
O223   O     0.43050   0.37609   0.85868   0.00000  Uiso   1.00
O224   O     0.20504   0.86274   0.39492   0.00000  Uiso   1.00
N225   N     0.45741   0.86956   0.95006   0.00000  Uiso   1.00
N226   N     0.54228   0.47694   0.91402   0.00000  Uiso   1.00
N227   N     0.38162   0.82371   0.29615   0.00000  Uiso   1.00
N228   N     0.16782   0.86671   0.95181   0.00000  Uiso   1.00
N229   N     0.25269   0.47409   0.91577   0.00000  Uiso   1.00
N230   N     0.09204   0.82086   0.29790   0.00000  Uiso   1.00
C231   C     0.53718   0.96085   0.66751   0.00000  Uiso   1.00
C232   C     0.43157   0.98463   0.73351   0.00000  Uiso   1.00
C233   C     0.50130   0.01242   0.79084   0.00000  Uiso   1.00
C234   C     0.38267   0.03099   0.84606   0.00000  Uiso   1.00
C235   C     0.24633   0.06930   0.94886   0.00000  Uiso   1.00
C236   C     0.44814   0.99694   0.63802   0.00000  Uiso   1.00
C237   C     0.53181   0.03507   0.61506   0.00000  Uiso   1.00
C238   C     0.42713   0.06399   0.58989   0.00000  Uiso   1.00
C239   C     0.31654   0.12137   0.54440   0.00000  Uiso   1.00
C240   C     0.50246   0.88971   0.62834   0.00000  Uiso   1.00
C241   C     0.63181   0.83769   0.59722   0.00000  Uiso   1.00
C242   C     0.57286   0.77634   0.56389   0.00000  Uiso   1.00
C243   C     0.54662   0.66724   0.50337   0.00000  Uiso   1.00
C244   C     0.20249   0.94439   0.66363   0.00000  Uiso   1.00
C245   C     0.24978   0.97569   0.73140   0.00000  Uiso   1.00
C246   C     0.13101   0.99421   0.78655   0.00000  Uiso   1.00
C247   C     0.20056   0.02203   0.84395   0.00000  Uiso   1.00
C248   C     0.26636   0.98800   0.63591   0.00000  Uiso   1.00
C249   C     0.16153   0.01686   0.61077   0.00000  Uiso   1.00
C250   C     0.24502   0.05504   0.58778   0.00000  Uiso   1.00
C251   C     0.32068   0.88077   0.62623   0.00000  Uiso   1.00
C252   C     0.26152   0.81948   0.59293   0.00000  Uiso   1.00
C253   C     0.39075   0.76738   0.56178   0.00000  Uiso   1.00
H254   H     0.67870   0.96781   0.66915   0.00000  Uiso   1.00
H255   H     0.64199   0.01934   0.79245   0.00000  Uiso   1.00
H256   H     0.67249   0.04198   0.61669   0.00000  Uiso   1.00
H257   H     0.77247   0.84463   0.59886   0.00000  Uiso   1.00
H258   H     0.52110   0.07254   0.92822   0.00000  Uiso   1.00
H259   H     0.58545   0.12026   0.55761   0.00000  Uiso   1.00
H260   H     0.79627   0.70411   0.52001   0.00000  Uiso   1.00
H261   H     0.06096   0.93743   0.66199   0.00000  Uiso   1.00
H262   H     0.99034   0.98729   0.78490   0.00000  Uiso   1.00
H263   H     0.02086   0.00993   0.60914   0.00000  Uiso   1.00
H264   H     0.12083   0.81258   0.59131   0.00000  Uiso   1.00
H265   H     0.99220   0.04654   0.92210   0.00000  Uiso   1.00
H266   H     0.05656   0.09425   0.55148   0.00000  Uiso   1.00
H267   H     0.26737   0.67811   0.51389   0.00000  Uiso   1.00
O268   O     0.22134   0.09291   0.00615   0.00000  Uiso   1.00
O269   O     0.30577   0.15550   0.51991   0.00000  Uiso   1.00
O270   O     0.58236   0.60953   0.47058   0.00000  Uiso   1.00
N271   N     0.40632   0.05957   0.90991   0.00000  Uiso   1.00
N272   N     0.46648   0.10419   0.56342   0.00000  Uiso   1.00
N273   N     0.66358   0.71513   0.52825   0.00000  Uiso   1.00
N274   N     0.12173   0.04557   0.90662   0.00000  Uiso   1.00
N275   N     0.18188   0.09020   0.56012   0.00000  Uiso   1.00
N276   N     0.37899   0.70113   0.52496   0.00000  Uiso   1.00
