data_job_05489
_audit_creation_date              2018-12-19
_audit_creation_method            'Materials Studio'
_symmetry_space_group_name_H-M    'P1'
_symmetry_Int_Tables_number       1
_symmetry_cell_setting            triclinic
loop_
_symmetry_equiv_pos_as_xyz
  x,y,z
_cell_length_a                    7.7216
_cell_length_b                    23.0618
_cell_length_c                    16.7642
_cell_angle_alpha                 90.0000
_cell_angle_beta                  94.0536
_cell_angle_gamma                 90.0000
loop_
_atom_site_label
_atom_site_type_symbol
_atom_site_fract_x
_atom_site_fract_y
_atom_site_fract_z
_atom_site_U_iso_or_equiv
_atom_site_adp_type
_atom_site_occupancy
C1     C     0.68027   0.03769   0.31885   0.00000  Uiso   1.00
C2     C     0.57431   0.09325   0.32328   0.00000  Uiso   1.00
C3     C     0.62082   0.14165   0.36910   0.00000  Uiso   1.00
C4     C     0.50617   0.18811   0.36495   0.00000  Uiso   1.00
C5     C     0.36526   0.27467   0.37919   0.00000  Uiso   1.00
C6     C     0.56110   0.98860   0.34174   0.00000  Uiso   1.00
C7     C     0.59654   0.94901   0.40308   0.00000  Uiso   1.00
C8     C     0.47078   0.90736   0.41446   0.00000  Uiso   1.00
C9     C     0.30943   0.83142   0.45733   0.00000  Uiso   1.00
C10    C     0.70918   0.02877   0.23065   0.00000  Uiso   1.00
C11    C     0.86911   0.02294   0.19858   0.00000  Uiso   1.00
C12    C     0.86802   0.01510   0.11642   0.00000  Uiso   1.00
C13    C     0.93657   0.00154   0.98681   0.00000  Uiso   1.00
C14    C     0.39396   0.03413   0.22999   0.00000  Uiso   1.00
C15    C     0.41879   0.09132   0.27502   0.00000  Uiso   1.00
C16    C     0.30405   0.13771   0.27079   0.00000  Uiso   1.00
C17    C     0.35039   0.18617   0.31659   0.00000  Uiso   1.00
C18    C     0.40560   0.98666   0.29348   0.00000  Uiso   1.00
C19    C     0.27977   0.94507   0.30477   0.00000  Uiso   1.00
C20    C     0.31499   0.90542   0.36611   0.00000  Uiso   1.00
C21    C     0.55367   0.02684   0.18238   0.00000  Uiso   1.00
C22    C     0.55233   0.01900   0.10027   0.00000  Uiso   1.00
C23    C     0.71223   0.01317   0.06807   0.00000  Uiso   1.00
H24    H     0.80133   0.03919   0.35643   0.00000  Uiso   1.00
H25    H     0.74117   0.14313   0.40645   0.00000  Uiso   1.00
H26    H     0.71690   0.95051   0.44042   0.00000  Uiso   1.00
H27    H     0.98942   0.02444   0.23594   0.00000  Uiso   1.00
H28    H     0.60585   0.25751   0.44064   0.00000  Uiso   1.00
H29    H     0.55470   0.85135   0.51225   0.00000  Uiso   1.00
H30    H     0.12937   0.00723   0.08108   0.00000  Uiso   1.00
H31    H     0.27288   0.03262   0.19242   0.00000  Uiso   1.00
H32    H     0.18371   0.13620   0.23343   0.00000  Uiso   1.00
H33    H     0.15944   0.94358   0.26740   0.00000  Uiso   1.00
H34    H     0.43197   0.01751   0.06293   0.00000  Uiso   1.00
H35    H     0.15340   0.25188   0.30022   0.00000  Uiso   1.00
H36    H     0.10225   0.84572   0.37182   0.00000  Uiso   1.00
H37    H     0.67692   0.00161   0.94066   0.00000  Uiso   1.00
O38    O     0.33048   0.32294   0.40039   0.00000  Uiso   1.00
O39    O     0.26339   0.79007   0.49432   0.00000  Uiso   1.00
O40    O     0.01734   0.99459   0.92864   0.00000  Uiso   1.00
N41    N     0.51162   0.24197   0.40195   0.00000  Uiso   1.00
N42    N     0.46379   0.86224   0.46891   0.00000  Uiso   1.00
N43    N     0.00105   0.00797   0.06580   0.00000  Uiso   1.00
N44    N     0.26816   0.23894   0.32639   0.00000  Uiso   1.00
N45    N     0.22033   0.85921   0.39335   0.00000  Uiso   1.00
N46    N     0.75759   0.00494   0.99024   0.00000  Uiso   1.00
C47    C     0.64306   0.52001   0.18938   0.00000  Uiso   1.00
C48    C     0.52648   0.56822   0.15384   0.00000  Uiso   1.00
C49    C     0.56919   0.60701   0.09507   0.00000  Uiso   1.00
C50    C     0.44466   0.64791   0.07055   0.00000  Uiso   1.00
C51    C     0.28816   0.72245   0.01030   0.00000  Uiso   1.00
C52    C     0.54014   0.46393   0.17665   0.00000  Uiso   1.00
C53    C     0.59436   0.41504   0.13706   0.00000  Uiso   1.00
C54    C     0.48132   0.36816   0.13176   0.00000  Uiso   1.00
C55    C     0.34609   0.28078   0.10697   0.00000  Uiso   1.00
C56    C     0.65892   0.53038   0.27943   0.00000  Uiso   1.00
C57    C     0.81301   0.53734   0.32628   0.00000  Uiso   1.00
C58    C     0.79998   0.54639   0.40752   0.00000  Uiso   1.00
C59    C     0.84918   0.56218   0.54232   0.00000  Uiso   1.00
C60    C     0.34593   0.52367   0.25036   0.00000  Uiso   1.00
C61    C     0.36509   0.57020   0.18696   0.00000  Uiso   1.00
C62    C     0.24046   0.61106   0.16254   0.00000  Uiso   1.00
C63    C     0.28298   0.64991   0.10374   0.00000  Uiso   1.00
C64    C     0.37876   0.46592   0.20977   0.00000  Uiso   1.00
C65    C     0.26562   0.41909   0.20453   0.00000  Uiso   1.00
C66    C     0.31964   0.37015   0.16494   0.00000  Uiso   1.00
C67    C     0.49753   0.53237   0.31256   0.00000  Uiso   1.00
C68    C     0.48427   0.54140   0.39374   0.00000  Uiso   1.00
C69    C     0.63830   0.54838   0.44070   0.00000  Uiso   1.00
H70    H     0.76870   0.51845   0.16359   0.00000  Uiso   1.00
H71    H     0.69410   0.60545   0.06944   0.00000  Uiso   1.00
H72    H     0.71926   0.41352   0.11144   0.00000  Uiso   1.00
H73    H     0.93788   0.53580   0.30063   0.00000  Uiso   1.00
H74    H     0.54019   0.70277   0.97965   0.00000  Uiso   1.00
H75    H     0.59328   0.29805   0.06823   0.00000  Uiso   1.00
H76    H     0.05427   0.55591   0.46716   0.00000  Uiso   1.00
H77    H     0.22028   0.52522   0.27615   0.00000  Uiso   1.00
H78    H     0.11558   0.61259   0.18818   0.00000  Uiso   1.00
H79    H     0.14074   0.42065   0.23017   0.00000  Uiso   1.00
H80    H     0.35936   0.54294   0.41936   0.00000  Uiso   1.00
H81    H     0.07064   0.70856   0.07602   0.00000  Uiso   1.00
H82    H     0.12373   0.30384   0.16459   0.00000  Uiso   1.00
H83    H     0.58472   0.56170   0.56353   0.00000  Uiso   1.00
O84    O     0.24642   0.76300   0.96791   0.00000  Uiso   1.00
O85    O     0.31608   0.23203   0.08413   0.00000  Uiso   1.00
O86    O     0.92089   0.57034   0.60752   0.00000  Uiso   1.00
N87    N     0.44407   0.69215   0.01441   0.00000  Uiso   1.00
N88    N     0.49369   0.31376   0.09721   0.00000  Uiso   1.00
N89    N     0.92468   0.55483   0.47019   0.00000  Uiso   1.00
N90    N     0.19140   0.69526   0.06627   0.00000  Uiso   1.00
N91    N     0.24103   0.31688   0.14907   0.00000  Uiso   1.00
N92    N     0.67202   0.55795   0.52204   0.00000  Uiso   1.00
C93    C     0.31973   0.53769   0.68115   0.00000  Uiso   1.00
C94    C     0.42569   0.59325   0.67672   0.00000  Uiso   1.00
C95    C     0.37918   0.64165   0.63090   0.00000  Uiso   1.00
C96    C     0.49383   0.68811   0.63505   0.00000  Uiso   1.00
C97    C     0.63474   0.77467   0.62081   0.00000  Uiso   1.00
C98    C     0.43890   0.48860   0.65826   0.00000  Uiso   1.00
C99    C     0.40346   0.44901   0.59692   0.00000  Uiso   1.00
C100   C     0.52922   0.40736   0.58554   0.00000  Uiso   1.00
C101   C     0.69057   0.33142   0.54267   0.00000  Uiso   1.00
C102   C     0.29082   0.52877   0.76935   0.00000  Uiso   1.00
C103   C     0.13089   0.52294   0.80142   0.00000  Uiso   1.00
C104   C     0.13198   0.51510   0.88358   0.00000  Uiso   1.00
C105   C     0.06343   0.50154   0.01319   0.00000  Uiso   1.00
C106   C     0.60604   0.53413   0.77001   0.00000  Uiso   1.00
C107   C     0.58121   0.59132   0.72498   0.00000  Uiso   1.00
C108   C     0.69595   0.63771   0.72921   0.00000  Uiso   1.00
C109   C     0.64961   0.68617   0.68341   0.00000  Uiso   1.00
C110   C     0.59440   0.48666   0.70652   0.00000  Uiso   1.00
C111   C     0.72023   0.44507   0.69523   0.00000  Uiso   1.00
C112   C     0.68501   0.40542   0.63389   0.00000  Uiso   1.00
C113   C     0.44633   0.52684   0.81762   0.00000  Uiso   1.00
C114   C     0.44767   0.51900   0.89973   0.00000  Uiso   1.00
C115   C     0.28777   0.51317   0.93193   0.00000  Uiso   1.00
H116   H     0.19867   0.53919   0.64357   0.00000  Uiso   1.00
H117   H     0.25883   0.64313   0.59355   0.00000  Uiso   1.00
H118   H     0.28310   0.45051   0.55958   0.00000  Uiso   1.00
H119   H     0.01058   0.52444   0.76406   0.00000  Uiso   1.00
H120   H     0.39415   0.75751   0.55936   0.00000  Uiso   1.00
H121   H     0.44530   0.35135   0.48775   0.00000  Uiso   1.00
H122   H     0.87063   0.50723   0.91892   0.00000  Uiso   1.00
H123   H     0.72712   0.53262   0.80758   0.00000  Uiso   1.00
H124   H     0.81629   0.63620   0.76657   0.00000  Uiso   1.00
H125   H     0.84056   0.44358   0.73260   0.00000  Uiso   1.00
H126   H     0.56803   0.51751   0.93707   0.00000  Uiso   1.00
H127   H     0.84660   0.75188   0.69978   0.00000  Uiso   1.00
H128   H     0.89775   0.34572   0.62818   0.00000  Uiso   1.00
H129   H     0.32308   0.50161   0.05934   0.00000  Uiso   1.00
O130   O     0.66952   0.82294   0.59961   0.00000  Uiso   1.00
O131   O     0.73661   0.29007   0.50568   0.00000  Uiso   1.00
O132   O     0.98266   0.49459   0.07136   0.00000  Uiso   1.00
N133   N     0.48838   0.74197   0.59805   0.00000  Uiso   1.00
N134   N     0.53621   0.36224   0.53109   0.00000  Uiso   1.00
N135   N     0.99895   0.50797   0.93420   0.00000  Uiso   1.00
N136   N     0.73184   0.73894   0.67361   0.00000  Uiso   1.00
N137   N     0.77967   0.35921   0.60665   0.00000  Uiso   1.00
N138   N     0.24241   0.50494   0.00976   0.00000  Uiso   1.00
C139   C     0.35694   0.02001   0.81062   0.00000  Uiso   1.00
C140   C     0.47352   0.06822   0.84616   0.00000  Uiso   1.00
C141   C     0.43081   0.10701   0.90493   0.00000  Uiso   1.00
C142   C     0.55534   0.14791   0.92945   0.00000  Uiso   1.00
C143   C     0.71184   0.22245   0.98970   0.00000  Uiso   1.00
C144   C     0.45986   0.96393   0.82335   0.00000  Uiso   1.00
C145   C     0.40564   0.91504   0.86294   0.00000  Uiso   1.00
C146   C     0.51868   0.86816   0.86824   0.00000  Uiso   1.00
C147   C     0.65391   0.78078   0.89303   0.00000  Uiso   1.00
C148   C     0.34108   0.03038   0.72057   0.00000  Uiso   1.00
C149   C     0.18699   0.03734   0.67372   0.00000  Uiso   1.00
C150   C     0.20002   0.04639   0.59248   0.00000  Uiso   1.00
C151   C     0.15082   0.06218   0.45768   0.00000  Uiso   1.00
C152   C     0.65407   0.02367   0.74964   0.00000  Uiso   1.00
C153   C     0.63491   0.07020   0.81304   0.00000  Uiso   1.00
C154   C     0.75954   0.11106   0.83746   0.00000  Uiso   1.00
C155   C     0.71702   0.14991   0.89626   0.00000  Uiso   1.00
C156   C     0.62124   0.96592   0.79023   0.00000  Uiso   1.00
C157   C     0.73438   0.91909   0.79547   0.00000  Uiso   1.00
C158   C     0.68036   0.87015   0.83506   0.00000  Uiso   1.00
C159   C     0.50247   0.03237   0.68744   0.00000  Uiso   1.00
C160   C     0.51573   0.04140   0.60626   0.00000  Uiso   1.00
C161   C     0.36170   0.04838   0.55930   0.00000  Uiso   1.00
H162   H     0.23130   0.01845   0.83641   0.00000  Uiso   1.00
H163   H     0.30590   0.10545   0.93056   0.00000  Uiso   1.00
H164   H     0.28074   0.91352   0.88856   0.00000  Uiso   1.00
H165   H     0.06212   0.03580   0.69937   0.00000  Uiso   1.00
H166   H     0.45981   0.20277   0.02035   0.00000  Uiso   1.00
H167   H     0.40672   0.79805   0.93177   0.00000  Uiso   1.00
H168   H     0.94573   0.05591   0.53284   0.00000  Uiso   1.00
H169   H     0.77972   0.02522   0.72385   0.00000  Uiso   1.00
H170   H     0.88442   0.11259   0.81182   0.00000  Uiso   1.00
H171   H     0.85926   0.92065   0.76983   0.00000  Uiso   1.00
H172   H     0.64064   0.04294   0.58064   0.00000  Uiso   1.00
H173   H     0.92936   0.20856   0.92398   0.00000  Uiso   1.00
H174   H     0.87627   0.80384   0.83541   0.00000  Uiso   1.00
H175   H     0.41528   0.06170   0.43647   0.00000  Uiso   1.00
O176   O     0.75358   0.26300   0.03209   0.00000  Uiso   1.00
O177   O     0.68392   0.73203   0.91587   0.00000  Uiso   1.00
O178   O     0.07911   0.07034   0.39248   0.00000  Uiso   1.00
N179   N     0.55593   0.19215   0.98559   0.00000  Uiso   1.00
N180   N     0.50631   0.81376   0.90279   0.00000  Uiso   1.00
N181   N     0.07532   0.05483   0.52981   0.00000  Uiso   1.00
N182   N     0.80860   0.19526   0.93373   0.00000  Uiso   1.00
N183   N     0.75897   0.81688   0.85093   0.00000  Uiso   1.00
N184   N     0.32798   0.05795   0.47796   0.00000  Uiso   1.00
