data_job_04832
_audit_creation_date              2018-12-19
_audit_creation_method            'Materials Studio'
_symmetry_space_group_name_H-M    'P1'
_symmetry_Int_Tables_number       1
_symmetry_cell_setting            triclinic
loop_
_symmetry_equiv_pos_as_xyz
  x,y,z
_cell_length_a                    9.5163
_cell_length_b                    21.1728
_cell_length_c                    11.1809
_cell_angle_alpha                 90.0000
_cell_angle_beta                  73.5418
_cell_angle_gamma                 90.0000
loop_
_atom_site_label
_atom_site_type_symbol
_atom_site_fract_x
_atom_site_fract_y
_atom_site_fract_z
_atom_site_U_iso_or_equiv
_atom_site_adp_type
_atom_site_occupancy
C1     C     0.01028   0.28430   0.37166   0.00000  Uiso   1.00
C2     C     0.89454   0.24268   0.45843   0.00000  Uiso   1.00
C3     C     0.88717   0.17733   0.45281   0.00000  Uiso   1.00
C4     C     0.77285   0.14798   0.54057   0.00000  Uiso   1.00
C5     C     0.60879   0.07806   0.66155   0.00000  Uiso   1.00
C6     C     0.92666   0.33146   0.31458   0.00000  Uiso   1.00
C7     C     0.94634   0.34076   0.18802   0.00000  Uiso   1.00
C8     C     0.85907   0.38616   0.15469   0.00000  Uiso   1.00
C9     C     0.74496   0.45412   0.05234   0.00000  Uiso   1.00
C10    C     0.07946   0.32268   0.45562   0.00000  Uiso   1.00
C11    C     0.22762   0.32461   0.44763   0.00000  Uiso   1.00
C12    C     0.26900   0.36262   0.53304   0.00000  Uiso   1.00
C13    C     0.39214   0.41694   0.64968   0.00000  Uiso   1.00
C14    C     0.82034   0.34839   0.53751   0.00000  Uiso   1.00
C15    C     0.79137   0.27749   0.54851   0.00000  Uiso   1.00
C16    C     0.67703   0.24823   0.63630   0.00000  Uiso   1.00
C17    C     0.66951   0.18285   0.63082   0.00000  Uiso   1.00
C18    C     0.82350   0.36627   0.40465   0.00000  Uiso   1.00
C19    C     0.73619   0.41167   0.37151   0.00000  Uiso   1.00
C20    C     0.75572   0.42104   0.24493   0.00000  Uiso   1.00
C21    C     0.97630   0.35749   0.54571   0.00000  Uiso   1.00
C22    C     0.01747   0.39551   0.63113   0.00000  Uiso   1.00
C23    C     0.16565   0.39750   0.62328   0.00000  Uiso   1.00
H24    H     0.09059   0.25720   0.30153   0.00000  Uiso   1.00
H25    H     0.96703   0.15040   0.38308   0.00000  Uiso   1.00
H26    H     0.02619   0.31382   0.11833   0.00000  Uiso   1.00
H27    H     0.30742   0.29766   0.37791   0.00000  Uiso   1.00
H28    H     0.78450   0.04735   0.51319   0.00000  Uiso   1.00
H29    H     0.90928   0.39195   0.95496   0.00000  Uiso   1.00
H30    H     0.50232   0.35788   0.50233   0.00000  Uiso   1.00
H31    H     0.74002   0.37549   0.60764   0.00000  Uiso   1.00
H32    H     0.59721   0.27518   0.70600   0.00000  Uiso   1.00
H33    H     0.65637   0.43860   0.44124   0.00000  Uiso   1.00
H34    H     0.93760   0.42245   0.70082   0.00000  Uiso   1.00
H35    H     0.48434   0.14863   0.77528   0.00000  Uiso   1.00
H36    H     0.60913   0.49323   0.21704   0.00000  Uiso   1.00
H37    H     0.20216   0.45915   0.76442   0.00000  Uiso   1.00
O38    O     0.54678   0.02987   0.70339   0.00000  Uiso   1.00
O39    O     0.71051   0.48197   0.97100   0.00000  Uiso   1.00
O40    O     0.48855   0.43727   0.68915   0.00000  Uiso   1.00
N41    N     0.73348   0.08495   0.56139   0.00000  Uiso   1.00
N42    N     0.85012   0.40712   0.03947   0.00000  Uiso   1.00
N43    N     0.40456   0.37528   0.55120   0.00000  Uiso   1.00
N44    N     0.57196   0.13945   0.70242   0.00000  Uiso   1.00
N45    N     0.68861   0.46162   0.18050   0.00000  Uiso   1.00
N46    N     0.24305   0.42978   0.69223   0.00000  Uiso   1.00
C47    C     0.55081   0.23110   0.22981   0.00000  Uiso   1.00
C48    C     0.47424   0.26916   0.15080   0.00000  Uiso   1.00
C49    C     0.45249   0.33403   0.15683   0.00000  Uiso   1.00
C50    C     0.38002   0.35991   0.07675   0.00000  Uiso   1.00
C51    C     0.26850   0.42473   0.96675   0.00000  Uiso   1.00
C52    C     0.44138   0.18085   0.29583   0.00000  Uiso   1.00
C53    C     0.39203   0.17147   0.42378   0.00000  Uiso   1.00
C54    C     0.29190   0.12300   0.46578   0.00000  Uiso   1.00
C55    C     0.12946   0.05071   0.58092   0.00000  Uiso   1.00
C56    C     0.67508   0.19572   0.13801   0.00000  Uiso   1.00
C57    C     0.82223   0.19883   0.13329   0.00000  Uiso   1.00
C58    C     0.91886   0.16288   0.04243   0.00000  Uiso   1.00
C59    C     0.11927   0.11368   0.91254   0.00000  Uiso   1.00
C60    C     0.46076   0.16170   0.07687   0.00000  Uiso   1.00
C61    C     0.42533   0.23146   0.06773   0.00000  Uiso   1.00
C62    C     0.35287   0.25725   0.98762   0.00000  Uiso   1.00
C63    C     0.33102   0.32215   0.99352   0.00000  Uiso   1.00
C64    C     0.39247   0.14316   0.21276   0.00000  Uiso   1.00
C65    C     0.29240   0.09469   0.25457   0.00000  Uiso   1.00
C66    C     0.24290   0.08524   0.38256   0.00000  Uiso   1.00
C67    C     0.62617   0.15803   0.05493   0.00000  Uiso   1.00
C68    C     0.72260   0.12206   0.96407   0.00000  Uiso   1.00
C69    C     0.86986   0.12512   0.95921   0.00000  Uiso   1.00
H70    H     0.58888   0.26044   0.29449   0.00000  Uiso   1.00
H71    H     0.49035   0.36318   0.22114   0.00000  Uiso   1.00
H72    H     0.42991   0.20064   0.48805   0.00000  Uiso   1.00
H73    H     0.86003   0.22801   0.19759   0.00000  Uiso   1.00
H74    H     0.35949   0.46046   0.10321   0.00000  Uiso   1.00
H75    H     0.23208   0.11773   0.66600   0.00000  Uiso   1.00
H76    H     0.13909   0.17543   0.05352   0.00000  Uiso   1.00
H77    H     0.42268   0.13235   0.01219   0.00000  Uiso   1.00
H78    H     0.31503   0.22807   0.92334   0.00000  Uiso   1.00
H79    H     0.25459   0.06553   0.19025   0.00000  Uiso   1.00
H80    H     0.68471   0.09290   0.89980   0.00000  Uiso   1.00
H81    H     0.21719   0.35080   0.86151   0.00000  Uiso   1.00
H82    H     0.08979   0.00807   0.42430   0.00000  Uiso   1.00
H83    H     0.99679   0.06577   0.81182   0.00000  Uiso   1.00
O84    O     0.22048   0.47090   0.92903   0.00000  Uiso   1.00
O85    O     0.05335   0.02125   0.66739   0.00000  Uiso   1.00
O86    O     0.24332   0.09695   0.86383   0.00000  Uiso   1.00
N87    N     0.34080   0.42152   0.05850   0.00000  Uiso   1.00
N88    N     0.22166   0.10109   0.58468   0.00000  Uiso   1.00
N89    N     0.06964   0.15503   0.01209   0.00000  Uiso   1.00
N90    N     0.26423   0.36251   0.92844   0.00000  Uiso   1.00
N91    N     0.14510   0.04208   0.45462   0.00000  Uiso   1.00
N92    N     0.99307   0.09602   0.88203   0.00000  Uiso   1.00
C93    C     0.98972   0.78430   0.62834   0.00000  Uiso   1.00
C94    C     0.10546   0.74268   0.54157   0.00000  Uiso   1.00
C95    C     0.11283   0.67733   0.54719   0.00000  Uiso   1.00
C96    C     0.22715   0.64798   0.45943   0.00000  Uiso   1.00
C97    C     0.39121   0.57806   0.33845   0.00000  Uiso   1.00
C98    C     0.07334   0.83146   0.68542   0.00000  Uiso   1.00
C99    C     0.05366   0.84076   0.81198   0.00000  Uiso   1.00
C100   C     0.14093   0.88616   0.84531   0.00000  Uiso   1.00
C101   C     0.25504   0.95412   0.94766   0.00000  Uiso   1.00
C102   C     0.92054   0.82268   0.54438   0.00000  Uiso   1.00
C103   C     0.77238   0.82461   0.55237   0.00000  Uiso   1.00
C104   C     0.73100   0.86262   0.46696   0.00000  Uiso   1.00
C105   C     0.60786   0.91694   0.35032   0.00000  Uiso   1.00
C106   C     0.17966   0.84839   0.46249   0.00000  Uiso   1.00
C107   C     0.20863   0.77749   0.45149   0.00000  Uiso   1.00
C108   C     0.32297   0.74823   0.36370   0.00000  Uiso   1.00
C109   C     0.33049   0.68285   0.36918   0.00000  Uiso   1.00
C110   C     0.17650   0.86627   0.59535   0.00000  Uiso   1.00
C111   C     0.26381   0.91167   0.62849   0.00000  Uiso   1.00
C112   C     0.24428   0.92104   0.75507   0.00000  Uiso   1.00
C113   C     0.02370   0.85749   0.45429   0.00000  Uiso   1.00
C114   C     0.98253   0.89551   0.36887   0.00000  Uiso   1.00
C115   C     0.83435   0.89750   0.37672   0.00000  Uiso   1.00
H116   H     0.90941   0.75720   0.69847   0.00000  Uiso   1.00
H117   H     0.03297   0.65040   0.61692   0.00000  Uiso   1.00
H118   H     0.97381   0.81382   0.88167   0.00000  Uiso   1.00
H119   H     0.69258   0.79766   0.62209   0.00000  Uiso   1.00
H120   H     0.21550   0.54735   0.48681   0.00000  Uiso   1.00
H121   H     0.09072   0.89195   0.04504   0.00000  Uiso   1.00
H122   H     0.49768   0.85788   0.49767   0.00000  Uiso   1.00
H123   H     0.25998   0.87549   0.39236   0.00000  Uiso   1.00
H124   H     0.40279   0.77518   0.29400   0.00000  Uiso   1.00
H125   H     0.34363   0.93860   0.55876   0.00000  Uiso   1.00
H126   H     0.06240   0.92245   0.29918   0.00000  Uiso   1.00
H127   H     0.51566   0.64863   0.22472   0.00000  Uiso   1.00
H128   H     0.39087   0.99323   0.78296   0.00000  Uiso   1.00
H129   H     0.79784   0.95915   0.23558   0.00000  Uiso   1.00
O130   O     0.45322   0.52987   0.29661   0.00000  Uiso   1.00
O131   O     0.28949   0.98197   0.02900   0.00000  Uiso   1.00
O132   O     0.51145   0.93727   0.31085   0.00000  Uiso   1.00
N133   N     0.26652   0.58495   0.43861   0.00000  Uiso   1.00
N134   N     0.14988   0.90712   0.96053   0.00000  Uiso   1.00
N135   N     0.59544   0.87528   0.44880   0.00000  Uiso   1.00
N136   N     0.42804   0.63945   0.29758   0.00000  Uiso   1.00
N137   N     0.31139   0.96162   0.81950   0.00000  Uiso   1.00
N138   N     0.75695   0.92978   0.30777   0.00000  Uiso   1.00
C139   C     0.44919   0.73110   0.77019   0.00000  Uiso   1.00
C140   C     0.52576   0.76916   0.84920   0.00000  Uiso   1.00
C141   C     0.54751   0.83403   0.84317   0.00000  Uiso   1.00
C142   C     0.61998   0.85991   0.92325   0.00000  Uiso   1.00
C143   C     0.73150   0.92473   0.03325   0.00000  Uiso   1.00
C144   C     0.55862   0.68085   0.70417   0.00000  Uiso   1.00
C145   C     0.60797   0.67147   0.57622   0.00000  Uiso   1.00
C146   C     0.70810   0.62300   0.53422   0.00000  Uiso   1.00
C147   C     0.87054   0.55071   0.41908   0.00000  Uiso   1.00
C148   C     0.32492   0.69572   0.86199   0.00000  Uiso   1.00
C149   C     0.17777   0.69883   0.86671   0.00000  Uiso   1.00
C150   C     0.08114   0.66288   0.95757   0.00000  Uiso   1.00
C151   C     0.88073   0.61368   0.08746   0.00000  Uiso   1.00
C152   C     0.53924   0.66170   0.92313   0.00000  Uiso   1.00
C153   C     0.57467   0.73146   0.93227   0.00000  Uiso   1.00
C154   C     0.64713   0.75725   0.01238   0.00000  Uiso   1.00
C155   C     0.66898   0.82215   0.00648   0.00000  Uiso   1.00
C156   C     0.60753   0.64316   0.78724   0.00000  Uiso   1.00
C157   C     0.70760   0.59469   0.74543   0.00000  Uiso   1.00
C158   C     0.75710   0.58524   0.61744   0.00000  Uiso   1.00
C159   C     0.37383   0.65803   0.94507   0.00000  Uiso   1.00
C160   C     0.27740   0.62206   0.03593   0.00000  Uiso   1.00
C161   C     0.13014   0.62512   0.04079   0.00000  Uiso   1.00
H162   H     0.41112   0.76044   0.70551   0.00000  Uiso   1.00
H163   H     0.50965   0.86318   0.77886   0.00000  Uiso   1.00
H164   H     0.57009   0.70064   0.51195   0.00000  Uiso   1.00
H165   H     0.13997   0.72801   0.80241   0.00000  Uiso   1.00
H166   H     0.64051   0.96046   0.89679   0.00000  Uiso   1.00
H167   H     0.76792   0.61773   0.33400   0.00000  Uiso   1.00
H168   H     0.86091   0.67543   0.94648   0.00000  Uiso   1.00
H169   H     0.57732   0.63235   0.98781   0.00000  Uiso   1.00
H170   H     0.68497   0.72807   0.07666   0.00000  Uiso   1.00
H171   H     0.74541   0.56553   0.80975   0.00000  Uiso   1.00
H172   H     0.31529   0.59290   0.10020   0.00000  Uiso   1.00
H173   H     0.78281   0.85080   0.13849   0.00000  Uiso   1.00
H174   H     0.91021   0.50807   0.57570   0.00000  Uiso   1.00
H175   H     0.00321   0.56577   0.18818   0.00000  Uiso   1.00
O176   O     0.77952   0.97090   0.07097   0.00000  Uiso   1.00
O177   O     0.94665   0.52125   0.33261   0.00000  Uiso   1.00
O178   O     0.75668   0.59695   0.13617   0.00000  Uiso   1.00
N179   N     0.65920   0.92152   0.94150   0.00000  Uiso   1.00
N180   N     0.77834   0.60109   0.41532   0.00000  Uiso   1.00
N181   N     0.93036   0.65503   0.98791   0.00000  Uiso   1.00
N182   N     0.73577   0.86251   0.07156   0.00000  Uiso   1.00
N183   N     0.85490   0.54208   0.54538   0.00000  Uiso   1.00
N184   N     0.00693   0.59602   0.11797   0.00000  Uiso   1.00
