data_job_00627
_audit_creation_date              2018-12-19
_audit_creation_method            'Materials Studio'
_symmetry_space_group_name_H-M    'P1'
_symmetry_Int_Tables_number       1
_symmetry_cell_setting            triclinic
loop_
_symmetry_equiv_pos_as_xyz
  x,y,z
_cell_length_a                    16.3650
_cell_length_b                    13.2256
_cell_length_c                    17.0352
_cell_angle_alpha                 90.0000
_cell_angle_beta                  41.7487
_cell_angle_gamma                 90.0000
loop_
_atom_site_label
_atom_site_type_symbol
_atom_site_fract_x
_atom_site_fract_y
_atom_site_fract_z
_atom_site_U_iso_or_equiv
_atom_site_adp_type
_atom_site_occupancy
C1     C     0.96214   0.89700   0.81735   0.00000  Uiso   1.00
C2     C     0.90424   0.98651   0.90142   0.00000  Uiso   1.00
C3     C     0.84140   0.98203   0.01723   0.00000  Uiso   1.00
C4     C     0.79528   0.07234   0.07954   0.00000  Uiso   1.00
C5     C     0.70285   0.19741   0.21796   0.00000  Uiso   1.00
C6     C     0.90563   0.89576   0.77597   0.00000  Uiso   1.00
C7     C     0.84398   0.81496   0.78629   0.00000  Uiso   1.00
C8     C     0.79905   0.82887   0.74299   0.00000  Uiso   1.00
C9     C     0.70886   0.81302   0.68657   0.00000  Uiso   1.00
C10    C     0.09701   0.92410   0.70939   0.00000  Uiso   1.00
C11    C     0.19627   0.86711   0.66371   0.00000  Uiso   1.00
C12    C     0.31247   0.90487   0.56433   0.00000  Uiso   1.00
C13    C     0.51942   0.93302   0.40454   0.00000  Uiso   1.00
C14    C     0.99200   0.06536   0.72208   0.00000  Uiso   1.00
C15    C     0.92046   0.07796   0.84966   0.00000  Uiso   1.00
C16    C     0.87443   0.16830   0.91182   0.00000  Uiso   1.00
C17    C     0.81153   0.16395   0.02770   0.00000  Uiso   1.00
C18    C     0.92185   0.98720   0.72422   0.00000  Uiso   1.00
C19    C     0.87701   0.00123   0.68089   0.00000  Uiso   1.00
C20    C     0.81530   0.92048   0.69115   0.00000  Uiso   1.00
C21    C     0.11323   0.01555   0.65764   0.00000  Uiso   1.00
C22    C     0.22930   0.05339   0.55831   0.00000  Uiso   1.00
C23    C     0.32872   0.99648   0.51249   0.00000  Uiso   1.00
H24    H     0.94951   0.82580   0.85764   0.00000  Uiso   1.00
H25    H     0.82886   0.91124   0.05725   0.00000  Uiso   1.00
H26    H     0.83145   0.74420   0.82633   0.00000  Uiso   1.00
H27    H     0.18368   0.79635   0.70378   0.00000  Uiso   1.00
H28    H     0.70220   0.04629   0.25574   0.00000  Uiso   1.00
H29    H     0.70770   0.69406   0.76881   0.00000  Uiso   1.00
H30    H     0.45046   0.80403   0.51038   0.00000  Uiso   1.00
H31    H     0.00463   0.13656   0.68179   0.00000  Uiso   1.00
H32    H     0.88700   0.23906   0.87175   0.00000  Uiso   1.00
H33    H     0.88958   0.07201   0.64084   0.00000  Uiso   1.00
H34    H     0.24181   0.12416   0.51829   0.00000  Uiso   1.00
H35    H     0.74938   0.31236   0.10519   0.00000  Uiso   1.00
H36    H     0.75489   0.96012   0.61826   0.00000  Uiso   1.00
H37    H     0.49764   0.07009   0.35982   0.00000  Uiso   1.00
O38    O     0.64738   0.24114   0.30861   0.00000  Uiso   1.00
O39    O     0.65462   0.77902   0.66976   0.00000  Uiso   1.00
O40    O     0.62909   0.92329   0.33071   0.00000  Uiso   1.00
N41    N     0.72947   0.09485   0.19423   0.00000  Uiso   1.00
N42    N     0.73460   0.76554   0.73900   0.00000  Uiso   1.00
N43    N     0.42901   0.86833   0.49737   0.00000  Uiso   1.00
N44    N     0.75486   0.23802   0.11322   0.00000  Uiso   1.00
N45    N     0.75999   0.90871   0.65799   0.00000  Uiso   1.00
N46    N     0.45440   0.01150   0.41635   0.00000  Uiso   1.00
C47    C     0.03786   0.39700   0.68265   0.00000  Uiso   1.00
C48    C     0.09576   0.48651   0.59858   0.00000  Uiso   1.00
C49    C     0.15860   0.48203   0.48277   0.00000  Uiso   1.00
C50    C     0.20472   0.57234   0.42046   0.00000  Uiso   1.00
C51    C     0.29715   0.69741   0.28204   0.00000  Uiso   1.00
C52    C     0.09437   0.39576   0.72403   0.00000  Uiso   1.00
C53    C     0.15602   0.31496   0.71371   0.00000  Uiso   1.00
C54    C     0.20095   0.32887   0.75701   0.00000  Uiso   1.00
C55    C     0.29114   0.31302   0.81343   0.00000  Uiso   1.00
C56    C     0.90299   0.42410   0.79061   0.00000  Uiso   1.00
C57    C     0.80373   0.36711   0.83629   0.00000  Uiso   1.00
C58    C     0.68753   0.40487   0.93567   0.00000  Uiso   1.00
C59    C     0.48058   0.43302   0.09546   0.00000  Uiso   1.00
C60    C     0.00800   0.56536   0.77792   0.00000  Uiso   1.00
C61    C     0.07954   0.57796   0.65034   0.00000  Uiso   1.00
C62    C     0.12557   0.66830   0.58818   0.00000  Uiso   1.00
C63    C     0.18847   0.66395   0.47230   0.00000  Uiso   1.00
C64    C     0.07815   0.48720   0.77578   0.00000  Uiso   1.00
C65    C     0.12299   0.50123   0.81911   0.00000  Uiso   1.00
C66    C     0.18470   0.42048   0.80885   0.00000  Uiso   1.00
C67    C     0.88677   0.51555   0.84236   0.00000  Uiso   1.00
C68    C     0.77070   0.55339   0.94169   0.00000  Uiso   1.00
C69    C     0.67128   0.49648   0.98751   0.00000  Uiso   1.00
H70    H     0.05049   0.32580   0.64236   0.00000  Uiso   1.00
H71    H     0.17114   0.41124   0.44275   0.00000  Uiso   1.00
H72    H     0.16855   0.24420   0.67367   0.00000  Uiso   1.00
H73    H     0.81632   0.29635   0.79622   0.00000  Uiso   1.00
H74    H     0.29780   0.54629   0.24426   0.00000  Uiso   1.00
H75    H     0.29230   0.19406   0.73119   0.00000  Uiso   1.00
H76    H     0.54954   0.30403   0.98962   0.00000  Uiso   1.00
H77    H     0.99537   0.63656   0.81821   0.00000  Uiso   1.00
H78    H     0.11300   0.73906   0.62825   0.00000  Uiso   1.00
H79    H     0.11042   0.57201   0.85916   0.00000  Uiso   1.00
H80    H     0.75819   0.62416   0.98171   0.00000  Uiso   1.00
H81    H     0.25062   0.81236   0.39481   0.00000  Uiso   1.00
H82    H     0.24511   0.46012   0.88174   0.00000  Uiso   1.00
H83    H     0.50236   0.57009   0.14018   0.00000  Uiso   1.00
O84    O     0.35262   0.74114   0.19139   0.00000  Uiso   1.00
O85    O     0.34538   0.27902   0.83024   0.00000  Uiso   1.00
O86    O     0.37091   0.42329   0.16929   0.00000  Uiso   1.00
N87    N     0.27053   0.59485   0.30577   0.00000  Uiso   1.00
N88    N     0.26540   0.26554   0.76100   0.00000  Uiso   1.00
N89    N     0.57099   0.36833   0.00263   0.00000  Uiso   1.00
N90    N     0.24514   0.73802   0.38678   0.00000  Uiso   1.00
N91    N     0.24001   0.40871   0.84201   0.00000  Uiso   1.00
N92    N     0.54560   0.51150   0.08365   0.00000  Uiso   1.00
C93    C     0.03786   0.10300   0.18265   0.00000  Uiso   1.00
C94    C     0.09576   0.01349   0.09858   0.00000  Uiso   1.00
C95    C     0.15860   0.01797   0.98277   0.00000  Uiso   1.00
C96    C     0.20472   0.92766   0.92046   0.00000  Uiso   1.00
C97    C     0.29715   0.80259   0.78204   0.00000  Uiso   1.00
C98    C     0.09437   0.10424   0.22403   0.00000  Uiso   1.00
C99    C     0.15602   0.18504   0.21371   0.00000  Uiso   1.00
C100   C     0.20095   0.17113   0.25701   0.00000  Uiso   1.00
C101   C     0.29114   0.18698   0.31343   0.00000  Uiso   1.00
C102   C     0.90299   0.07590   0.29061   0.00000  Uiso   1.00
C103   C     0.80373   0.13289   0.33629   0.00000  Uiso   1.00
C104   C     0.68753   0.09513   0.43567   0.00000  Uiso   1.00
C105   C     0.48058   0.06698   0.59546   0.00000  Uiso   1.00
C106   C     0.00800   0.93464   0.27792   0.00000  Uiso   1.00
C107   C     0.07954   0.92204   0.15034   0.00000  Uiso   1.00
C108   C     0.12557   0.83170   0.08818   0.00000  Uiso   1.00
C109   C     0.18847   0.83605   0.97230   0.00000  Uiso   1.00
C110   C     0.07815   0.01280   0.27578   0.00000  Uiso   1.00
C111   C     0.12299   0.99877   0.31911   0.00000  Uiso   1.00
C112   C     0.18470   0.07952   0.30885   0.00000  Uiso   1.00
C113   C     0.88677   0.98445   0.34236   0.00000  Uiso   1.00
C114   C     0.77070   0.94661   0.44169   0.00000  Uiso   1.00
C115   C     0.67128   0.00352   0.48751   0.00000  Uiso   1.00
H116   H     0.05049   0.17420   0.14236   0.00000  Uiso   1.00
H117   H     0.17114   0.08876   0.94275   0.00000  Uiso   1.00
H118   H     0.16855   0.25580   0.17367   0.00000  Uiso   1.00
H119   H     0.81632   0.20365   0.29622   0.00000  Uiso   1.00
H120   H     0.29780   0.95371   0.74426   0.00000  Uiso   1.00
H121   H     0.29230   0.30594   0.23119   0.00000  Uiso   1.00
H122   H     0.54954   0.19597   0.48962   0.00000  Uiso   1.00
H123   H     0.99537   0.86344   0.31821   0.00000  Uiso   1.00
H124   H     0.11300   0.76094   0.12825   0.00000  Uiso   1.00
H125   H     0.11042   0.92799   0.35916   0.00000  Uiso   1.00
H126   H     0.75819   0.87584   0.48171   0.00000  Uiso   1.00
H127   H     0.25062   0.68764   0.89481   0.00000  Uiso   1.00
H128   H     0.24511   0.03988   0.38174   0.00000  Uiso   1.00
H129   H     0.50236   0.92991   0.64018   0.00000  Uiso   1.00
O130   O     0.35262   0.75886   0.69139   0.00000  Uiso   1.00
O131   O     0.34538   0.22098   0.33024   0.00000  Uiso   1.00
O132   O     0.37091   0.07671   0.66929   0.00000  Uiso   1.00
N133   N     0.27053   0.90515   0.80577   0.00000  Uiso   1.00
N134   N     0.26540   0.23446   0.26100   0.00000  Uiso   1.00
N135   N     0.57099   0.13167   0.50263   0.00000  Uiso   1.00
N136   N     0.24514   0.76198   0.88678   0.00000  Uiso   1.00
N137   N     0.24001   0.09129   0.34201   0.00000  Uiso   1.00
N138   N     0.54560   0.98850   0.58365   0.00000  Uiso   1.00
C139   C     0.96214   0.60300   0.31735   0.00000  Uiso   1.00
C140   C     0.90424   0.51349   0.40142   0.00000  Uiso   1.00
C141   C     0.84140   0.51797   0.51723   0.00000  Uiso   1.00
C142   C     0.79528   0.42766   0.57954   0.00000  Uiso   1.00
C143   C     0.70285   0.30259   0.71796   0.00000  Uiso   1.00
C144   C     0.90563   0.60424   0.27597   0.00000  Uiso   1.00
C145   C     0.84398   0.68504   0.28629   0.00000  Uiso   1.00
C146   C     0.79905   0.67113   0.24299   0.00000  Uiso   1.00
C147   C     0.70886   0.68698   0.18657   0.00000  Uiso   1.00
C148   C     0.09701   0.57590   0.20939   0.00000  Uiso   1.00
C149   C     0.19627   0.63289   0.16371   0.00000  Uiso   1.00
C150   C     0.31247   0.59513   0.06433   0.00000  Uiso   1.00
C151   C     0.51942   0.56698   0.90454   0.00000  Uiso   1.00
C152   C     0.99200   0.43464   0.22208   0.00000  Uiso   1.00
C153   C     0.92046   0.42204   0.34966   0.00000  Uiso   1.00
C154   C     0.87443   0.33170   0.41182   0.00000  Uiso   1.00
C155   C     0.81153   0.33605   0.52770   0.00000  Uiso   1.00
C156   C     0.92185   0.51280   0.22422   0.00000  Uiso   1.00
C157   C     0.87701   0.49877   0.18089   0.00000  Uiso   1.00
C158   C     0.81530   0.57952   0.19115   0.00000  Uiso   1.00
C159   C     0.11323   0.48445   0.15764   0.00000  Uiso   1.00
C160   C     0.22930   0.44661   0.05831   0.00000  Uiso   1.00
C161   C     0.32872   0.50352   0.01249   0.00000  Uiso   1.00
H162   H     0.94951   0.67420   0.35764   0.00000  Uiso   1.00
H163   H     0.82886   0.58876   0.55725   0.00000  Uiso   1.00
H164   H     0.83145   0.75580   0.32633   0.00000  Uiso   1.00
H165   H     0.18368   0.70365   0.20378   0.00000  Uiso   1.00
H166   H     0.70220   0.45371   0.75574   0.00000  Uiso   1.00
H167   H     0.70770   0.80594   0.26881   0.00000  Uiso   1.00
H168   H     0.45046   0.69597   0.01038   0.00000  Uiso   1.00
H169   H     0.00463   0.36344   0.18179   0.00000  Uiso   1.00
H170   H     0.88700   0.26094   0.37175   0.00000  Uiso   1.00
H171   H     0.88958   0.42799   0.14084   0.00000  Uiso   1.00
H172   H     0.24181   0.37584   0.01829   0.00000  Uiso   1.00
H173   H     0.74938   0.18764   0.60519   0.00000  Uiso   1.00
H174   H     0.75489   0.53988   0.11826   0.00000  Uiso   1.00
H175   H     0.49764   0.42991   0.85982   0.00000  Uiso   1.00
O176   O     0.64738   0.25886   0.80861   0.00000  Uiso   1.00
O177   O     0.65462   0.72098   0.16976   0.00000  Uiso   1.00
O178   O     0.62909   0.57671   0.83071   0.00000  Uiso   1.00
N179   N     0.72947   0.40515   0.69423   0.00000  Uiso   1.00
N180   N     0.73460   0.73446   0.23900   0.00000  Uiso   1.00
N181   N     0.42901   0.63167   0.99737   0.00000  Uiso   1.00
N182   N     0.75486   0.26198   0.61322   0.00000  Uiso   1.00
N183   N     0.75999   0.59129   0.15799   0.00000  Uiso   1.00
N184   N     0.45440   0.48850   0.91635   0.00000  Uiso   1.00
