data_job_02592
_audit_creation_date              2018-12-19
_audit_creation_method            'Materials Studio'
_symmetry_space_group_name_H-M    'P1'
_symmetry_Int_Tables_number       1
_symmetry_cell_setting            triclinic
loop_
_symmetry_equiv_pos_as_xyz
  x,y,z
_cell_length_a                    16.8619
_cell_length_b                    17.9036
_cell_length_c                    28.6306
_cell_angle_alpha                 90.0000
_cell_angle_beta                  133.1698
_cell_angle_gamma                 90.0000
loop_
_atom_site_label
_atom_site_type_symbol
_atom_site_fract_x
_atom_site_fract_y
_atom_site_fract_z
_atom_site_U_iso_or_equiv
_atom_site_adp_type
_atom_site_occupancy
C1     C     0.49395   0.62942   0.89505   0.00000  Uiso   1.00
C2     C     0.39871   0.58382   0.83796   0.00000  Uiso   1.00
C3     C     0.29210   0.58784   0.81069   0.00000  Uiso   1.00
C4     C     0.21691   0.54150   0.75874   0.00000  Uiso   1.00
C5     C     0.06441   0.47807   0.67372   0.00000  Uiso   1.00
C6     C     0.57967   0.57290   0.94482   0.00000  Uiso   1.00
C7     C     0.62521   0.56775   0.00741   0.00000  Uiso   1.00
C8     C     0.70235   0.51222   0.04542   0.00000  Uiso   1.00
C9     C     0.83085   0.43186   0.12633   0.00000  Uiso   1.00
C10    C     0.54187   0.67023   0.87239   0.00000  Uiso   1.00
C11    C     0.55566   0.74692   0.87408   0.00000  Uiso   1.00
C12    C     0.60100   0.77333   0.85113   0.00000  Uiso   1.00
C13    C     0.67081   0.84410   0.81957   0.00000  Uiso   1.00
C14    C     0.54999   0.53997   0.85129   0.00000  Uiso   1.00
C15    C     0.42916   0.53523   0.81419   0.00000  Uiso   1.00
C16    C     0.35410   0.48888   0.76227   0.00000  Uiso   1.00
C17    C     0.24739   0.49283   0.73492   0.00000  Uiso   1.00
C18    C     0.61011   0.52431   0.92105   0.00000  Uiso   1.00
C19    C     0.68721   0.46878   0.95899   0.00000  Uiso   1.00
C20    C     0.73285   0.46355   0.02161   0.00000  Uiso   1.00
C21    C     0.57231   0.62165   0.84862   0.00000  Uiso   1.00
C22    C     0.61765   0.64795   0.82566   0.00000  Uiso   1.00
C23    C     0.63149   0.72466   0.82731   0.00000  Uiso   1.00
H24    H     0.47026   0.66724   0.91356   0.00000  Uiso   1.00
H25    H     0.26858   0.62545   0.82910   0.00000  Uiso   1.00
H26    H     0.60165   0.60536   0.02579   0.00000  Uiso   1.00
H27    H     0.53209   0.78450   0.89248   0.00000  Uiso   1.00
H28    H     0.05842   0.55766   0.72499   0.00000  Uiso   1.00
H29    H     0.76073   0.51532   0.13973   0.00000  Uiso   1.00
H30    H     0.61407   0.89308   0.85863   0.00000  Uiso   1.00
H31    H     0.57369   0.50214   0.83278   0.00000  Uiso   1.00
H32    H     0.37768   0.45128   0.74388   0.00000  Uiso   1.00
H33    H     0.71074   0.43120   0.94058   0.00000  Uiso   1.00
H34    H     0.64119   0.61033   0.80727   0.00000  Uiso   1.00
H35    H     0.14696   0.41630   0.65583   0.00000  Uiso   1.00
H36    H     0.84928   0.37397   0.07057   0.00000  Uiso   1.00
H37    H     0.70262   0.75172   0.78946   0.00000  Uiso   1.00
O38    O     0.97189   0.45649   0.63340   0.00000  Uiso   1.00
O39    O     0.89331   0.40095   0.17753   0.00000  Uiso   1.00
O40    O     0.70089   0.89655   0.80872   0.00000  Uiso   1.00
N41    N     0.10615   0.53138   0.72091   0.00000  Uiso   1.00
N42    N     0.76276   0.49179   0.10866   0.00000  Uiso   1.00
N43    N     0.62567   0.84496   0.84587   0.00000  Uiso   1.00
N44    N     0.15380   0.45532   0.68369   0.00000  Uiso   1.00
N45    N     0.81040   0.41573   0.07144   0.00000  Uiso   1.00
N46    N     0.67332   0.76889   0.80865   0.00000  Uiso   1.00
C47    C     0.99395   0.12942   0.89505   0.00000  Uiso   1.00
C48    C     0.89871   0.08382   0.83796   0.00000  Uiso   1.00
C49    C     0.79210   0.08784   0.81069   0.00000  Uiso   1.00
C50    C     0.71691   0.04150   0.75874   0.00000  Uiso   1.00
C51    C     0.56441   0.97807   0.67372   0.00000  Uiso   1.00
C52    C     0.07967   0.07290   0.94482   0.00000  Uiso   1.00
C53    C     0.12521   0.06775   0.00741   0.00000  Uiso   1.00
C54    C     0.20235   0.01222   0.04542   0.00000  Uiso   1.00
C55    C     0.33085   0.93186   0.12633   0.00000  Uiso   1.00
C56    C     0.04187   0.17023   0.87239   0.00000  Uiso   1.00
C57    C     0.05566   0.24692   0.87408   0.00000  Uiso   1.00
C58    C     0.10100   0.27333   0.85113   0.00000  Uiso   1.00
C59    C     0.17081   0.34410   0.81957   0.00000  Uiso   1.00
C60    C     0.04999   0.03997   0.85129   0.00000  Uiso   1.00
C61    C     0.92916   0.03523   0.81419   0.00000  Uiso   1.00
C62    C     0.85410   0.98888   0.76227   0.00000  Uiso   1.00
C63    C     0.74739   0.99283   0.73492   0.00000  Uiso   1.00
C64    C     0.11011   0.02431   0.92105   0.00000  Uiso   1.00
C65    C     0.18721   0.96878   0.95899   0.00000  Uiso   1.00
C66    C     0.23285   0.96355   0.02161   0.00000  Uiso   1.00
C67    C     0.07231   0.12165   0.84862   0.00000  Uiso   1.00
C68    C     0.11765   0.14795   0.82566   0.00000  Uiso   1.00
C69    C     0.13149   0.22466   0.82731   0.00000  Uiso   1.00
H70    H     0.97026   0.16724   0.91356   0.00000  Uiso   1.00
H71    H     0.76858   0.12545   0.82910   0.00000  Uiso   1.00
H72    H     0.10165   0.10536   0.02579   0.00000  Uiso   1.00
H73    H     0.03209   0.28450   0.89248   0.00000  Uiso   1.00
H74    H     0.55842   0.05766   0.72499   0.00000  Uiso   1.00
H75    H     0.26073   0.01532   0.13973   0.00000  Uiso   1.00
H76    H     0.11407   0.39308   0.85863   0.00000  Uiso   1.00
H77    H     0.07369   0.00214   0.83278   0.00000  Uiso   1.00
H78    H     0.87768   0.95128   0.74388   0.00000  Uiso   1.00
H79    H     0.21074   0.93120   0.94058   0.00000  Uiso   1.00
H80    H     0.14119   0.11033   0.80727   0.00000  Uiso   1.00
H81    H     0.64696   0.91630   0.65583   0.00000  Uiso   1.00
H82    H     0.34928   0.87397   0.07057   0.00000  Uiso   1.00
H83    H     0.20262   0.25172   0.78946   0.00000  Uiso   1.00
O84    O     0.47189   0.95649   0.63340   0.00000  Uiso   1.00
O85    O     0.39331   0.90095   0.17753   0.00000  Uiso   1.00
O86    O     0.20089   0.39655   0.80872   0.00000  Uiso   1.00
N87    N     0.60615   0.03138   0.72091   0.00000  Uiso   1.00
N88    N     0.26276   0.99179   0.10866   0.00000  Uiso   1.00
N89    N     0.12567   0.34496   0.84587   0.00000  Uiso   1.00
N90    N     0.65380   0.95532   0.68369   0.00000  Uiso   1.00
N91    N     0.31040   0.91573   0.07144   0.00000  Uiso   1.00
N92    N     0.17332   0.26889   0.80865   0.00000  Uiso   1.00
C93    C     0.50605   0.62942   0.60495   0.00000  Uiso   1.00
C94    C     0.60129   0.58382   0.66204   0.00000  Uiso   1.00
C95    C     0.70790   0.58784   0.68931   0.00000  Uiso   1.00
C96    C     0.78309   0.54150   0.74126   0.00000  Uiso   1.00
C97    C     0.93559   0.47807   0.82628   0.00000  Uiso   1.00
C98    C     0.42033   0.57290   0.55518   0.00000  Uiso   1.00
C99    C     0.37479   0.56775   0.49259   0.00000  Uiso   1.00
C100   C     0.29765   0.51222   0.45458   0.00000  Uiso   1.00
C101   C     0.16915   0.43186   0.37367   0.00000  Uiso   1.00
C102   C     0.45813   0.67023   0.62761   0.00000  Uiso   1.00
C103   C     0.44434   0.74692   0.62592   0.00000  Uiso   1.00
C104   C     0.39900   0.77333   0.64887   0.00000  Uiso   1.00
C105   C     0.32919   0.84410   0.68043   0.00000  Uiso   1.00
C106   C     0.45001   0.53997   0.64871   0.00000  Uiso   1.00
C107   C     0.57084   0.53523   0.68581   0.00000  Uiso   1.00
C108   C     0.64590   0.48888   0.73773   0.00000  Uiso   1.00
C109   C     0.75261   0.49283   0.76508   0.00000  Uiso   1.00
C110   C     0.38989   0.52431   0.57895   0.00000  Uiso   1.00
C111   C     0.31279   0.46878   0.54101   0.00000  Uiso   1.00
C112   C     0.26715   0.46355   0.47839   0.00000  Uiso   1.00
C113   C     0.42769   0.62165   0.65138   0.00000  Uiso   1.00
C114   C     0.38235   0.64795   0.67434   0.00000  Uiso   1.00
C115   C     0.36851   0.72466   0.67269   0.00000  Uiso   1.00
H116   H     0.52974   0.66724   0.58644   0.00000  Uiso   1.00
H117   H     0.73142   0.62545   0.67090   0.00000  Uiso   1.00
H118   H     0.39835   0.60536   0.47421   0.00000  Uiso   1.00
H119   H     0.46791   0.78450   0.60752   0.00000  Uiso   1.00
H120   H     0.94158   0.55766   0.77501   0.00000  Uiso   1.00
H121   H     0.23927   0.51532   0.36027   0.00000  Uiso   1.00
H122   H     0.38593   0.89308   0.64137   0.00000  Uiso   1.00
H123   H     0.42631   0.50214   0.66722   0.00000  Uiso   1.00
H124   H     0.62232   0.45128   0.75612   0.00000  Uiso   1.00
H125   H     0.28926   0.43120   0.55942   0.00000  Uiso   1.00
H126   H     0.35881   0.61033   0.69273   0.00000  Uiso   1.00
H127   H     0.85304   0.41630   0.84417   0.00000  Uiso   1.00
H128   H     0.15072   0.37397   0.42943   0.00000  Uiso   1.00
H129   H     0.29738   0.75172   0.71054   0.00000  Uiso   1.00
O130   O     0.02811   0.45649   0.86660   0.00000  Uiso   1.00
O131   O     0.10669   0.40095   0.32247   0.00000  Uiso   1.00
O132   O     0.29911   0.89655   0.69128   0.00000  Uiso   1.00
N133   N     0.89385   0.53138   0.77909   0.00000  Uiso   1.00
N134   N     0.23724   0.49179   0.39134   0.00000  Uiso   1.00
N135   N     0.37433   0.84496   0.65413   0.00000  Uiso   1.00
N136   N     0.84620   0.45532   0.81631   0.00000  Uiso   1.00
N137   N     0.18960   0.41573   0.42856   0.00000  Uiso   1.00
N138   N     0.32668   0.76889   0.69135   0.00000  Uiso   1.00
C139   C     0.00605   0.12942   0.60495   0.00000  Uiso   1.00
C140   C     0.10129   0.08382   0.66204   0.00000  Uiso   1.00
C141   C     0.20790   0.08784   0.68931   0.00000  Uiso   1.00
C142   C     0.28309   0.04150   0.74126   0.00000  Uiso   1.00
C143   C     0.43559   0.97807   0.82628   0.00000  Uiso   1.00
C144   C     0.92033   0.07290   0.55518   0.00000  Uiso   1.00
C145   C     0.87479   0.06775   0.49259   0.00000  Uiso   1.00
C146   C     0.79765   0.01222   0.45458   0.00000  Uiso   1.00
C147   C     0.66915   0.93186   0.37367   0.00000  Uiso   1.00
C148   C     0.95813   0.17023   0.62761   0.00000  Uiso   1.00
C149   C     0.94434   0.24692   0.62592   0.00000  Uiso   1.00
C150   C     0.89900   0.27333   0.64887   0.00000  Uiso   1.00
C151   C     0.82919   0.34410   0.68043   0.00000  Uiso   1.00
C152   C     0.95001   0.03997   0.64871   0.00000  Uiso   1.00
C153   C     0.07084   0.03523   0.68581   0.00000  Uiso   1.00
C154   C     0.14590   0.98888   0.73773   0.00000  Uiso   1.00
C155   C     0.25261   0.99283   0.76508   0.00000  Uiso   1.00
C156   C     0.88989   0.02431   0.57895   0.00000  Uiso   1.00
C157   C     0.81279   0.96878   0.54101   0.00000  Uiso   1.00
C158   C     0.76715   0.96355   0.47839   0.00000  Uiso   1.00
C159   C     0.92769   0.12165   0.65138   0.00000  Uiso   1.00
C160   C     0.88235   0.14795   0.67434   0.00000  Uiso   1.00
C161   C     0.86851   0.22466   0.67269   0.00000  Uiso   1.00
H162   H     0.02974   0.16724   0.58644   0.00000  Uiso   1.00
H163   H     0.23142   0.12545   0.67090   0.00000  Uiso   1.00
H164   H     0.89835   0.10536   0.47421   0.00000  Uiso   1.00
H165   H     0.96791   0.28450   0.60752   0.00000  Uiso   1.00
H166   H     0.44158   0.05766   0.77501   0.00000  Uiso   1.00
H167   H     0.73927   0.01532   0.36027   0.00000  Uiso   1.00
H168   H     0.88593   0.39308   0.64137   0.00000  Uiso   1.00
H169   H     0.92631   0.00214   0.66722   0.00000  Uiso   1.00
H170   H     0.12232   0.95128   0.75612   0.00000  Uiso   1.00
H171   H     0.78926   0.93120   0.55942   0.00000  Uiso   1.00
H172   H     0.85881   0.11033   0.69273   0.00000  Uiso   1.00
H173   H     0.35304   0.91630   0.84417   0.00000  Uiso   1.00
H174   H     0.65072   0.87397   0.42943   0.00000  Uiso   1.00
H175   H     0.79738   0.25172   0.71054   0.00000  Uiso   1.00
O176   O     0.52811   0.95649   0.86660   0.00000  Uiso   1.00
O177   O     0.60669   0.90095   0.32247   0.00000  Uiso   1.00
O178   O     0.79911   0.39655   0.69128   0.00000  Uiso   1.00
N179   N     0.39385   0.03138   0.77909   0.00000  Uiso   1.00
N180   N     0.73724   0.99179   0.39134   0.00000  Uiso   1.00
N181   N     0.87433   0.34496   0.65413   0.00000  Uiso   1.00
N182   N     0.34620   0.95532   0.81631   0.00000  Uiso   1.00
N183   N     0.68960   0.91573   0.42856   0.00000  Uiso   1.00
N184   N     0.82668   0.26889   0.69135   0.00000  Uiso   1.00
C185   C     0.50605   0.37058   0.10495   0.00000  Uiso   1.00
C186   C     0.60129   0.41618   0.16204   0.00000  Uiso   1.00
C187   C     0.70790   0.41216   0.18931   0.00000  Uiso   1.00
C188   C     0.78309   0.45850   0.24126   0.00000  Uiso   1.00
C189   C     0.93559   0.52193   0.32628   0.00000  Uiso   1.00
C190   C     0.42033   0.42710   0.05518   0.00000  Uiso   1.00
C191   C     0.37479   0.43225   0.99259   0.00000  Uiso   1.00
C192   C     0.29765   0.48778   0.95458   0.00000  Uiso   1.00
C193   C     0.16915   0.56814   0.87367   0.00000  Uiso   1.00
C194   C     0.45813   0.32977   0.12761   0.00000  Uiso   1.00
C195   C     0.44434   0.25308   0.12592   0.00000  Uiso   1.00
C196   C     0.39900   0.22667   0.14887   0.00000  Uiso   1.00
C197   C     0.32919   0.15590   0.18043   0.00000  Uiso   1.00
C198   C     0.45001   0.46003   0.14871   0.00000  Uiso   1.00
C199   C     0.57084   0.46477   0.18581   0.00000  Uiso   1.00
C200   C     0.64590   0.51112   0.23773   0.00000  Uiso   1.00
C201   C     0.75261   0.50717   0.26508   0.00000  Uiso   1.00
C202   C     0.38989   0.47569   0.07895   0.00000  Uiso   1.00
C203   C     0.31279   0.53122   0.04101   0.00000  Uiso   1.00
C204   C     0.26715   0.53645   0.97839   0.00000  Uiso   1.00
C205   C     0.42769   0.37835   0.15138   0.00000  Uiso   1.00
C206   C     0.38235   0.35205   0.17434   0.00000  Uiso   1.00
C207   C     0.36851   0.27534   0.17269   0.00000  Uiso   1.00
H208   H     0.52974   0.33276   0.08644   0.00000  Uiso   1.00
H209   H     0.73142   0.37455   0.17090   0.00000  Uiso   1.00
H210   H     0.39835   0.39464   0.97421   0.00000  Uiso   1.00
H211   H     0.46791   0.21550   0.10752   0.00000  Uiso   1.00
H212   H     0.94158   0.44234   0.27501   0.00000  Uiso   1.00
H213   H     0.23927   0.48468   0.86027   0.00000  Uiso   1.00
H214   H     0.38593   0.10692   0.14137   0.00000  Uiso   1.00
H215   H     0.42631   0.49786   0.16722   0.00000  Uiso   1.00
H216   H     0.62232   0.54872   0.25612   0.00000  Uiso   1.00
H217   H     0.28926   0.56880   0.05942   0.00000  Uiso   1.00
H218   H     0.35881   0.38967   0.19273   0.00000  Uiso   1.00
H219   H     0.85304   0.58370   0.34417   0.00000  Uiso   1.00
H220   H     0.15072   0.62603   0.92943   0.00000  Uiso   1.00
H221   H     0.29738   0.24828   0.21054   0.00000  Uiso   1.00
O222   O     0.02811   0.54351   0.36660   0.00000  Uiso   1.00
O223   O     0.10669   0.59905   0.82247   0.00000  Uiso   1.00
O224   O     0.29911   0.10345   0.19128   0.00000  Uiso   1.00
N225   N     0.89385   0.46862   0.27909   0.00000  Uiso   1.00
N226   N     0.23724   0.50821   0.89134   0.00000  Uiso   1.00
N227   N     0.37433   0.15504   0.15413   0.00000  Uiso   1.00
N228   N     0.84620   0.54468   0.31631   0.00000  Uiso   1.00
N229   N     0.18960   0.58427   0.92856   0.00000  Uiso   1.00
N230   N     0.32668   0.23111   0.19135   0.00000  Uiso   1.00
C231   C     0.00605   0.87058   0.10495   0.00000  Uiso   1.00
C232   C     0.10129   0.91618   0.16204   0.00000  Uiso   1.00
C233   C     0.20790   0.91216   0.18931   0.00000  Uiso   1.00
C234   C     0.28309   0.95850   0.24126   0.00000  Uiso   1.00
C235   C     0.43559   0.02193   0.32628   0.00000  Uiso   1.00
C236   C     0.92033   0.92710   0.05518   0.00000  Uiso   1.00
C237   C     0.87479   0.93225   0.99259   0.00000  Uiso   1.00
C238   C     0.79765   0.98778   0.95458   0.00000  Uiso   1.00
C239   C     0.66915   0.06814   0.87367   0.00000  Uiso   1.00
C240   C     0.95813   0.82977   0.12761   0.00000  Uiso   1.00
C241   C     0.94434   0.75308   0.12592   0.00000  Uiso   1.00
C242   C     0.89900   0.72667   0.14887   0.00000  Uiso   1.00
C243   C     0.82919   0.65590   0.18043   0.00000  Uiso   1.00
C244   C     0.95001   0.96003   0.14871   0.00000  Uiso   1.00
C245   C     0.07084   0.96477   0.18581   0.00000  Uiso   1.00
C246   C     0.14590   0.01112   0.23773   0.00000  Uiso   1.00
C247   C     0.25261   0.00717   0.26508   0.00000  Uiso   1.00
C248   C     0.88989   0.97569   0.07895   0.00000  Uiso   1.00
C249   C     0.81279   0.03122   0.04101   0.00000  Uiso   1.00
C250   C     0.76715   0.03645   0.97839   0.00000  Uiso   1.00
C251   C     0.92769   0.87835   0.15138   0.00000  Uiso   1.00
C252   C     0.88235   0.85205   0.17434   0.00000  Uiso   1.00
C253   C     0.86851   0.77534   0.17269   0.00000  Uiso   1.00
H254   H     0.02974   0.83276   0.08644   0.00000  Uiso   1.00
H255   H     0.23142   0.87455   0.17090   0.00000  Uiso   1.00
H256   H     0.89835   0.89464   0.97421   0.00000  Uiso   1.00
H257   H     0.96791   0.71550   0.10752   0.00000  Uiso   1.00
H258   H     0.44158   0.94234   0.27501   0.00000  Uiso   1.00
H259   H     0.73927   0.98468   0.86027   0.00000  Uiso   1.00
H260   H     0.88593   0.60692   0.14137   0.00000  Uiso   1.00
H261   H     0.92631   0.99786   0.16722   0.00000  Uiso   1.00
H262   H     0.12232   0.04872   0.25612   0.00000  Uiso   1.00
H263   H     0.78926   0.06880   0.05942   0.00000  Uiso   1.00
H264   H     0.85881   0.88967   0.19273   0.00000  Uiso   1.00
H265   H     0.35304   0.08370   0.34417   0.00000  Uiso   1.00
H266   H     0.65072   0.12603   0.92943   0.00000  Uiso   1.00
H267   H     0.79738   0.74828   0.21054   0.00000  Uiso   1.00
O268   O     0.52811   0.04351   0.36660   0.00000  Uiso   1.00
O269   O     0.60669   0.09905   0.82247   0.00000  Uiso   1.00
O270   O     0.79911   0.60345   0.19128   0.00000  Uiso   1.00
N271   N     0.39385   0.96862   0.27909   0.00000  Uiso   1.00
N272   N     0.73724   0.00821   0.89134   0.00000  Uiso   1.00
N273   N     0.87433   0.65504   0.15413   0.00000  Uiso   1.00
N274   N     0.34620   0.04468   0.31631   0.00000  Uiso   1.00
N275   N     0.68960   0.08427   0.92856   0.00000  Uiso   1.00
N276   N     0.82668   0.73111   0.19135   0.00000  Uiso   1.00
C277   C     0.49395   0.37058   0.39505   0.00000  Uiso   1.00
C278   C     0.39871   0.41618   0.33796   0.00000  Uiso   1.00
C279   C     0.29210   0.41216   0.31069   0.00000  Uiso   1.00
C280   C     0.21691   0.45850   0.25874   0.00000  Uiso   1.00
C281   C     0.06441   0.52193   0.17372   0.00000  Uiso   1.00
C282   C     0.57967   0.42710   0.44482   0.00000  Uiso   1.00
C283   C     0.62521   0.43225   0.50741   0.00000  Uiso   1.00
C284   C     0.70235   0.48778   0.54542   0.00000  Uiso   1.00
C285   C     0.83085   0.56814   0.62633   0.00000  Uiso   1.00
C286   C     0.54187   0.32977   0.37239   0.00000  Uiso   1.00
C287   C     0.55566   0.25308   0.37408   0.00000  Uiso   1.00
C288   C     0.60100   0.22667   0.35113   0.00000  Uiso   1.00
C289   C     0.67081   0.15590   0.31957   0.00000  Uiso   1.00
C290   C     0.54999   0.46003   0.35129   0.00000  Uiso   1.00
C291   C     0.42916   0.46477   0.31419   0.00000  Uiso   1.00
C292   C     0.35410   0.51112   0.26227   0.00000  Uiso   1.00
C293   C     0.24739   0.50717   0.23492   0.00000  Uiso   1.00
C294   C     0.61011   0.47569   0.42105   0.00000  Uiso   1.00
C295   C     0.68721   0.53122   0.45899   0.00000  Uiso   1.00
C296   C     0.73285   0.53645   0.52161   0.00000  Uiso   1.00
C297   C     0.57231   0.37835   0.34862   0.00000  Uiso   1.00
C298   C     0.61765   0.35205   0.32566   0.00000  Uiso   1.00
C299   C     0.63149   0.27534   0.32731   0.00000  Uiso   1.00
H300   H     0.47026   0.33276   0.41356   0.00000  Uiso   1.00
H301   H     0.26858   0.37455   0.32910   0.00000  Uiso   1.00
H302   H     0.60165   0.39464   0.52579   0.00000  Uiso   1.00
H303   H     0.53209   0.21550   0.39248   0.00000  Uiso   1.00
H304   H     0.05842   0.44234   0.22499   0.00000  Uiso   1.00
H305   H     0.76073   0.48468   0.63973   0.00000  Uiso   1.00
H306   H     0.61407   0.10692   0.35863   0.00000  Uiso   1.00
H307   H     0.57369   0.49786   0.33278   0.00000  Uiso   1.00
H308   H     0.37768   0.54872   0.24388   0.00000  Uiso   1.00
H309   H     0.71074   0.56880   0.44058   0.00000  Uiso   1.00
H310   H     0.64119   0.38967   0.30727   0.00000  Uiso   1.00
H311   H     0.14696   0.58370   0.15583   0.00000  Uiso   1.00
H312   H     0.84928   0.62603   0.57057   0.00000  Uiso   1.00
H313   H     0.70262   0.24828   0.28946   0.00000  Uiso   1.00
O314   O     0.97189   0.54351   0.13340   0.00000  Uiso   1.00
O315   O     0.89331   0.59905   0.67753   0.00000  Uiso   1.00
O316   O     0.70089   0.10345   0.30872   0.00000  Uiso   1.00
N317   N     0.10615   0.46862   0.22091   0.00000  Uiso   1.00
N318   N     0.76276   0.50821   0.60866   0.00000  Uiso   1.00
N319   N     0.62567   0.15504   0.34587   0.00000  Uiso   1.00
N320   N     0.15380   0.54468   0.18369   0.00000  Uiso   1.00
N321   N     0.81040   0.58427   0.57144   0.00000  Uiso   1.00
N322   N     0.67332   0.23111   0.30865   0.00000  Uiso   1.00
C323   C     0.99395   0.87058   0.39505   0.00000  Uiso   1.00
C324   C     0.89871   0.91618   0.33796   0.00000  Uiso   1.00
C325   C     0.79210   0.91216   0.31069   0.00000  Uiso   1.00
C326   C     0.71691   0.95850   0.25874   0.00000  Uiso   1.00
C327   C     0.56441   0.02193   0.17372   0.00000  Uiso   1.00
C328   C     0.07967   0.92710   0.44482   0.00000  Uiso   1.00
C329   C     0.12521   0.93225   0.50741   0.00000  Uiso   1.00
C330   C     0.20235   0.98778   0.54542   0.00000  Uiso   1.00
C331   C     0.33085   0.06814   0.62633   0.00000  Uiso   1.00
C332   C     0.04187   0.82977   0.37239   0.00000  Uiso   1.00
C333   C     0.05566   0.75308   0.37408   0.00000  Uiso   1.00
C334   C     0.10100   0.72667   0.35113   0.00000  Uiso   1.00
C335   C     0.17081   0.65590   0.31957   0.00000  Uiso   1.00
C336   C     0.04999   0.96003   0.35129   0.00000  Uiso   1.00
C337   C     0.92916   0.96477   0.31419   0.00000  Uiso   1.00
C338   C     0.85410   0.01112   0.26227   0.00000  Uiso   1.00
C339   C     0.74739   0.00717   0.23492   0.00000  Uiso   1.00
C340   C     0.11011   0.97569   0.42105   0.00000  Uiso   1.00
C341   C     0.18721   0.03122   0.45899   0.00000  Uiso   1.00
C342   C     0.23285   0.03645   0.52161   0.00000  Uiso   1.00
C343   C     0.07231   0.87835   0.34862   0.00000  Uiso   1.00
C344   C     0.11765   0.85205   0.32566   0.00000  Uiso   1.00
C345   C     0.13149   0.77534   0.32731   0.00000  Uiso   1.00
H346   H     0.97026   0.83276   0.41356   0.00000  Uiso   1.00
H347   H     0.76858   0.87455   0.32910   0.00000  Uiso   1.00
H348   H     0.10165   0.89464   0.52579   0.00000  Uiso   1.00
H349   H     0.03209   0.71550   0.39248   0.00000  Uiso   1.00
H350   H     0.55842   0.94234   0.22499   0.00000  Uiso   1.00
H351   H     0.26073   0.98468   0.63973   0.00000  Uiso   1.00
H352   H     0.11407   0.60692   0.35863   0.00000  Uiso   1.00
H353   H     0.07369   0.99786   0.33278   0.00000  Uiso   1.00
H354   H     0.87768   0.04872   0.24388   0.00000  Uiso   1.00
H355   H     0.21074   0.06880   0.44058   0.00000  Uiso   1.00
H356   H     0.14119   0.88967   0.30727   0.00000  Uiso   1.00
H357   H     0.64696   0.08370   0.15583   0.00000  Uiso   1.00
H358   H     0.34928   0.12603   0.57057   0.00000  Uiso   1.00
H359   H     0.20262   0.74828   0.28946   0.00000  Uiso   1.00
O360   O     0.47189   0.04351   0.13340   0.00000  Uiso   1.00
O361   O     0.39331   0.09905   0.67753   0.00000  Uiso   1.00
O362   O     0.20089   0.60345   0.30872   0.00000  Uiso   1.00
N363   N     0.60615   0.96862   0.22091   0.00000  Uiso   1.00
N364   N     0.26276   0.00821   0.60866   0.00000  Uiso   1.00
N365   N     0.12567   0.65504   0.34587   0.00000  Uiso   1.00
N366   N     0.65380   0.04468   0.18369   0.00000  Uiso   1.00
N367   N     0.31040   0.08427   0.57144   0.00000  Uiso   1.00
N368   N     0.17332   0.73111   0.30865   0.00000  Uiso   1.00
