data_job_01808
_audit_creation_date              2018-12-19
_audit_creation_method            'Materials Studio'
_symmetry_space_group_name_H-M    'P1'
_symmetry_Int_Tables_number       1
_symmetry_cell_setting            triclinic
loop_
_symmetry_equiv_pos_as_xyz
  x,y,z
_cell_length_a                    19.8157
_cell_length_b                    14.6412
_cell_length_c                    18.1072
_cell_angle_alpha                 90.0000
_cell_angle_beta                  90.0000
_cell_angle_gamma                 90.0000
loop_
_atom_site_label
_atom_site_type_symbol
_atom_site_fract_x
_atom_site_fract_y
_atom_site_fract_z
_atom_site_U_iso_or_equiv
_atom_site_adp_type
_atom_site_occupancy
C1     C     0.41507   0.22730   0.57738   0.00000  Uiso   1.00
C2     C     0.36968   0.20008   0.64173   0.00000  Uiso   1.00
C3     C     0.31809   0.13607   0.63903   0.00000  Uiso   1.00
C4     C     0.28239   0.12087   0.70385   0.00000  Uiso   1.00
C5     C     0.20956   0.07146   0.79385   0.00000  Uiso   1.00
C6     C     0.40769   0.33049   0.56924   0.00000  Uiso   1.00
C7     C     0.38806   0.37612   0.50559   0.00000  Uiso   1.00
C8     C     0.38437   0.47071   0.50939   0.00000  Uiso   1.00
C9     C     0.37058   0.62376   0.48684   0.00000  Uiso   1.00
C10    C     0.48726   0.21086   0.60334   0.00000  Uiso   1.00
C11    C     0.53454   0.15592   0.56835   0.00000  Uiso   1.00
C12    C     0.59784   0.14980   0.60086   0.00000  Uiso   1.00
C13    C     0.70759   0.11710   0.63126   0.00000  Uiso   1.00
C14    C     0.44342   0.31414   0.69731   0.00000  Uiso   1.00
C15    C     0.38508   0.24725   0.70687   0.00000  Uiso   1.00
C16    C     0.34946   0.23214   0.77171   0.00000  Uiso   1.00
C17    C     0.29782   0.16812   0.76911   0.00000  Uiso   1.00
C18    C     0.42309   0.37765   0.63438   0.00000  Uiso   1.00
C19    C     0.41943   0.47219   0.63828   0.00000  Uiso   1.00
C20    C     0.39979   0.51796   0.57465   0.00000  Uiso   1.00
C21    C     0.50266   0.25802   0.66849   0.00000  Uiso   1.00
C22    C     0.56590   0.25199   0.70105   0.00000  Uiso   1.00
C23    C     0.61326   0.19705   0.66612   0.00000  Uiso   1.00
H24    H     0.40308   0.19059   0.52666   0.00000  Uiso   1.00
H25    H     0.30619   0.09959   0.58860   0.00000  Uiso   1.00
H26    H     0.37615   0.33961   0.45519   0.00000  Uiso   1.00
H27    H     0.52260   0.11943   0.51795   0.00000  Uiso   1.00
H28    H     0.20553   0.01953   0.68599   0.00000  Uiso   1.00
H29    H     0.35309   0.52561   0.40467   0.00000  Uiso   1.00
H30    H     0.66190   0.06134   0.53701   0.00000  Uiso   1.00
H31    H     0.45541   0.35086   0.74802   0.00000  Uiso   1.00
H32    H     0.36138   0.26865   0.82211   0.00000  Uiso   1.00
H33    H     0.43135   0.50866   0.68870   0.00000  Uiso   1.00
H34    H     0.57780   0.28849   0.75146   0.00000  Uiso   1.00
H35    H     0.25033   0.15674   0.87552   0.00000  Uiso   1.00
H36    H     0.39789   0.66283   0.59420   0.00000  Uiso   1.00
H37    H     0.70670   0.19855   0.72654   0.00000  Uiso   1.00
O38    O     0.16512   0.03119   0.82550   0.00000  Uiso   1.00
O39    O     0.35872   0.69515   0.45641   0.00000  Uiso   1.00
O40    O     0.76387   0.08603   0.63004   0.00000  Uiso   1.00
N41    N     0.22899   0.06309   0.72044   0.00000  Uiso   1.00
N42    N     0.36693   0.53625   0.45742   0.00000  Uiso   1.00
N43    N     0.65566   0.10221   0.58113   0.00000  Uiso   1.00
N44    N     0.25310   0.13692   0.82242   0.00000  Uiso   1.00
N45    N     0.39104   0.61008   0.55940   0.00000  Uiso   1.00
N46    N     0.67976   0.17604   0.68312   0.00000  Uiso   1.00
C47    C     0.91507   0.72730   0.07738   0.00000  Uiso   1.00
C48    C     0.86968   0.70008   0.14173   0.00000  Uiso   1.00
C49    C     0.81809   0.63607   0.13903   0.00000  Uiso   1.00
C50    C     0.78239   0.62087   0.20385   0.00000  Uiso   1.00
C51    C     0.70956   0.57146   0.29385   0.00000  Uiso   1.00
C52    C     0.90769   0.83049   0.06924   0.00000  Uiso   1.00
C53    C     0.88806   0.87612   0.00559   0.00000  Uiso   1.00
C54    C     0.88437   0.97071   0.00939   0.00000  Uiso   1.00
C55    C     0.87058   0.12376   0.98684   0.00000  Uiso   1.00
C56    C     0.98726   0.71086   0.10334   0.00000  Uiso   1.00
C57    C     0.03454   0.65592   0.06835   0.00000  Uiso   1.00
C58    C     0.09784   0.64980   0.10086   0.00000  Uiso   1.00
C59    C     0.20759   0.61710   0.13126   0.00000  Uiso   1.00
C60    C     0.94342   0.81414   0.19731   0.00000  Uiso   1.00
C61    C     0.88508   0.74725   0.20687   0.00000  Uiso   1.00
C62    C     0.84946   0.73214   0.27171   0.00000  Uiso   1.00
C63    C     0.79782   0.66812   0.26911   0.00000  Uiso   1.00
C64    C     0.92309   0.87765   0.13438   0.00000  Uiso   1.00
C65    C     0.91943   0.97219   0.13828   0.00000  Uiso   1.00
C66    C     0.89979   0.01796   0.07465   0.00000  Uiso   1.00
C67    C     0.00266   0.75802   0.16849   0.00000  Uiso   1.00
C68    C     0.06590   0.75199   0.20105   0.00000  Uiso   1.00
C69    C     0.11326   0.69705   0.16612   0.00000  Uiso   1.00
H70    H     0.90308   0.69059   0.02666   0.00000  Uiso   1.00
H71    H     0.80619   0.59959   0.08860   0.00000  Uiso   1.00
H72    H     0.87615   0.83961   0.95519   0.00000  Uiso   1.00
H73    H     0.02260   0.61943   0.01795   0.00000  Uiso   1.00
H74    H     0.70553   0.51953   0.18599   0.00000  Uiso   1.00
H75    H     0.85309   0.02561   0.90467   0.00000  Uiso   1.00
H76    H     0.16190   0.56134   0.03701   0.00000  Uiso   1.00
H77    H     0.95541   0.85086   0.24802   0.00000  Uiso   1.00
H78    H     0.86138   0.76865   0.32211   0.00000  Uiso   1.00
H79    H     0.93135   0.00866   0.18870   0.00000  Uiso   1.00
H80    H     0.07780   0.78849   0.25146   0.00000  Uiso   1.00
H81    H     0.75033   0.65674   0.37552   0.00000  Uiso   1.00
H82    H     0.89789   0.16283   0.09420   0.00000  Uiso   1.00
H83    H     0.20670   0.69855   0.22654   0.00000  Uiso   1.00
O84    O     0.66512   0.53119   0.32550   0.00000  Uiso   1.00
O85    O     0.85872   0.19515   0.95641   0.00000  Uiso   1.00
O86    O     0.26387   0.58603   0.13004   0.00000  Uiso   1.00
N87    N     0.72899   0.56309   0.22044   0.00000  Uiso   1.00
N88    N     0.86693   0.03625   0.95742   0.00000  Uiso   1.00
N89    N     0.15566   0.60221   0.08113   0.00000  Uiso   1.00
N90    N     0.75310   0.63692   0.32242   0.00000  Uiso   1.00
N91    N     0.89104   0.11008   0.05940   0.00000  Uiso   1.00
N92    N     0.17976   0.67604   0.18312   0.00000  Uiso   1.00
C93    C     0.58493   0.77270   0.57738   0.00000  Uiso   1.00
C94    C     0.63032   0.79992   0.64173   0.00000  Uiso   1.00
C95    C     0.68191   0.86393   0.63903   0.00000  Uiso   1.00
C96    C     0.71761   0.87913   0.70385   0.00000  Uiso   1.00
C97    C     0.79044   0.92854   0.79385   0.00000  Uiso   1.00
C98    C     0.59231   0.66951   0.56924   0.00000  Uiso   1.00
C99    C     0.61194   0.62388   0.50559   0.00000  Uiso   1.00
C100   C     0.61563   0.52929   0.50939   0.00000  Uiso   1.00
C101   C     0.62942   0.37624   0.48684   0.00000  Uiso   1.00
C102   C     0.51274   0.78914   0.60334   0.00000  Uiso   1.00
C103   C     0.46546   0.84408   0.56835   0.00000  Uiso   1.00
C104   C     0.40216   0.85020   0.60086   0.00000  Uiso   1.00
C105   C     0.29241   0.88290   0.63126   0.00000  Uiso   1.00
C106   C     0.55658   0.68586   0.69731   0.00000  Uiso   1.00
C107   C     0.61492   0.75275   0.70687   0.00000  Uiso   1.00
C108   C     0.65054   0.76786   0.77171   0.00000  Uiso   1.00
C109   C     0.70218   0.83188   0.76911   0.00000  Uiso   1.00
C110   C     0.57691   0.62235   0.63438   0.00000  Uiso   1.00
C111   C     0.58057   0.52781   0.63828   0.00000  Uiso   1.00
C112   C     0.60021   0.48204   0.57465   0.00000  Uiso   1.00
C113   C     0.49734   0.74198   0.66849   0.00000  Uiso   1.00
C114   C     0.43410   0.74801   0.70105   0.00000  Uiso   1.00
C115   C     0.38674   0.80295   0.66612   0.00000  Uiso   1.00
H116   H     0.59692   0.80941   0.52666   0.00000  Uiso   1.00
H117   H     0.69381   0.90041   0.58860   0.00000  Uiso   1.00
H118   H     0.62385   0.66039   0.45519   0.00000  Uiso   1.00
H119   H     0.47740   0.88057   0.51795   0.00000  Uiso   1.00
H120   H     0.79447   0.98047   0.68599   0.00000  Uiso   1.00
H121   H     0.64691   0.47439   0.40467   0.00000  Uiso   1.00
H122   H     0.33810   0.93866   0.53701   0.00000  Uiso   1.00
H123   H     0.54459   0.64914   0.74802   0.00000  Uiso   1.00
H124   H     0.63862   0.73135   0.82211   0.00000  Uiso   1.00
H125   H     0.56865   0.49134   0.68870   0.00000  Uiso   1.00
H126   H     0.42220   0.71151   0.75146   0.00000  Uiso   1.00
H127   H     0.74967   0.84326   0.87552   0.00000  Uiso   1.00
H128   H     0.60211   0.33717   0.59420   0.00000  Uiso   1.00
H129   H     0.29330   0.80145   0.72654   0.00000  Uiso   1.00
O130   O     0.83488   0.96881   0.82550   0.00000  Uiso   1.00
O131   O     0.64128   0.30485   0.45641   0.00000  Uiso   1.00
O132   O     0.23613   0.91397   0.63004   0.00000  Uiso   1.00
N133   N     0.77101   0.93691   0.72044   0.00000  Uiso   1.00
N134   N     0.63307   0.46375   0.45742   0.00000  Uiso   1.00
N135   N     0.34434   0.89779   0.58113   0.00000  Uiso   1.00
N136   N     0.74690   0.86308   0.82242   0.00000  Uiso   1.00
N137   N     0.60896   0.38992   0.55940   0.00000  Uiso   1.00
N138   N     0.32024   0.82396   0.68312   0.00000  Uiso   1.00
C139   C     0.08493   0.27270   0.07738   0.00000  Uiso   1.00
C140   C     0.13032   0.29992   0.14173   0.00000  Uiso   1.00
C141   C     0.18191   0.36393   0.13903   0.00000  Uiso   1.00
C142   C     0.21761   0.37913   0.20385   0.00000  Uiso   1.00
C143   C     0.29044   0.42854   0.29385   0.00000  Uiso   1.00
C144   C     0.09231   0.16951   0.06924   0.00000  Uiso   1.00
C145   C     0.11194   0.12388   0.00559   0.00000  Uiso   1.00
C146   C     0.11563   0.02929   0.00939   0.00000  Uiso   1.00
C147   C     0.12942   0.87624   0.98684   0.00000  Uiso   1.00
C148   C     0.01274   0.28914   0.10334   0.00000  Uiso   1.00
C149   C     0.96546   0.34408   0.06835   0.00000  Uiso   1.00
C150   C     0.90216   0.35020   0.10086   0.00000  Uiso   1.00
C151   C     0.79241   0.38290   0.13126   0.00000  Uiso   1.00
C152   C     0.05658   0.18586   0.19731   0.00000  Uiso   1.00
C153   C     0.11492   0.25275   0.20687   0.00000  Uiso   1.00
C154   C     0.15054   0.26786   0.27171   0.00000  Uiso   1.00
C155   C     0.20218   0.33188   0.26911   0.00000  Uiso   1.00
C156   C     0.07691   0.12235   0.13438   0.00000  Uiso   1.00
C157   C     0.08057   0.02781   0.13828   0.00000  Uiso   1.00
C158   C     0.10021   0.98204   0.07465   0.00000  Uiso   1.00
C159   C     0.99734   0.24198   0.16849   0.00000  Uiso   1.00
C160   C     0.93410   0.24801   0.20105   0.00000  Uiso   1.00
C161   C     0.88674   0.30295   0.16612   0.00000  Uiso   1.00
H162   H     0.09692   0.30941   0.02666   0.00000  Uiso   1.00
H163   H     0.19381   0.40041   0.08860   0.00000  Uiso   1.00
H164   H     0.12385   0.16039   0.95519   0.00000  Uiso   1.00
H165   H     0.97740   0.38057   0.01795   0.00000  Uiso   1.00
H166   H     0.29447   0.48047   0.18599   0.00000  Uiso   1.00
H167   H     0.14691   0.97439   0.90467   0.00000  Uiso   1.00
H168   H     0.83810   0.43866   0.03701   0.00000  Uiso   1.00
H169   H     0.04459   0.14914   0.24802   0.00000  Uiso   1.00
H170   H     0.13862   0.23135   0.32211   0.00000  Uiso   1.00
H171   H     0.06865   0.99134   0.18870   0.00000  Uiso   1.00
H172   H     0.92220   0.21151   0.25146   0.00000  Uiso   1.00
H173   H     0.24967   0.34326   0.37552   0.00000  Uiso   1.00
H174   H     0.10211   0.83717   0.09420   0.00000  Uiso   1.00
H175   H     0.79330   0.30145   0.22654   0.00000  Uiso   1.00
O176   O     0.33488   0.46881   0.32550   0.00000  Uiso   1.00
O177   O     0.14128   0.80485   0.95641   0.00000  Uiso   1.00
O178   O     0.73613   0.41397   0.13004   0.00000  Uiso   1.00
N179   N     0.27101   0.43691   0.22044   0.00000  Uiso   1.00
N180   N     0.13307   0.96375   0.95742   0.00000  Uiso   1.00
N181   N     0.84434   0.39779   0.08113   0.00000  Uiso   1.00
N182   N     0.24690   0.36308   0.32242   0.00000  Uiso   1.00
N183   N     0.10896   0.88992   0.05940   0.00000  Uiso   1.00
N184   N     0.82024   0.32396   0.18312   0.00000  Uiso   1.00
C185   C     0.91507   0.27270   0.57738   0.00000  Uiso   1.00
C186   C     0.86968   0.29992   0.64173   0.00000  Uiso   1.00
C187   C     0.81809   0.36393   0.63903   0.00000  Uiso   1.00
C188   C     0.78239   0.37913   0.70385   0.00000  Uiso   1.00
C189   C     0.70956   0.42854   0.79385   0.00000  Uiso   1.00
C190   C     0.90769   0.16951   0.56924   0.00000  Uiso   1.00
C191   C     0.88806   0.12388   0.50559   0.00000  Uiso   1.00
C192   C     0.88437   0.02929   0.50939   0.00000  Uiso   1.00
C193   C     0.87058   0.87624   0.48684   0.00000  Uiso   1.00
C194   C     0.98726   0.28914   0.60334   0.00000  Uiso   1.00
C195   C     0.03454   0.34408   0.56835   0.00000  Uiso   1.00
C196   C     0.09784   0.35020   0.60086   0.00000  Uiso   1.00
C197   C     0.20759   0.38290   0.63126   0.00000  Uiso   1.00
C198   C     0.94342   0.18586   0.69731   0.00000  Uiso   1.00
C199   C     0.88508   0.25275   0.70687   0.00000  Uiso   1.00
C200   C     0.84946   0.26786   0.77171   0.00000  Uiso   1.00
C201   C     0.79782   0.33188   0.76911   0.00000  Uiso   1.00
C202   C     0.92309   0.12235   0.63438   0.00000  Uiso   1.00
C203   C     0.91943   0.02781   0.63828   0.00000  Uiso   1.00
C204   C     0.89979   0.98204   0.57465   0.00000  Uiso   1.00
C205   C     0.00266   0.24198   0.66849   0.00000  Uiso   1.00
C206   C     0.06590   0.24801   0.70105   0.00000  Uiso   1.00
C207   C     0.11326   0.30295   0.66612   0.00000  Uiso   1.00
H208   H     0.90308   0.30941   0.52666   0.00000  Uiso   1.00
H209   H     0.80619   0.40041   0.58860   0.00000  Uiso   1.00
H210   H     0.87615   0.16039   0.45519   0.00000  Uiso   1.00
H211   H     0.02260   0.38057   0.51795   0.00000  Uiso   1.00
H212   H     0.70553   0.48047   0.68599   0.00000  Uiso   1.00
H213   H     0.85309   0.97439   0.40467   0.00000  Uiso   1.00
H214   H     0.16190   0.43866   0.53701   0.00000  Uiso   1.00
H215   H     0.95541   0.14914   0.74802   0.00000  Uiso   1.00
H216   H     0.86138   0.23135   0.82211   0.00000  Uiso   1.00
H217   H     0.93135   0.99134   0.68870   0.00000  Uiso   1.00
H218   H     0.07780   0.21151   0.75146   0.00000  Uiso   1.00
H219   H     0.75033   0.34326   0.87552   0.00000  Uiso   1.00
H220   H     0.89789   0.83717   0.59420   0.00000  Uiso   1.00
H221   H     0.20670   0.30145   0.72654   0.00000  Uiso   1.00
O222   O     0.66512   0.46881   0.82550   0.00000  Uiso   1.00
O223   O     0.85872   0.80485   0.45641   0.00000  Uiso   1.00
O224   O     0.26387   0.41397   0.63004   0.00000  Uiso   1.00
N225   N     0.72899   0.43691   0.72044   0.00000  Uiso   1.00
N226   N     0.86693   0.96375   0.45742   0.00000  Uiso   1.00
N227   N     0.15566   0.39779   0.58113   0.00000  Uiso   1.00
N228   N     0.75310   0.36308   0.82242   0.00000  Uiso   1.00
N229   N     0.89104   0.88992   0.55940   0.00000  Uiso   1.00
N230   N     0.17976   0.32396   0.68312   0.00000  Uiso   1.00
C231   C     0.41507   0.77270   0.07738   0.00000  Uiso   1.00
C232   C     0.36968   0.79992   0.14173   0.00000  Uiso   1.00
C233   C     0.31809   0.86393   0.13903   0.00000  Uiso   1.00
C234   C     0.28239   0.87913   0.20385   0.00000  Uiso   1.00
C235   C     0.20956   0.92854   0.29385   0.00000  Uiso   1.00
C236   C     0.40769   0.66951   0.06924   0.00000  Uiso   1.00
C237   C     0.38806   0.62388   0.00559   0.00000  Uiso   1.00
C238   C     0.38437   0.52929   0.00939   0.00000  Uiso   1.00
C239   C     0.37058   0.37624   0.98684   0.00000  Uiso   1.00
C240   C     0.48726   0.78914   0.10334   0.00000  Uiso   1.00
C241   C     0.53454   0.84408   0.06835   0.00000  Uiso   1.00
C242   C     0.59784   0.85020   0.10086   0.00000  Uiso   1.00
C243   C     0.70759   0.88290   0.13126   0.00000  Uiso   1.00
C244   C     0.44342   0.68586   0.19731   0.00000  Uiso   1.00
C245   C     0.38508   0.75275   0.20687   0.00000  Uiso   1.00
C246   C     0.34946   0.76786   0.27171   0.00000  Uiso   1.00
C247   C     0.29782   0.83188   0.26911   0.00000  Uiso   1.00
C248   C     0.42309   0.62235   0.13438   0.00000  Uiso   1.00
C249   C     0.41943   0.52781   0.13828   0.00000  Uiso   1.00
C250   C     0.39979   0.48204   0.07465   0.00000  Uiso   1.00
C251   C     0.50266   0.74198   0.16849   0.00000  Uiso   1.00
C252   C     0.56590   0.74801   0.20105   0.00000  Uiso   1.00
C253   C     0.61326   0.80295   0.16612   0.00000  Uiso   1.00
H254   H     0.40308   0.80941   0.02666   0.00000  Uiso   1.00
H255   H     0.30619   0.90041   0.08860   0.00000  Uiso   1.00
H256   H     0.37615   0.66039   0.95519   0.00000  Uiso   1.00
H257   H     0.52260   0.88057   0.01795   0.00000  Uiso   1.00
H258   H     0.20553   0.98047   0.18599   0.00000  Uiso   1.00
H259   H     0.35309   0.47439   0.90467   0.00000  Uiso   1.00
H260   H     0.66190   0.93866   0.03701   0.00000  Uiso   1.00
H261   H     0.45541   0.64914   0.24802   0.00000  Uiso   1.00
H262   H     0.36138   0.73135   0.32211   0.00000  Uiso   1.00
H263   H     0.43135   0.49134   0.18870   0.00000  Uiso   1.00
H264   H     0.57780   0.71151   0.25146   0.00000  Uiso   1.00
H265   H     0.25033   0.84326   0.37552   0.00000  Uiso   1.00
H266   H     0.39789   0.33717   0.09420   0.00000  Uiso   1.00
H267   H     0.70670   0.80145   0.22654   0.00000  Uiso   1.00
O268   O     0.16512   0.96881   0.32550   0.00000  Uiso   1.00
O269   O     0.35872   0.30485   0.95641   0.00000  Uiso   1.00
O270   O     0.76387   0.91397   0.13004   0.00000  Uiso   1.00
N271   N     0.22899   0.93691   0.22044   0.00000  Uiso   1.00
N272   N     0.36693   0.46375   0.95742   0.00000  Uiso   1.00
N273   N     0.65566   0.89779   0.08113   0.00000  Uiso   1.00
N274   N     0.25310   0.86308   0.32242   0.00000  Uiso   1.00
N275   N     0.39104   0.38992   0.05940   0.00000  Uiso   1.00
N276   N     0.67976   0.82396   0.18312   0.00000  Uiso   1.00
C277   C     0.08493   0.72730   0.57738   0.00000  Uiso   1.00
C278   C     0.13032   0.70008   0.64173   0.00000  Uiso   1.00
C279   C     0.18191   0.63607   0.63903   0.00000  Uiso   1.00
C280   C     0.21761   0.62087   0.70385   0.00000  Uiso   1.00
C281   C     0.29044   0.57146   0.79385   0.00000  Uiso   1.00
C282   C     0.09231   0.83049   0.56924   0.00000  Uiso   1.00
C283   C     0.11194   0.87612   0.50559   0.00000  Uiso   1.00
C284   C     0.11563   0.97071   0.50939   0.00000  Uiso   1.00
C285   C     0.12942   0.12376   0.48684   0.00000  Uiso   1.00
C286   C     0.01274   0.71086   0.60334   0.00000  Uiso   1.00
C287   C     0.96546   0.65592   0.56835   0.00000  Uiso   1.00
C288   C     0.90216   0.64980   0.60086   0.00000  Uiso   1.00
C289   C     0.79241   0.61710   0.63126   0.00000  Uiso   1.00
C290   C     0.05658   0.81414   0.69731   0.00000  Uiso   1.00
C291   C     0.11492   0.74725   0.70687   0.00000  Uiso   1.00
C292   C     0.15054   0.73214   0.77171   0.00000  Uiso   1.00
C293   C     0.20218   0.66812   0.76911   0.00000  Uiso   1.00
C294   C     0.07691   0.87765   0.63438   0.00000  Uiso   1.00
C295   C     0.08057   0.97219   0.63828   0.00000  Uiso   1.00
C296   C     0.10021   0.01796   0.57465   0.00000  Uiso   1.00
C297   C     0.99734   0.75802   0.66849   0.00000  Uiso   1.00
C298   C     0.93410   0.75199   0.70105   0.00000  Uiso   1.00
C299   C     0.88674   0.69705   0.66612   0.00000  Uiso   1.00
H300   H     0.09692   0.69059   0.52666   0.00000  Uiso   1.00
H301   H     0.19381   0.59959   0.58860   0.00000  Uiso   1.00
H302   H     0.12385   0.83961   0.45519   0.00000  Uiso   1.00
H303   H     0.97740   0.61943   0.51795   0.00000  Uiso   1.00
H304   H     0.29447   0.51953   0.68599   0.00000  Uiso   1.00
H305   H     0.14691   0.02561   0.40467   0.00000  Uiso   1.00
H306   H     0.83810   0.56134   0.53701   0.00000  Uiso   1.00
H307   H     0.04459   0.85086   0.74802   0.00000  Uiso   1.00
H308   H     0.13862   0.76865   0.82211   0.00000  Uiso   1.00
H309   H     0.06865   0.00866   0.68870   0.00000  Uiso   1.00
H310   H     0.92220   0.78849   0.75146   0.00000  Uiso   1.00
H311   H     0.24967   0.65674   0.87552   0.00000  Uiso   1.00
H312   H     0.10211   0.16283   0.59420   0.00000  Uiso   1.00
H313   H     0.79330   0.69855   0.72654   0.00000  Uiso   1.00
O314   O     0.33488   0.53119   0.82550   0.00000  Uiso   1.00
O315   O     0.14128   0.19515   0.45641   0.00000  Uiso   1.00
O316   O     0.73613   0.58603   0.63004   0.00000  Uiso   1.00
N317   N     0.27101   0.56309   0.72044   0.00000  Uiso   1.00
N318   N     0.13307   0.03625   0.45742   0.00000  Uiso   1.00
N319   N     0.84434   0.60221   0.58113   0.00000  Uiso   1.00
N320   N     0.24690   0.63692   0.82242   0.00000  Uiso   1.00
N321   N     0.10896   0.11008   0.55940   0.00000  Uiso   1.00
N322   N     0.82024   0.67604   0.68312   0.00000  Uiso   1.00
C323   C     0.58493   0.22730   0.07738   0.00000  Uiso   1.00
C324   C     0.63032   0.20008   0.14173   0.00000  Uiso   1.00
C325   C     0.68191   0.13607   0.13903   0.00000  Uiso   1.00
C326   C     0.71761   0.12087   0.20385   0.00000  Uiso   1.00
C327   C     0.79044   0.07146   0.29385   0.00000  Uiso   1.00
C328   C     0.59231   0.33049   0.06924   0.00000  Uiso   1.00
C329   C     0.61194   0.37612   0.00559   0.00000  Uiso   1.00
C330   C     0.61563   0.47071   0.00939   0.00000  Uiso   1.00
C331   C     0.62942   0.62376   0.98684   0.00000  Uiso   1.00
C332   C     0.51274   0.21086   0.10334   0.00000  Uiso   1.00
C333   C     0.46546   0.15592   0.06835   0.00000  Uiso   1.00
C334   C     0.40216   0.14980   0.10086   0.00000  Uiso   1.00
C335   C     0.29241   0.11710   0.13126   0.00000  Uiso   1.00
C336   C     0.55658   0.31414   0.19731   0.00000  Uiso   1.00
C337   C     0.61492   0.24725   0.20687   0.00000  Uiso   1.00
C338   C     0.65054   0.23214   0.27171   0.00000  Uiso   1.00
C339   C     0.70218   0.16812   0.26911   0.00000  Uiso   1.00
C340   C     0.57691   0.37765   0.13438   0.00000  Uiso   1.00
C341   C     0.58057   0.47219   0.13828   0.00000  Uiso   1.00
C342   C     0.60021   0.51796   0.07465   0.00000  Uiso   1.00
C343   C     0.49734   0.25802   0.16849   0.00000  Uiso   1.00
C344   C     0.43410   0.25199   0.20105   0.00000  Uiso   1.00
C345   C     0.38674   0.19705   0.16612   0.00000  Uiso   1.00
H346   H     0.59692   0.19059   0.02666   0.00000  Uiso   1.00
H347   H     0.69381   0.09959   0.08860   0.00000  Uiso   1.00
H348   H     0.62385   0.33961   0.95519   0.00000  Uiso   1.00
H349   H     0.47740   0.11943   0.01795   0.00000  Uiso   1.00
H350   H     0.79447   0.01953   0.18599   0.00000  Uiso   1.00
H351   H     0.64691   0.52561   0.90467   0.00000  Uiso   1.00
H352   H     0.33810   0.06134   0.03701   0.00000  Uiso   1.00
H353   H     0.54459   0.35086   0.24802   0.00000  Uiso   1.00
H354   H     0.63862   0.26865   0.32211   0.00000  Uiso   1.00
H355   H     0.56865   0.50866   0.18870   0.00000  Uiso   1.00
H356   H     0.42220   0.28849   0.25146   0.00000  Uiso   1.00
H357   H     0.74967   0.15674   0.37552   0.00000  Uiso   1.00
H358   H     0.60211   0.66283   0.09420   0.00000  Uiso   1.00
H359   H     0.29330   0.19855   0.22654   0.00000  Uiso   1.00
O360   O     0.83488   0.03119   0.32550   0.00000  Uiso   1.00
O361   O     0.64128   0.69515   0.95641   0.00000  Uiso   1.00
O362   O     0.23613   0.08603   0.13004   0.00000  Uiso   1.00
N363   N     0.77101   0.06309   0.22044   0.00000  Uiso   1.00
N364   N     0.63307   0.53625   0.95742   0.00000  Uiso   1.00
N365   N     0.34434   0.10221   0.08113   0.00000  Uiso   1.00
N366   N     0.74690   0.13692   0.32242   0.00000  Uiso   1.00
N367   N     0.60896   0.61008   0.05940   0.00000  Uiso   1.00
N368   N     0.32024   0.17604   0.18312   0.00000  Uiso   1.00
