data_job_02235
_audit_creation_date              2018-12-19
_audit_creation_method            'Materials Studio'
_symmetry_space_group_name_H-M    'P1'
_symmetry_Int_Tables_number       1
_symmetry_cell_setting            triclinic
loop_
_symmetry_equiv_pos_as_xyz
  x,y,z
_cell_length_a                    12.6589
_cell_length_b                    20.4096
_cell_length_c                    10.8173
_cell_angle_alpha                 90.0000
_cell_angle_beta                  90.0000
_cell_angle_gamma                 90.0000
loop_
_atom_site_label
_atom_site_type_symbol
_atom_site_fract_x
_atom_site_fract_y
_atom_site_fract_z
_atom_site_U_iso_or_equiv
_atom_site_adp_type
_atom_site_occupancy
C1     C     0.16199   0.43022   0.85767   0.00000  Uiso   1.00
C2     C     0.26476   0.42347   0.78522   0.00000  Uiso   1.00
C3     C     0.27695   0.43454   0.65945   0.00000  Uiso   1.00
C4     C     0.37737   0.42571   0.61061   0.00000  Uiso   1.00
C5     C     0.52398   0.41812   0.48679   0.00000  Uiso   1.00
C6     C     0.14387   0.36418   0.92012   0.00000  Uiso   1.00
C7     C     0.05442   0.32542   0.90779   0.00000  Uiso   1.00
C8     C     0.05307   0.26668   0.97253   0.00000  Uiso   1.00
C9     C     0.01197   0.16708   0.05822   0.00000  Uiso   1.00
C10    C     0.18470   0.47875   0.96149   0.00000  Uiso   1.00
C11    C     0.12957   0.53631   0.98396   0.00000  Uiso   1.00
C12    C     0.16259   0.57403   0.08355   0.00000  Uiso   1.00
C13    C     0.18489   0.65231   0.23347   0.00000  Uiso   1.00
C14    C     0.31865   0.39485   0.99459   0.00000  Uiso   1.00
C15    C     0.34984   0.40426   0.85960   0.00000  Uiso   1.00
C16    C     0.45027   0.39541   0.81094   0.00000  Uiso   1.00
C17    C     0.46262   0.40647   0.68511   0.00000  Uiso   1.00
C18    C     0.22895   0.34497   0.99450   0.00000  Uiso   1.00
C19    C     0.22774   0.28628   0.05928   0.00000  Uiso   1.00
C20    C     0.13831   0.24743   0.04704   0.00000  Uiso   1.00
C21    C     0.26979   0.45954   0.03586   0.00000  Uiso   1.00
C22    C     0.30290   0.49718   0.13545   0.00000  Uiso   1.00
C23    C     0.24783   0.55478   0.15806   0.00000  Uiso   1.00
H24    H     0.09574   0.44517   0.79977   0.00000  Uiso   1.00
H25    H     0.21108   0.44940   0.60192   0.00000  Uiso   1.00
H26    H     0.98858   0.34030   0.85024   0.00000  Uiso   1.00
H27    H     0.06373   0.55116   0.92639   0.00000  Uiso   1.00
H28    H     0.37647   0.44560   0.41536   0.00000  Uiso   1.00
H29    H     0.90730   0.21556   0.93898   0.00000  Uiso   1.00
H30    H     0.06575   0.66020   0.09957   0.00000  Uiso   1.00
H31    H     0.38489   0.37989   0.05250   0.00000  Uiso   1.00
H32    H     0.51611   0.38054   0.86851   0.00000  Uiso   1.00
H33    H     0.29360   0.27143   0.11683   0.00000  Uiso   1.00
H34    H     0.36875   0.48230   0.19298   0.00000  Uiso   1.00
H35    H     0.62404   0.38970   0.63173   0.00000  Uiso   1.00
H36    H     0.15486   0.15966   0.15536   0.00000  Uiso   1.00
H37    H     0.31332   0.60430   0.31594   0.00000  Uiso   1.00
O38    O     0.58134   0.41923   0.39795   0.00000  Uiso   1.00
O39    O     0.96579   0.11744   0.08493   0.00000  Uiso   1.00
O40    O     0.17369   0.70080   0.29561   0.00000  Uiso   1.00
N41    N     0.41673   0.43237   0.49154   0.00000  Uiso   1.00
N42    N     0.97809   0.21729   0.98107   0.00000  Uiso   1.00
N43    N     0.12622   0.63298   0.13123   0.00000  Uiso   1.00
N44    N     0.54995   0.40229   0.60797   0.00000  Uiso   1.00
N45    N     0.11130   0.18721   0.09750   0.00000  Uiso   1.00
N46    N     0.25943   0.60291   0.24766   0.00000  Uiso   1.00
C47    C     0.83801   0.56978   0.85767   0.00000  Uiso   1.00
C48    C     0.73524   0.57653   0.78522   0.00000  Uiso   1.00
C49    C     0.72305   0.56546   0.65945   0.00000  Uiso   1.00
C50    C     0.62263   0.57429   0.61061   0.00000  Uiso   1.00
C51    C     0.47602   0.58188   0.48679   0.00000  Uiso   1.00
C52    C     0.85613   0.63582   0.92012   0.00000  Uiso   1.00
C53    C     0.94558   0.67458   0.90779   0.00000  Uiso   1.00
C54    C     0.94693   0.73332   0.97253   0.00000  Uiso   1.00
C55    C     0.98803   0.83292   0.05822   0.00000  Uiso   1.00
C56    C     0.81530   0.52125   0.96149   0.00000  Uiso   1.00
C57    C     0.87043   0.46369   0.98396   0.00000  Uiso   1.00
C58    C     0.83741   0.42597   0.08355   0.00000  Uiso   1.00
C59    C     0.81511   0.34769   0.23347   0.00000  Uiso   1.00
C60    C     0.68135   0.60515   0.99459   0.00000  Uiso   1.00
C61    C     0.65016   0.59574   0.85960   0.00000  Uiso   1.00
C62    C     0.54973   0.60459   0.81094   0.00000  Uiso   1.00
C63    C     0.53738   0.59353   0.68511   0.00000  Uiso   1.00
C64    C     0.77105   0.65503   0.99450   0.00000  Uiso   1.00
C65    C     0.77226   0.71372   0.05928   0.00000  Uiso   1.00
C66    C     0.86169   0.75257   0.04704   0.00000  Uiso   1.00
C67    C     0.73021   0.54046   0.03586   0.00000  Uiso   1.00
C68    C     0.69710   0.50282   0.13545   0.00000  Uiso   1.00
C69    C     0.75217   0.44522   0.15806   0.00000  Uiso   1.00
H70    H     0.90426   0.55483   0.79977   0.00000  Uiso   1.00
H71    H     0.78892   0.55060   0.60192   0.00000  Uiso   1.00
H72    H     0.01142   0.65970   0.85024   0.00000  Uiso   1.00
H73    H     0.93627   0.44884   0.92639   0.00000  Uiso   1.00
H74    H     0.62353   0.55440   0.41536   0.00000  Uiso   1.00
H75    H     0.09270   0.78444   0.93898   0.00000  Uiso   1.00
H76    H     0.93425   0.33980   0.09957   0.00000  Uiso   1.00
H77    H     0.61511   0.62011   0.05250   0.00000  Uiso   1.00
H78    H     0.48389   0.61946   0.86851   0.00000  Uiso   1.00
H79    H     0.70640   0.72857   0.11683   0.00000  Uiso   1.00
H80    H     0.63125   0.51770   0.19298   0.00000  Uiso   1.00
H81    H     0.37596   0.61030   0.63173   0.00000  Uiso   1.00
H82    H     0.84514   0.84034   0.15536   0.00000  Uiso   1.00
H83    H     0.68668   0.39570   0.31594   0.00000  Uiso   1.00
O84    O     0.41866   0.58077   0.39795   0.00000  Uiso   1.00
O85    O     0.03421   0.88256   0.08493   0.00000  Uiso   1.00
O86    O     0.82631   0.29920   0.29561   0.00000  Uiso   1.00
N87    N     0.58327   0.56763   0.49154   0.00000  Uiso   1.00
N88    N     0.02191   0.78271   0.98107   0.00000  Uiso   1.00
N89    N     0.87378   0.36702   0.13123   0.00000  Uiso   1.00
N90    N     0.45005   0.59771   0.60797   0.00000  Uiso   1.00
N91    N     0.88870   0.81279   0.09750   0.00000  Uiso   1.00
N92    N     0.74057   0.39709   0.24766   0.00000  Uiso   1.00
C93    C     0.16199   0.06978   0.35767   0.00000  Uiso   1.00
C94    C     0.26476   0.07653   0.28522   0.00000  Uiso   1.00
C95    C     0.27695   0.06546   0.15945   0.00000  Uiso   1.00
C96    C     0.37737   0.07429   0.11061   0.00000  Uiso   1.00
C97    C     0.52398   0.08188   0.98679   0.00000  Uiso   1.00
C98    C     0.14387   0.13582   0.42012   0.00000  Uiso   1.00
C99    C     0.05442   0.17458   0.40779   0.00000  Uiso   1.00
C100   C     0.05307   0.23332   0.47253   0.00000  Uiso   1.00
C101   C     0.01197   0.33292   0.55822   0.00000  Uiso   1.00
C102   C     0.18470   0.02125   0.46149   0.00000  Uiso   1.00
C103   C     0.12957   0.96369   0.48396   0.00000  Uiso   1.00
C104   C     0.16259   0.92597   0.58355   0.00000  Uiso   1.00
C105   C     0.18489   0.84769   0.73347   0.00000  Uiso   1.00
C106   C     0.31865   0.10515   0.49459   0.00000  Uiso   1.00
C107   C     0.34984   0.09574   0.35960   0.00000  Uiso   1.00
C108   C     0.45027   0.10459   0.31094   0.00000  Uiso   1.00
C109   C     0.46262   0.09353   0.18511   0.00000  Uiso   1.00
C110   C     0.22895   0.15503   0.49450   0.00000  Uiso   1.00
C111   C     0.22774   0.21372   0.55928   0.00000  Uiso   1.00
C112   C     0.13831   0.25257   0.54704   0.00000  Uiso   1.00
C113   C     0.26979   0.04046   0.53586   0.00000  Uiso   1.00
C114   C     0.30290   0.00282   0.63545   0.00000  Uiso   1.00
C115   C     0.24783   0.94522   0.65806   0.00000  Uiso   1.00
H116   H     0.09574   0.05483   0.29977   0.00000  Uiso   1.00
H117   H     0.21108   0.05060   0.10192   0.00000  Uiso   1.00
H118   H     0.98858   0.15970   0.35024   0.00000  Uiso   1.00
H119   H     0.06373   0.94884   0.42639   0.00000  Uiso   1.00
H120   H     0.37647   0.05440   0.91536   0.00000  Uiso   1.00
H121   H     0.90730   0.28444   0.43898   0.00000  Uiso   1.00
H122   H     0.06575   0.83980   0.59957   0.00000  Uiso   1.00
H123   H     0.38489   0.12011   0.55250   0.00000  Uiso   1.00
H124   H     0.51611   0.11946   0.36851   0.00000  Uiso   1.00
H125   H     0.29360   0.22857   0.61683   0.00000  Uiso   1.00
H126   H     0.36875   0.01770   0.69298   0.00000  Uiso   1.00
H127   H     0.62404   0.11030   0.13173   0.00000  Uiso   1.00
H128   H     0.15486   0.34034   0.65536   0.00000  Uiso   1.00
H129   H     0.31332   0.89570   0.81594   0.00000  Uiso   1.00
O130   O     0.58134   0.08077   0.89795   0.00000  Uiso   1.00
O131   O     0.96579   0.38256   0.58493   0.00000  Uiso   1.00
O132   O     0.17369   0.79920   0.79561   0.00000  Uiso   1.00
N133   N     0.41673   0.06763   0.99154   0.00000  Uiso   1.00
N134   N     0.97809   0.28271   0.48107   0.00000  Uiso   1.00
N135   N     0.12622   0.86702   0.63123   0.00000  Uiso   1.00
N136   N     0.54995   0.09771   0.10797   0.00000  Uiso   1.00
N137   N     0.11130   0.31279   0.59750   0.00000  Uiso   1.00
N138   N     0.25943   0.89709   0.74766   0.00000  Uiso   1.00
C139   C     0.83801   0.93022   0.35767   0.00000  Uiso   1.00
C140   C     0.73524   0.92347   0.28522   0.00000  Uiso   1.00
C141   C     0.72305   0.93454   0.15945   0.00000  Uiso   1.00
C142   C     0.62263   0.92571   0.11061   0.00000  Uiso   1.00
C143   C     0.47602   0.91812   0.98679   0.00000  Uiso   1.00
C144   C     0.85613   0.86418   0.42012   0.00000  Uiso   1.00
C145   C     0.94558   0.82542   0.40779   0.00000  Uiso   1.00
C146   C     0.94693   0.76668   0.47253   0.00000  Uiso   1.00
C147   C     0.98803   0.66708   0.55822   0.00000  Uiso   1.00
C148   C     0.81530   0.97875   0.46149   0.00000  Uiso   1.00
C149   C     0.87043   0.03631   0.48396   0.00000  Uiso   1.00
C150   C     0.83741   0.07403   0.58355   0.00000  Uiso   1.00
C151   C     0.81511   0.15231   0.73347   0.00000  Uiso   1.00
C152   C     0.68135   0.89485   0.49459   0.00000  Uiso   1.00
C153   C     0.65016   0.90426   0.35960   0.00000  Uiso   1.00
C154   C     0.54973   0.89541   0.31094   0.00000  Uiso   1.00
C155   C     0.53738   0.90647   0.18511   0.00000  Uiso   1.00
C156   C     0.77105   0.84497   0.49450   0.00000  Uiso   1.00
C157   C     0.77226   0.78628   0.55928   0.00000  Uiso   1.00
C158   C     0.86169   0.74743   0.54704   0.00000  Uiso   1.00
C159   C     0.73021   0.95954   0.53586   0.00000  Uiso   1.00
C160   C     0.69710   0.99718   0.63545   0.00000  Uiso   1.00
C161   C     0.75217   0.05478   0.65806   0.00000  Uiso   1.00
H162   H     0.90426   0.94517   0.29977   0.00000  Uiso   1.00
H163   H     0.78892   0.94940   0.10192   0.00000  Uiso   1.00
H164   H     0.01142   0.84030   0.35024   0.00000  Uiso   1.00
H165   H     0.93627   0.05116   0.42639   0.00000  Uiso   1.00
H166   H     0.62353   0.94560   0.91536   0.00000  Uiso   1.00
H167   H     0.09270   0.71556   0.43898   0.00000  Uiso   1.00
H168   H     0.93425   0.16020   0.59957   0.00000  Uiso   1.00
H169   H     0.61511   0.87989   0.55250   0.00000  Uiso   1.00
H170   H     0.48389   0.88054   0.36851   0.00000  Uiso   1.00
H171   H     0.70640   0.77143   0.61683   0.00000  Uiso   1.00
H172   H     0.63125   0.98230   0.69298   0.00000  Uiso   1.00
H173   H     0.37596   0.88970   0.13173   0.00000  Uiso   1.00
H174   H     0.84514   0.65966   0.65536   0.00000  Uiso   1.00
H175   H     0.68668   0.10430   0.81594   0.00000  Uiso   1.00
O176   O     0.41866   0.91923   0.89795   0.00000  Uiso   1.00
O177   O     0.03421   0.61744   0.58493   0.00000  Uiso   1.00
O178   O     0.82631   0.20080   0.79561   0.00000  Uiso   1.00
N179   N     0.58327   0.93237   0.99154   0.00000  Uiso   1.00
N180   N     0.02191   0.71729   0.48107   0.00000  Uiso   1.00
N181   N     0.87378   0.13298   0.63123   0.00000  Uiso   1.00
N182   N     0.45005   0.90229   0.10797   0.00000  Uiso   1.00
N183   N     0.88870   0.68721   0.59750   0.00000  Uiso   1.00
N184   N     0.74057   0.10291   0.74766   0.00000  Uiso   1.00
