data_job_01211
_audit_creation_date              2018-12-19
_audit_creation_method            'Materials Studio'
_symmetry_space_group_name_H-M    'P1'
_symmetry_Int_Tables_number       1
_symmetry_cell_setting            triclinic
loop_
_symmetry_equiv_pos_as_xyz
  x,y,z
_cell_length_a                    16.9095
_cell_length_b                    16.4639
_cell_length_c                    15.4687
_cell_angle_alpha                 90.0000
_cell_angle_beta                  90.0000
_cell_angle_gamma                 90.0000
loop_
_atom_site_label
_atom_site_type_symbol
_atom_site_fract_x
_atom_site_fract_y
_atom_site_fract_z
_atom_site_U_iso_or_equiv
_atom_site_adp_type
_atom_site_occupancy
C1     C     0.65381   0.96319   0.45528   0.00000  Uiso   1.00
C2     C     0.73093   0.95487   0.50560   0.00000  Uiso   1.00
C3     C     0.74050   0.91326   0.58292   0.00000  Uiso   1.00
C4     C     0.81579   0.91276   0.61873   0.00000  Uiso   1.00
C5     C     0.92589   0.89383   0.70300   0.00000  Uiso   1.00
C6     C     0.63974   0.05414   0.44474   0.00000  Uiso   1.00
C7     C     0.57263   0.09600   0.47089   0.00000  Uiso   1.00
C8     C     0.57115   0.17906   0.45546   0.00000  Uiso   1.00
C9     C     0.53965   0.31425   0.44519   0.00000  Uiso   1.00
C10    C     0.67072   0.93066   0.36485   0.00000  Uiso   1.00
C11    C     0.62965   0.86870   0.32380   0.00000  Uiso   1.00
C12    C     0.65424   0.84781   0.24110   0.00000  Uiso   1.00
C13    C     0.67084   0.79127   0.10678   0.00000  Uiso   1.00
C14    C     0.77050   0.03628   0.38138   0.00000  Uiso   1.00
C15    C     0.79431   0.99457   0.46546   0.00000  Uiso   1.00
C16    C     0.86960   0.99412   0.50117   0.00000  Uiso   1.00
C17    C     0.87928   0.95252   0.57852   0.00000  Uiso   1.00
C18    C     0.70312   0.09384   0.40461   0.00000  Uiso   1.00
C19    C     0.70173   0.17686   0.38913   0.00000  Uiso   1.00
C20    C     0.63464   0.21884   0.41525   0.00000  Uiso   1.00
C21    C     0.73410   0.97036   0.32471   0.00000  Uiso   1.00
C22    C     0.75876   0.94956   0.24205   0.00000  Uiso   1.00
C23    C     0.71773   0.88758   0.20089   0.00000  Uiso   1.00
H24    H     0.60447   0.93229   0.48652   0.00000  Uiso   1.00
H25    H     0.69144   0.88255   0.61396   0.00000  Uiso   1.00
H26    H     0.52359   0.06526   0.50194   0.00000  Uiso   1.00
H27    H     0.58061   0.83799   0.35488   0.00000  Uiso   1.00
H28    H     0.81581   0.84494   0.73757   0.00000  Uiso   1.00
H29    H     0.46188   0.23019   0.50133   0.00000  Uiso   1.00
H30    H     0.58211   0.75095   0.19123   0.00000  Uiso   1.00
H31    H     0.81984   0.06719   0.35013   0.00000  Uiso   1.00
H32    H     0.91864   0.02485   0.47009   0.00000  Uiso   1.00
H33    H     0.75079   0.20756   0.35807   0.00000  Uiso   1.00
H34    H     0.80780   0.98030   0.21101   0.00000  Uiso   1.00
H35    H     0.00021   0.96044   0.62080   0.00000  Uiso   1.00
H36    H     0.64628   0.34569   0.38456   0.00000  Uiso   1.00
H37    H     0.76651   0.86645   0.07447   0.00000  Uiso   1.00
O38    O     0.96911   0.87243   0.76058   0.00000  Uiso   1.00
O39    O     0.50476   0.37785   0.45062   0.00000  Uiso   1.00
O40    O     0.66250   0.74910   0.04379   0.00000  Uiso   1.00
N41    N     0.84565   0.87792   0.69362   0.00000  Uiso   1.00
N42    N     0.51476   0.23811   0.47276   0.00000  Uiso   1.00
N43    N     0.62714   0.79008   0.18284   0.00000  Uiso   1.00
N44    N     0.94488   0.94007   0.63079   0.00000  Uiso   1.00
N45    N     0.61398   0.30025   0.40993   0.00000  Uiso   1.00
N46    N     0.72637   0.85222   0.12000   0.00000  Uiso   1.00
C47    C     0.84619   0.03681   0.95528   0.00000  Uiso   1.00
C48    C     0.76907   0.04513   0.00560   0.00000  Uiso   1.00
C49    C     0.75950   0.08674   0.08292   0.00000  Uiso   1.00
C50    C     0.68421   0.08724   0.11873   0.00000  Uiso   1.00
C51    C     0.57411   0.10617   0.20300   0.00000  Uiso   1.00
C52    C     0.86026   0.94586   0.94474   0.00000  Uiso   1.00
C53    C     0.92737   0.90400   0.97089   0.00000  Uiso   1.00
C54    C     0.92885   0.82094   0.95546   0.00000  Uiso   1.00
C55    C     0.96035   0.68575   0.94519   0.00000  Uiso   1.00
C56    C     0.82928   0.06934   0.86485   0.00000  Uiso   1.00
C57    C     0.87035   0.13130   0.82380   0.00000  Uiso   1.00
C58    C     0.84576   0.15219   0.74110   0.00000  Uiso   1.00
C59    C     0.82916   0.20873   0.60678   0.00000  Uiso   1.00
C60    C     0.72950   0.96372   0.88138   0.00000  Uiso   1.00
C61    C     0.70569   0.00543   0.96546   0.00000  Uiso   1.00
C62    C     0.63040   0.00588   0.00117   0.00000  Uiso   1.00
C63    C     0.62072   0.04748   0.07852   0.00000  Uiso   1.00
C64    C     0.79688   0.90616   0.90461   0.00000  Uiso   1.00
C65    C     0.79827   0.82314   0.88913   0.00000  Uiso   1.00
C66    C     0.86536   0.78116   0.91525   0.00000  Uiso   1.00
C67    C     0.76590   0.02964   0.82471   0.00000  Uiso   1.00
C68    C     0.74124   0.05044   0.74205   0.00000  Uiso   1.00
C69    C     0.78227   0.11242   0.70089   0.00000  Uiso   1.00
H70    H     0.89553   0.06771   0.98652   0.00000  Uiso   1.00
H71    H     0.80856   0.11745   0.11396   0.00000  Uiso   1.00
H72    H     0.97641   0.93474   0.00194   0.00000  Uiso   1.00
H73    H     0.91939   0.16201   0.85488   0.00000  Uiso   1.00
H74    H     0.68419   0.15506   0.23757   0.00000  Uiso   1.00
H75    H     0.03812   0.76981   0.00133   0.00000  Uiso   1.00
H76    H     0.91789   0.24905   0.69123   0.00000  Uiso   1.00
H77    H     0.68016   0.93281   0.85013   0.00000  Uiso   1.00
H78    H     0.58136   0.97515   0.97009   0.00000  Uiso   1.00
H79    H     0.74921   0.79244   0.85807   0.00000  Uiso   1.00
H80    H     0.69220   0.01970   0.71101   0.00000  Uiso   1.00
H81    H     0.49979   0.03956   0.12080   0.00000  Uiso   1.00
H82    H     0.85372   0.65431   0.88456   0.00000  Uiso   1.00
H83    H     0.73349   0.13355   0.57447   0.00000  Uiso   1.00
O84    O     0.53089   0.12757   0.26058   0.00000  Uiso   1.00
O85    O     0.99524   0.62215   0.95062   0.00000  Uiso   1.00
O86    O     0.83750   0.25090   0.54379   0.00000  Uiso   1.00
N87    N     0.65435   0.12208   0.19362   0.00000  Uiso   1.00
N88    N     0.98524   0.76189   0.97276   0.00000  Uiso   1.00
N89    N     0.87286   0.20992   0.68284   0.00000  Uiso   1.00
N90    N     0.55512   0.05993   0.13079   0.00000  Uiso   1.00
N91    N     0.88602   0.69975   0.90993   0.00000  Uiso   1.00
N92    N     0.77363   0.14778   0.62000   0.00000  Uiso   1.00
C93    C     0.34619   0.46319   0.04472   0.00000  Uiso   1.00
C94    C     0.26907   0.45487   0.99440   0.00000  Uiso   1.00
C95    C     0.25950   0.41326   0.91708   0.00000  Uiso   1.00
C96    C     0.18421   0.41276   0.88127   0.00000  Uiso   1.00
C97    C     0.07411   0.39383   0.79700   0.00000  Uiso   1.00
C98    C     0.36026   0.55414   0.05526   0.00000  Uiso   1.00
C99    C     0.42737   0.59600   0.02911   0.00000  Uiso   1.00
C100   C     0.42885   0.67906   0.04454   0.00000  Uiso   1.00
C101   C     0.46035   0.81425   0.05481   0.00000  Uiso   1.00
C102   C     0.32928   0.43066   0.13515   0.00000  Uiso   1.00
C103   C     0.37035   0.36870   0.17620   0.00000  Uiso   1.00
C104   C     0.34576   0.34781   0.25890   0.00000  Uiso   1.00
C105   C     0.32916   0.29127   0.39322   0.00000  Uiso   1.00
C106   C     0.22950   0.53628   0.11862   0.00000  Uiso   1.00
C107   C     0.20569   0.49457   0.03454   0.00000  Uiso   1.00
C108   C     0.13040   0.49412   0.99883   0.00000  Uiso   1.00
C109   C     0.12072   0.45252   0.92148   0.00000  Uiso   1.00
C110   C     0.29688   0.59384   0.09539   0.00000  Uiso   1.00
C111   C     0.29827   0.67686   0.11087   0.00000  Uiso   1.00
C112   C     0.36536   0.71884   0.08475   0.00000  Uiso   1.00
C113   C     0.26590   0.47036   0.17529   0.00000  Uiso   1.00
C114   C     0.24124   0.44956   0.25795   0.00000  Uiso   1.00
C115   C     0.28227   0.38758   0.29911   0.00000  Uiso   1.00
H116   H     0.39553   0.43229   0.01348   0.00000  Uiso   1.00
H117   H     0.30856   0.38255   0.88604   0.00000  Uiso   1.00
H118   H     0.47641   0.56526   0.99806   0.00000  Uiso   1.00
H119   H     0.41939   0.33799   0.14512   0.00000  Uiso   1.00
H120   H     0.18419   0.34494   0.76243   0.00000  Uiso   1.00
H121   H     0.53812   0.73019   0.99867   0.00000  Uiso   1.00
H122   H     0.41789   0.25095   0.30877   0.00000  Uiso   1.00
H123   H     0.18016   0.56719   0.14987   0.00000  Uiso   1.00
H124   H     0.08136   0.52485   0.02991   0.00000  Uiso   1.00
H125   H     0.24921   0.70756   0.14193   0.00000  Uiso   1.00
H126   H     0.19220   0.48030   0.28899   0.00000  Uiso   1.00
H127   H     0.99979   0.46044   0.87920   0.00000  Uiso   1.00
H128   H     0.35372   0.84569   0.11544   0.00000  Uiso   1.00
H129   H     0.23349   0.36645   0.42553   0.00000  Uiso   1.00
O130   O     0.03089   0.37243   0.73942   0.00000  Uiso   1.00
O131   O     0.49524   0.87785   0.04938   0.00000  Uiso   1.00
O132   O     0.33750   0.24910   0.45621   0.00000  Uiso   1.00
N133   N     0.15435   0.37792   0.80638   0.00000  Uiso   1.00
N134   N     0.48524   0.73811   0.02724   0.00000  Uiso   1.00
N135   N     0.37286   0.29008   0.31716   0.00000  Uiso   1.00
N136   N     0.05512   0.44007   0.86921   0.00000  Uiso   1.00
N137   N     0.38602   0.80025   0.09007   0.00000  Uiso   1.00
N138   N     0.27363   0.35222   0.38000   0.00000  Uiso   1.00
C139   C     0.15381   0.53681   0.54472   0.00000  Uiso   1.00
C140   C     0.23093   0.54513   0.49440   0.00000  Uiso   1.00
C141   C     0.24050   0.58674   0.41708   0.00000  Uiso   1.00
C142   C     0.31579   0.58724   0.38127   0.00000  Uiso   1.00
C143   C     0.42589   0.60617   0.29700   0.00000  Uiso   1.00
C144   C     0.13974   0.44586   0.55526   0.00000  Uiso   1.00
C145   C     0.07263   0.40400   0.52911   0.00000  Uiso   1.00
C146   C     0.07115   0.32094   0.54454   0.00000  Uiso   1.00
C147   C     0.03965   0.18575   0.55481   0.00000  Uiso   1.00
C148   C     0.17072   0.56934   0.63515   0.00000  Uiso   1.00
C149   C     0.12965   0.63130   0.67620   0.00000  Uiso   1.00
C150   C     0.15424   0.65219   0.75890   0.00000  Uiso   1.00
C151   C     0.17084   0.70873   0.89322   0.00000  Uiso   1.00
C152   C     0.27050   0.46372   0.61862   0.00000  Uiso   1.00
C153   C     0.29431   0.50543   0.53454   0.00000  Uiso   1.00
C154   C     0.36960   0.50588   0.49883   0.00000  Uiso   1.00
C155   C     0.37928   0.54748   0.42148   0.00000  Uiso   1.00
C156   C     0.20312   0.40616   0.59539   0.00000  Uiso   1.00
C157   C     0.20173   0.32314   0.61087   0.00000  Uiso   1.00
C158   C     0.13464   0.28116   0.58475   0.00000  Uiso   1.00
C159   C     0.23410   0.52964   0.67529   0.00000  Uiso   1.00
C160   C     0.25876   0.55044   0.75795   0.00000  Uiso   1.00
C161   C     0.21773   0.61242   0.79911   0.00000  Uiso   1.00
H162   H     0.10447   0.56771   0.51348   0.00000  Uiso   1.00
H163   H     0.19144   0.61745   0.38604   0.00000  Uiso   1.00
H164   H     0.02359   0.43474   0.49806   0.00000  Uiso   1.00
H165   H     0.08061   0.66201   0.64512   0.00000  Uiso   1.00
H166   H     0.31581   0.65506   0.26243   0.00000  Uiso   1.00
H167   H     0.96188   0.26981   0.49867   0.00000  Uiso   1.00
H168   H     0.08211   0.74905   0.80877   0.00000  Uiso   1.00
H169   H     0.31984   0.43281   0.64987   0.00000  Uiso   1.00
H170   H     0.41864   0.47515   0.52991   0.00000  Uiso   1.00
H171   H     0.25079   0.29244   0.64193   0.00000  Uiso   1.00
H172   H     0.30780   0.51970   0.78899   0.00000  Uiso   1.00
H173   H     0.50021   0.53956   0.37920   0.00000  Uiso   1.00
H174   H     0.14628   0.15431   0.61544   0.00000  Uiso   1.00
H175   H     0.26651   0.63355   0.92553   0.00000  Uiso   1.00
O176   O     0.46911   0.62757   0.23942   0.00000  Uiso   1.00
O177   O     0.00476   0.12215   0.54938   0.00000  Uiso   1.00
O178   O     0.16250   0.75090   0.95621   0.00000  Uiso   1.00
N179   N     0.34565   0.62208   0.30638   0.00000  Uiso   1.00
N180   N     0.01476   0.26189   0.52724   0.00000  Uiso   1.00
N181   N     0.12714   0.70992   0.81716   0.00000  Uiso   1.00
N182   N     0.44488   0.55993   0.36921   0.00000  Uiso   1.00
N183   N     0.11398   0.19975   0.59007   0.00000  Uiso   1.00
N184   N     0.22637   0.64778   0.88000   0.00000  Uiso   1.00
C185   C     0.34619   0.03681   0.54472   0.00000  Uiso   1.00
C186   C     0.26907   0.04513   0.49440   0.00000  Uiso   1.00
C187   C     0.25950   0.08674   0.41708   0.00000  Uiso   1.00
C188   C     0.18421   0.08724   0.38127   0.00000  Uiso   1.00
C189   C     0.07411   0.10617   0.29700   0.00000  Uiso   1.00
C190   C     0.36026   0.94586   0.55526   0.00000  Uiso   1.00
C191   C     0.42737   0.90400   0.52911   0.00000  Uiso   1.00
C192   C     0.42885   0.82094   0.54454   0.00000  Uiso   1.00
C193   C     0.46035   0.68575   0.55481   0.00000  Uiso   1.00
C194   C     0.32928   0.06934   0.63515   0.00000  Uiso   1.00
C195   C     0.37035   0.13130   0.67620   0.00000  Uiso   1.00
C196   C     0.34576   0.15219   0.75890   0.00000  Uiso   1.00
C197   C     0.32916   0.20873   0.89322   0.00000  Uiso   1.00
C198   C     0.22950   0.96372   0.61862   0.00000  Uiso   1.00
C199   C     0.20569   0.00543   0.53454   0.00000  Uiso   1.00
C200   C     0.13040   0.00588   0.49883   0.00000  Uiso   1.00
C201   C     0.12072   0.04748   0.42148   0.00000  Uiso   1.00
C202   C     0.29688   0.90616   0.59539   0.00000  Uiso   1.00
C203   C     0.29827   0.82314   0.61087   0.00000  Uiso   1.00
C204   C     0.36536   0.78116   0.58475   0.00000  Uiso   1.00
C205   C     0.26590   0.02964   0.67529   0.00000  Uiso   1.00
C206   C     0.24124   0.05044   0.75795   0.00000  Uiso   1.00
C207   C     0.28227   0.11242   0.79911   0.00000  Uiso   1.00
H208   H     0.39553   0.06771   0.51348   0.00000  Uiso   1.00
H209   H     0.30856   0.11745   0.38604   0.00000  Uiso   1.00
H210   H     0.47641   0.93474   0.49806   0.00000  Uiso   1.00
H211   H     0.41939   0.16201   0.64512   0.00000  Uiso   1.00
H212   H     0.18419   0.15506   0.26243   0.00000  Uiso   1.00
H213   H     0.53812   0.76981   0.49867   0.00000  Uiso   1.00
H214   H     0.41789   0.24905   0.80877   0.00000  Uiso   1.00
H215   H     0.18016   0.93281   0.64987   0.00000  Uiso   1.00
H216   H     0.08136   0.97515   0.52991   0.00000  Uiso   1.00
H217   H     0.24921   0.79244   0.64193   0.00000  Uiso   1.00
H218   H     0.19220   0.01970   0.78899   0.00000  Uiso   1.00
H219   H     0.99979   0.03956   0.37920   0.00000  Uiso   1.00
H220   H     0.35372   0.65431   0.61544   0.00000  Uiso   1.00
H221   H     0.23349   0.13355   0.92553   0.00000  Uiso   1.00
O222   O     0.03089   0.12757   0.23942   0.00000  Uiso   1.00
O223   O     0.49524   0.62215   0.54938   0.00000  Uiso   1.00
O224   O     0.33750   0.25090   0.95621   0.00000  Uiso   1.00
N225   N     0.15435   0.12208   0.30638   0.00000  Uiso   1.00
N226   N     0.48524   0.76189   0.52724   0.00000  Uiso   1.00
N227   N     0.37286   0.20992   0.81716   0.00000  Uiso   1.00
N228   N     0.05512   0.05993   0.36921   0.00000  Uiso   1.00
N229   N     0.38602   0.69975   0.59007   0.00000  Uiso   1.00
N230   N     0.27363   0.14778   0.88000   0.00000  Uiso   1.00
C231   C     0.15381   0.96319   0.04472   0.00000  Uiso   1.00
C232   C     0.23093   0.95487   0.99440   0.00000  Uiso   1.00
C233   C     0.24050   0.91326   0.91708   0.00000  Uiso   1.00
C234   C     0.31579   0.91276   0.88127   0.00000  Uiso   1.00
C235   C     0.42589   0.89383   0.79700   0.00000  Uiso   1.00
C236   C     0.13974   0.05414   0.05526   0.00000  Uiso   1.00
C237   C     0.07263   0.09600   0.02911   0.00000  Uiso   1.00
C238   C     0.07115   0.17906   0.04454   0.00000  Uiso   1.00
C239   C     0.03965   0.31425   0.05481   0.00000  Uiso   1.00
C240   C     0.17072   0.93066   0.13515   0.00000  Uiso   1.00
C241   C     0.12965   0.86870   0.17620   0.00000  Uiso   1.00
C242   C     0.15424   0.84781   0.25890   0.00000  Uiso   1.00
C243   C     0.17084   0.79127   0.39322   0.00000  Uiso   1.00
C244   C     0.27050   0.03628   0.11862   0.00000  Uiso   1.00
C245   C     0.29431   0.99457   0.03454   0.00000  Uiso   1.00
C246   C     0.36960   0.99412   0.99883   0.00000  Uiso   1.00
C247   C     0.37928   0.95252   0.92148   0.00000  Uiso   1.00
C248   C     0.20312   0.09384   0.09539   0.00000  Uiso   1.00
C249   C     0.20173   0.17686   0.11087   0.00000  Uiso   1.00
C250   C     0.13464   0.21884   0.08475   0.00000  Uiso   1.00
C251   C     0.23410   0.97036   0.17529   0.00000  Uiso   1.00
C252   C     0.25876   0.94956   0.25795   0.00000  Uiso   1.00
C253   C     0.21773   0.88758   0.29911   0.00000  Uiso   1.00
H254   H     0.10447   0.93229   0.01348   0.00000  Uiso   1.00
H255   H     0.19144   0.88255   0.88604   0.00000  Uiso   1.00
H256   H     0.02359   0.06526   0.99806   0.00000  Uiso   1.00
H257   H     0.08061   0.83799   0.14512   0.00000  Uiso   1.00
H258   H     0.31581   0.84494   0.76243   0.00000  Uiso   1.00
H259   H     0.96188   0.23019   0.99867   0.00000  Uiso   1.00
H260   H     0.08211   0.75095   0.30877   0.00000  Uiso   1.00
H261   H     0.31984   0.06719   0.14987   0.00000  Uiso   1.00
H262   H     0.41864   0.02485   0.02991   0.00000  Uiso   1.00
H263   H     0.25079   0.20756   0.14193   0.00000  Uiso   1.00
H264   H     0.30780   0.98030   0.28899   0.00000  Uiso   1.00
H265   H     0.50021   0.96044   0.87920   0.00000  Uiso   1.00
H266   H     0.14628   0.34569   0.11544   0.00000  Uiso   1.00
H267   H     0.26651   0.86645   0.42553   0.00000  Uiso   1.00
O268   O     0.46911   0.87243   0.73942   0.00000  Uiso   1.00
O269   O     0.00476   0.37785   0.04938   0.00000  Uiso   1.00
O270   O     0.16250   0.74910   0.45621   0.00000  Uiso   1.00
N271   N     0.34565   0.87792   0.80638   0.00000  Uiso   1.00
N272   N     0.01476   0.23811   0.02724   0.00000  Uiso   1.00
N273   N     0.12714   0.79008   0.31716   0.00000  Uiso   1.00
N274   N     0.44488   0.94007   0.86921   0.00000  Uiso   1.00
N275   N     0.11398   0.30025   0.09007   0.00000  Uiso   1.00
N276   N     0.22637   0.85222   0.38000   0.00000  Uiso   1.00
C277   C     0.65381   0.53681   0.95528   0.00000  Uiso   1.00
C278   C     0.73093   0.54513   0.00560   0.00000  Uiso   1.00
C279   C     0.74050   0.58674   0.08292   0.00000  Uiso   1.00
C280   C     0.81579   0.58724   0.11873   0.00000  Uiso   1.00
C281   C     0.92589   0.60617   0.20300   0.00000  Uiso   1.00
C282   C     0.63974   0.44586   0.94474   0.00000  Uiso   1.00
C283   C     0.57263   0.40400   0.97089   0.00000  Uiso   1.00
C284   C     0.57115   0.32094   0.95546   0.00000  Uiso   1.00
C285   C     0.53965   0.18575   0.94519   0.00000  Uiso   1.00
C286   C     0.67072   0.56934   0.86485   0.00000  Uiso   1.00
C287   C     0.62965   0.63130   0.82380   0.00000  Uiso   1.00
C288   C     0.65424   0.65219   0.74110   0.00000  Uiso   1.00
C289   C     0.67084   0.70873   0.60678   0.00000  Uiso   1.00
C290   C     0.77050   0.46372   0.88138   0.00000  Uiso   1.00
C291   C     0.79431   0.50543   0.96546   0.00000  Uiso   1.00
C292   C     0.86960   0.50588   0.00117   0.00000  Uiso   1.00
C293   C     0.87928   0.54748   0.07852   0.00000  Uiso   1.00
C294   C     0.70312   0.40616   0.90461   0.00000  Uiso   1.00
C295   C     0.70173   0.32314   0.88913   0.00000  Uiso   1.00
C296   C     0.63464   0.28116   0.91525   0.00000  Uiso   1.00
C297   C     0.73410   0.52964   0.82471   0.00000  Uiso   1.00
C298   C     0.75876   0.55044   0.74205   0.00000  Uiso   1.00
C299   C     0.71773   0.61242   0.70089   0.00000  Uiso   1.00
H300   H     0.60447   0.56771   0.98652   0.00000  Uiso   1.00
H301   H     0.69144   0.61745   0.11396   0.00000  Uiso   1.00
H302   H     0.52359   0.43474   0.00194   0.00000  Uiso   1.00
H303   H     0.58061   0.66201   0.85488   0.00000  Uiso   1.00
H304   H     0.81581   0.65506   0.23757   0.00000  Uiso   1.00
H305   H     0.46188   0.26981   0.00133   0.00000  Uiso   1.00
H306   H     0.58211   0.74905   0.69123   0.00000  Uiso   1.00
H307   H     0.81984   0.43281   0.85013   0.00000  Uiso   1.00
H308   H     0.91864   0.47515   0.97009   0.00000  Uiso   1.00
H309   H     0.75079   0.29244   0.85807   0.00000  Uiso   1.00
H310   H     0.80780   0.51970   0.71101   0.00000  Uiso   1.00
H311   H     0.00021   0.53956   0.12080   0.00000  Uiso   1.00
H312   H     0.64628   0.15431   0.88456   0.00000  Uiso   1.00
H313   H     0.76651   0.63355   0.57447   0.00000  Uiso   1.00
O314   O     0.96911   0.62757   0.26058   0.00000  Uiso   1.00
O315   O     0.50476   0.12215   0.95062   0.00000  Uiso   1.00
O316   O     0.66250   0.75090   0.54379   0.00000  Uiso   1.00
N317   N     0.84565   0.62208   0.19362   0.00000  Uiso   1.00
N318   N     0.51476   0.26189   0.97276   0.00000  Uiso   1.00
N319   N     0.62714   0.70992   0.68284   0.00000  Uiso   1.00
N320   N     0.94488   0.55993   0.13079   0.00000  Uiso   1.00
N321   N     0.61398   0.19975   0.90993   0.00000  Uiso   1.00
N322   N     0.72637   0.64778   0.62000   0.00000  Uiso   1.00
C323   C     0.84619   0.46319   0.45528   0.00000  Uiso   1.00
C324   C     0.76907   0.45487   0.50560   0.00000  Uiso   1.00
C325   C     0.75950   0.41326   0.58292   0.00000  Uiso   1.00
C326   C     0.68421   0.41276   0.61873   0.00000  Uiso   1.00
C327   C     0.57411   0.39383   0.70300   0.00000  Uiso   1.00
C328   C     0.86026   0.55414   0.44474   0.00000  Uiso   1.00
C329   C     0.92737   0.59600   0.47089   0.00000  Uiso   1.00
C330   C     0.92885   0.67906   0.45546   0.00000  Uiso   1.00
C331   C     0.96035   0.81425   0.44519   0.00000  Uiso   1.00
C332   C     0.82928   0.43066   0.36485   0.00000  Uiso   1.00
C333   C     0.87035   0.36870   0.32380   0.00000  Uiso   1.00
C334   C     0.84576   0.34781   0.24110   0.00000  Uiso   1.00
C335   C     0.82916   0.29127   0.10678   0.00000  Uiso   1.00
C336   C     0.72950   0.53628   0.38138   0.00000  Uiso   1.00
C337   C     0.70569   0.49457   0.46546   0.00000  Uiso   1.00
C338   C     0.63040   0.49412   0.50117   0.00000  Uiso   1.00
C339   C     0.62072   0.45252   0.57852   0.00000  Uiso   1.00
C340   C     0.79688   0.59384   0.40461   0.00000  Uiso   1.00
C341   C     0.79827   0.67686   0.38913   0.00000  Uiso   1.00
C342   C     0.86536   0.71884   0.41525   0.00000  Uiso   1.00
C343   C     0.76590   0.47036   0.32471   0.00000  Uiso   1.00
C344   C     0.74124   0.44956   0.24205   0.00000  Uiso   1.00
C345   C     0.78227   0.38758   0.20089   0.00000  Uiso   1.00
H346   H     0.89553   0.43229   0.48652   0.00000  Uiso   1.00
H347   H     0.80856   0.38255   0.61396   0.00000  Uiso   1.00
H348   H     0.97641   0.56526   0.50194   0.00000  Uiso   1.00
H349   H     0.91939   0.33799   0.35488   0.00000  Uiso   1.00
H350   H     0.68419   0.34494   0.73757   0.00000  Uiso   1.00
H351   H     0.03812   0.73019   0.50133   0.00000  Uiso   1.00
H352   H     0.91789   0.25095   0.19123   0.00000  Uiso   1.00
H353   H     0.68016   0.56719   0.35013   0.00000  Uiso   1.00
H354   H     0.58136   0.52485   0.47009   0.00000  Uiso   1.00
H355   H     0.74921   0.70756   0.35807   0.00000  Uiso   1.00
H356   H     0.69220   0.48030   0.21101   0.00000  Uiso   1.00
H357   H     0.49979   0.46044   0.62080   0.00000  Uiso   1.00
H358   H     0.85372   0.84569   0.38456   0.00000  Uiso   1.00
H359   H     0.73349   0.36645   0.07447   0.00000  Uiso   1.00
O360   O     0.53089   0.37243   0.76058   0.00000  Uiso   1.00
O361   O     0.99524   0.87785   0.45062   0.00000  Uiso   1.00
O362   O     0.83750   0.24910   0.04379   0.00000  Uiso   1.00
N363   N     0.65435   0.37792   0.69362   0.00000  Uiso   1.00
N364   N     0.98524   0.73811   0.47276   0.00000  Uiso   1.00
N365   N     0.87286   0.29008   0.18284   0.00000  Uiso   1.00
N366   N     0.55512   0.44007   0.63079   0.00000  Uiso   1.00
N367   N     0.88602   0.80025   0.40993   0.00000  Uiso   1.00
N368   N     0.77363   0.35222   0.12000   0.00000  Uiso   1.00
