data_job_05343
_audit_creation_date              2018-12-19
_audit_creation_method            'Materials Studio'
_symmetry_space_group_name_H-M    'P1'
_symmetry_Int_Tables_number       1
_symmetry_cell_setting            triclinic
loop_
_symmetry_equiv_pos_as_xyz
  x,y,z
_cell_length_a                    30.0113
_cell_length_b                    15.4456
_cell_length_c                    10.0689
_cell_angle_alpha                 90.0000
_cell_angle_beta                  90.0000
_cell_angle_gamma                 90.0000
loop_
_atom_site_label
_atom_site_type_symbol
_atom_site_fract_x
_atom_site_fract_y
_atom_site_fract_z
_atom_site_U_iso_or_equiv
_atom_site_adp_type
_atom_site_occupancy
C1     C     0.59220   0.84008   0.08847   0.00000  Uiso   1.00
C2     C     0.63714   0.87718   0.13042   0.00000  Uiso   1.00
C3     C     0.64350   0.94885   0.21135   0.00000  Uiso   1.00
C4     C     0.68722   0.97250   0.23809   0.00000  Uiso   1.00
C5     C     0.75152   0.03719   0.31114   0.00000  Uiso   1.00
C6     C     0.59248   0.83902   0.93703   0.00000  Uiso   1.00
C7     C     0.56128   0.87860   0.85538   0.00000  Uiso   1.00
C8     C     0.56741   0.87012   0.71931   0.00000  Uiso   1.00
C9     C     0.56234   0.87552   0.49213   0.00000  Uiso   1.00
C10    C     0.59245   0.74550   0.13186   0.00000  Uiso   1.00
C11    C     0.56123   0.70643   0.21399   0.00000  Uiso   1.00
C12    C     0.56732   0.61920   0.24194   0.00000  Uiso   1.00
C13    C     0.56221   0.47938   0.31726   0.00000  Uiso   1.00
C14    C     0.65854   0.75464   0.99204   0.00000  Uiso   1.00
C15    C     0.67317   0.83077   0.07803   0.00000  Uiso   1.00
C16    C     0.71689   0.85432   0.10466   0.00000  Uiso   1.00
C17    C     0.72332   0.92601   0.18562   0.00000  Uiso   1.00
C18    C     0.62851   0.79262   0.88465   0.00000  Uiso   1.00
C19    C     0.63467   0.78407   0.74868   0.00000  Uiso   1.00
C20    C     0.60350   0.82363   0.66684   0.00000  Uiso   1.00
C21    C     0.62848   0.69909   0.07949   0.00000  Uiso   1.00
C22    C     0.63462   0.61190   0.10730   0.00000  Uiso   1.00
C23    C     0.60341   0.57270   0.18946   0.00000  Uiso   1.00
H24    H     0.56415   0.87621   0.12924   0.00000  Uiso   1.00
H25    H     0.61561   0.98475   0.25186   0.00000  Uiso   1.00
H26    H     0.53340   0.91450   0.89594   0.00000  Uiso   1.00
H27    H     0.53335   0.74236   0.25451   0.00000  Uiso   1.00
H28    H     0.68855   0.08464   0.36466   0.00000  Uiso   1.00
H29    H     0.51521   0.93650   0.61419   0.00000  Uiso   1.00
H30    H     0.51509   0.57349   0.37029   0.00000  Uiso   1.00
H31    H     0.68659   0.71851   0.95125   0.00000  Uiso   1.00
H32    H     0.74477   0.81839   0.06411   0.00000  Uiso   1.00
H33    H     0.66256   0.74815   0.70818   0.00000  Uiso   1.00
H34    H     0.66250   0.57600   0.06675   0.00000  Uiso   1.00
H35    H     0.79338   0.94962   0.21227   0.00000  Uiso   1.00
H36    H     0.62003   0.80147   0.46179   0.00000  Uiso   1.00
H37    H     0.61992   0.43847   0.21790   0.00000  Uiso   1.00
O38    O     0.77703   0.08570   0.36588   0.00000  Uiso   1.00
O39    O     0.54960   0.89133   0.38129   0.00000  Uiso   1.00
O40    O     0.54945   0.41508   0.37328   0.00000  Uiso   1.00
N41    N     0.70524   0.03914   0.31333   0.00000  Uiso   1.00
N42    N     0.54317   0.90065   0.61168   0.00000  Uiso   1.00
N43    N     0.54306   0.56127   0.31855   0.00000  Uiso   1.00
N44    N     0.76164   0.96649   0.23133   0.00000  Uiso   1.00
N45    N     0.59958   0.82800   0.52968   0.00000  Uiso   1.00
N46    N     0.59946   0.48862   0.23655   0.00000  Uiso   1.00
C47    C     0.09220   0.34008   0.08847   0.00000  Uiso   1.00
C48    C     0.13714   0.37718   0.13042   0.00000  Uiso   1.00
C49    C     0.14350   0.44885   0.21135   0.00000  Uiso   1.00
C50    C     0.18722   0.47250   0.23809   0.00000  Uiso   1.00
C51    C     0.25152   0.53719   0.31114   0.00000  Uiso   1.00
C52    C     0.09248   0.33902   0.93703   0.00000  Uiso   1.00
C53    C     0.06128   0.37860   0.85538   0.00000  Uiso   1.00
C54    C     0.06741   0.37012   0.71931   0.00000  Uiso   1.00
C55    C     0.06234   0.37552   0.49213   0.00000  Uiso   1.00
C56    C     0.09245   0.24550   0.13186   0.00000  Uiso   1.00
C57    C     0.06123   0.20643   0.21399   0.00000  Uiso   1.00
C58    C     0.06732   0.11920   0.24194   0.00000  Uiso   1.00
C59    C     0.06221   0.97938   0.31726   0.00000  Uiso   1.00
C60    C     0.15854   0.25464   0.99204   0.00000  Uiso   1.00
C61    C     0.17317   0.33077   0.07803   0.00000  Uiso   1.00
C62    C     0.21689   0.35432   0.10466   0.00000  Uiso   1.00
C63    C     0.22332   0.42601   0.18562   0.00000  Uiso   1.00
C64    C     0.12851   0.29262   0.88465   0.00000  Uiso   1.00
C65    C     0.13467   0.28407   0.74868   0.00000  Uiso   1.00
C66    C     0.10350   0.32363   0.66684   0.00000  Uiso   1.00
C67    C     0.12848   0.19909   0.07949   0.00000  Uiso   1.00
C68    C     0.13462   0.11190   0.10730   0.00000  Uiso   1.00
C69    C     0.10341   0.07270   0.18946   0.00000  Uiso   1.00
H70    H     0.06415   0.37621   0.12924   0.00000  Uiso   1.00
H71    H     0.11561   0.48475   0.25186   0.00000  Uiso   1.00
H72    H     0.03340   0.41450   0.89594   0.00000  Uiso   1.00
H73    H     0.03335   0.24236   0.25451   0.00000  Uiso   1.00
H74    H     0.18855   0.58464   0.36466   0.00000  Uiso   1.00
H75    H     0.01521   0.43650   0.61419   0.00000  Uiso   1.00
H76    H     0.01509   0.07349   0.37029   0.00000  Uiso   1.00
H77    H     0.18659   0.21851   0.95125   0.00000  Uiso   1.00
H78    H     0.24477   0.31839   0.06411   0.00000  Uiso   1.00
H79    H     0.16256   0.24815   0.70818   0.00000  Uiso   1.00
H80    H     0.16250   0.07600   0.06675   0.00000  Uiso   1.00
H81    H     0.29338   0.44962   0.21227   0.00000  Uiso   1.00
H82    H     0.12003   0.30147   0.46179   0.00000  Uiso   1.00
H83    H     0.11992   0.93847   0.21790   0.00000  Uiso   1.00
O84    O     0.27703   0.58570   0.36588   0.00000  Uiso   1.00
O85    O     0.04960   0.39133   0.38129   0.00000  Uiso   1.00
O86    O     0.04945   0.91508   0.37328   0.00000  Uiso   1.00
N87    N     0.20524   0.53914   0.31333   0.00000  Uiso   1.00
N88    N     0.04317   0.40065   0.61168   0.00000  Uiso   1.00
N89    N     0.04306   0.06127   0.31855   0.00000  Uiso   1.00
N90    N     0.26164   0.46649   0.23133   0.00000  Uiso   1.00
N91    N     0.09958   0.32800   0.52968   0.00000  Uiso   1.00
N92    N     0.09946   0.98862   0.23655   0.00000  Uiso   1.00
C93    C     0.40780   0.15992   0.08847   0.00000  Uiso   1.00
C94    C     0.36286   0.12282   0.13042   0.00000  Uiso   1.00
C95    C     0.35650   0.05115   0.21135   0.00000  Uiso   1.00
C96    C     0.31278   0.02750   0.23809   0.00000  Uiso   1.00
C97    C     0.24848   0.96281   0.31114   0.00000  Uiso   1.00
C98    C     0.40752   0.16098   0.93703   0.00000  Uiso   1.00
C99    C     0.43872   0.12140   0.85538   0.00000  Uiso   1.00
C100   C     0.43259   0.12988   0.71931   0.00000  Uiso   1.00
C101   C     0.43766   0.12448   0.49213   0.00000  Uiso   1.00
C102   C     0.40755   0.25450   0.13186   0.00000  Uiso   1.00
C103   C     0.43877   0.29357   0.21399   0.00000  Uiso   1.00
C104   C     0.43268   0.38080   0.24194   0.00000  Uiso   1.00
C105   C     0.43779   0.52062   0.31726   0.00000  Uiso   1.00
C106   C     0.34146   0.24536   0.99204   0.00000  Uiso   1.00
C107   C     0.32683   0.16923   0.07803   0.00000  Uiso   1.00
C108   C     0.28311   0.14568   0.10466   0.00000  Uiso   1.00
C109   C     0.27668   0.07399   0.18562   0.00000  Uiso   1.00
C110   C     0.37149   0.20738   0.88465   0.00000  Uiso   1.00
C111   C     0.36533   0.21593   0.74868   0.00000  Uiso   1.00
C112   C     0.39650   0.17637   0.66684   0.00000  Uiso   1.00
C113   C     0.37152   0.30091   0.07949   0.00000  Uiso   1.00
C114   C     0.36538   0.38810   0.10730   0.00000  Uiso   1.00
C115   C     0.39659   0.42730   0.18946   0.00000  Uiso   1.00
H116   H     0.43585   0.12379   0.12924   0.00000  Uiso   1.00
H117   H     0.38439   0.01525   0.25186   0.00000  Uiso   1.00
H118   H     0.46660   0.08550   0.89594   0.00000  Uiso   1.00
H119   H     0.46665   0.25764   0.25451   0.00000  Uiso   1.00
H120   H     0.31145   0.91536   0.36466   0.00000  Uiso   1.00
H121   H     0.48479   0.06350   0.61419   0.00000  Uiso   1.00
H122   H     0.48491   0.42651   0.37029   0.00000  Uiso   1.00
H123   H     0.31341   0.28149   0.95125   0.00000  Uiso   1.00
H124   H     0.25523   0.18161   0.06411   0.00000  Uiso   1.00
H125   H     0.33744   0.25185   0.70818   0.00000  Uiso   1.00
H126   H     0.33750   0.42400   0.06675   0.00000  Uiso   1.00
H127   H     0.20662   0.05038   0.21227   0.00000  Uiso   1.00
H128   H     0.37997   0.19853   0.46179   0.00000  Uiso   1.00
H129   H     0.38008   0.56153   0.21790   0.00000  Uiso   1.00
O130   O     0.22297   0.91430   0.36588   0.00000  Uiso   1.00
O131   O     0.45040   0.10867   0.38129   0.00000  Uiso   1.00
O132   O     0.45055   0.58492   0.37328   0.00000  Uiso   1.00
N133   N     0.29476   0.96086   0.31333   0.00000  Uiso   1.00
N134   N     0.45683   0.09935   0.61168   0.00000  Uiso   1.00
N135   N     0.45694   0.43873   0.31855   0.00000  Uiso   1.00
N136   N     0.23836   0.03351   0.23133   0.00000  Uiso   1.00
N137   N     0.40042   0.17200   0.52968   0.00000  Uiso   1.00
N138   N     0.40054   0.51138   0.23655   0.00000  Uiso   1.00
C139   C     0.90780   0.65992   0.08847   0.00000  Uiso   1.00
C140   C     0.86286   0.62282   0.13042   0.00000  Uiso   1.00
C141   C     0.85650   0.55115   0.21135   0.00000  Uiso   1.00
C142   C     0.81278   0.52750   0.23809   0.00000  Uiso   1.00
C143   C     0.74848   0.46281   0.31114   0.00000  Uiso   1.00
C144   C     0.90752   0.66098   0.93703   0.00000  Uiso   1.00
C145   C     0.93872   0.62140   0.85538   0.00000  Uiso   1.00
C146   C     0.93259   0.62988   0.71931   0.00000  Uiso   1.00
C147   C     0.93766   0.62448   0.49213   0.00000  Uiso   1.00
C148   C     0.90755   0.75450   0.13186   0.00000  Uiso   1.00
C149   C     0.93877   0.79357   0.21399   0.00000  Uiso   1.00
C150   C     0.93268   0.88080   0.24194   0.00000  Uiso   1.00
C151   C     0.93779   0.02062   0.31726   0.00000  Uiso   1.00
C152   C     0.84146   0.74536   0.99204   0.00000  Uiso   1.00
C153   C     0.82683   0.66923   0.07803   0.00000  Uiso   1.00
C154   C     0.78311   0.64568   0.10466   0.00000  Uiso   1.00
C155   C     0.77668   0.57399   0.18562   0.00000  Uiso   1.00
C156   C     0.87149   0.70738   0.88465   0.00000  Uiso   1.00
C157   C     0.86533   0.71593   0.74868   0.00000  Uiso   1.00
C158   C     0.89650   0.67637   0.66684   0.00000  Uiso   1.00
C159   C     0.87152   0.80091   0.07949   0.00000  Uiso   1.00
C160   C     0.86538   0.88810   0.10730   0.00000  Uiso   1.00
C161   C     0.89659   0.92730   0.18946   0.00000  Uiso   1.00
H162   H     0.93585   0.62379   0.12924   0.00000  Uiso   1.00
H163   H     0.88439   0.51525   0.25186   0.00000  Uiso   1.00
H164   H     0.96660   0.58550   0.89594   0.00000  Uiso   1.00
H165   H     0.96665   0.75764   0.25451   0.00000  Uiso   1.00
H166   H     0.81145   0.41536   0.36466   0.00000  Uiso   1.00
H167   H     0.98479   0.56350   0.61419   0.00000  Uiso   1.00
H168   H     0.98491   0.92651   0.37029   0.00000  Uiso   1.00
H169   H     0.81341   0.78149   0.95125   0.00000  Uiso   1.00
H170   H     0.75523   0.68161   0.06411   0.00000  Uiso   1.00
H171   H     0.83744   0.75185   0.70818   0.00000  Uiso   1.00
H172   H     0.83750   0.92400   0.06675   0.00000  Uiso   1.00
H173   H     0.70662   0.55038   0.21227   0.00000  Uiso   1.00
H174   H     0.87997   0.69853   0.46179   0.00000  Uiso   1.00
H175   H     0.88008   0.06153   0.21790   0.00000  Uiso   1.00
O176   O     0.72297   0.41430   0.36588   0.00000  Uiso   1.00
O177   O     0.95040   0.60867   0.38129   0.00000  Uiso   1.00
O178   O     0.95055   0.08492   0.37328   0.00000  Uiso   1.00
N179   N     0.79476   0.46086   0.31333   0.00000  Uiso   1.00
N180   N     0.95683   0.59935   0.61168   0.00000  Uiso   1.00
N181   N     0.95694   0.93873   0.31855   0.00000  Uiso   1.00
N182   N     0.73836   0.53351   0.23133   0.00000  Uiso   1.00
N183   N     0.90042   0.67200   0.52968   0.00000  Uiso   1.00
N184   N     0.90054   0.01138   0.23655   0.00000  Uiso   1.00
C185   C     0.40780   0.84008   0.91153   0.00000  Uiso   1.00
C186   C     0.36286   0.87718   0.86958   0.00000  Uiso   1.00
C187   C     0.35650   0.94885   0.78865   0.00000  Uiso   1.00
C188   C     0.31278   0.97250   0.76191   0.00000  Uiso   1.00
C189   C     0.24848   0.03719   0.68886   0.00000  Uiso   1.00
C190   C     0.40752   0.83902   0.06297   0.00000  Uiso   1.00
C191   C     0.43872   0.87860   0.14462   0.00000  Uiso   1.00
C192   C     0.43259   0.87012   0.28069   0.00000  Uiso   1.00
C193   C     0.43766   0.87552   0.50787   0.00000  Uiso   1.00
C194   C     0.40755   0.74550   0.86814   0.00000  Uiso   1.00
C195   C     0.43877   0.70643   0.78601   0.00000  Uiso   1.00
C196   C     0.43268   0.61920   0.75806   0.00000  Uiso   1.00
C197   C     0.43779   0.47938   0.68274   0.00000  Uiso   1.00
C198   C     0.34146   0.75464   0.00796   0.00000  Uiso   1.00
C199   C     0.32683   0.83077   0.92197   0.00000  Uiso   1.00
C200   C     0.28311   0.85432   0.89534   0.00000  Uiso   1.00
C201   C     0.27668   0.92601   0.81438   0.00000  Uiso   1.00
C202   C     0.37149   0.79262   0.11535   0.00000  Uiso   1.00
C203   C     0.36533   0.78407   0.25132   0.00000  Uiso   1.00
C204   C     0.39650   0.82363   0.33316   0.00000  Uiso   1.00
C205   C     0.37152   0.69909   0.92051   0.00000  Uiso   1.00
C206   C     0.36538   0.61190   0.89270   0.00000  Uiso   1.00
C207   C     0.39659   0.57270   0.81054   0.00000  Uiso   1.00
H208   H     0.43585   0.87621   0.87076   0.00000  Uiso   1.00
H209   H     0.38439   0.98475   0.74814   0.00000  Uiso   1.00
H210   H     0.46660   0.91450   0.10406   0.00000  Uiso   1.00
H211   H     0.46665   0.74236   0.74549   0.00000  Uiso   1.00
H212   H     0.31145   0.08464   0.63534   0.00000  Uiso   1.00
H213   H     0.48479   0.93650   0.38581   0.00000  Uiso   1.00
H214   H     0.48491   0.57349   0.62971   0.00000  Uiso   1.00
H215   H     0.31341   0.71851   0.04875   0.00000  Uiso   1.00
H216   H     0.25523   0.81839   0.93589   0.00000  Uiso   1.00
H217   H     0.33744   0.74815   0.29182   0.00000  Uiso   1.00
H218   H     0.33750   0.57600   0.93325   0.00000  Uiso   1.00
H219   H     0.20662   0.94962   0.78773   0.00000  Uiso   1.00
H220   H     0.37997   0.80147   0.53821   0.00000  Uiso   1.00
H221   H     0.38008   0.43847   0.78210   0.00000  Uiso   1.00
O222   O     0.22297   0.08570   0.63412   0.00000  Uiso   1.00
O223   O     0.45040   0.89133   0.61871   0.00000  Uiso   1.00
O224   O     0.45055   0.41508   0.62672   0.00000  Uiso   1.00
N225   N     0.29476   0.03914   0.68667   0.00000  Uiso   1.00
N226   N     0.45683   0.90065   0.38832   0.00000  Uiso   1.00
N227   N     0.45694   0.56127   0.68145   0.00000  Uiso   1.00
N228   N     0.23836   0.96649   0.76867   0.00000  Uiso   1.00
N229   N     0.40042   0.82800   0.47032   0.00000  Uiso   1.00
N230   N     0.40054   0.48862   0.76345   0.00000  Uiso   1.00
C231   C     0.90780   0.34008   0.91153   0.00000  Uiso   1.00
C232   C     0.86286   0.37718   0.86958   0.00000  Uiso   1.00
C233   C     0.85650   0.44885   0.78865   0.00000  Uiso   1.00
C234   C     0.81278   0.47250   0.76191   0.00000  Uiso   1.00
C235   C     0.74848   0.53719   0.68886   0.00000  Uiso   1.00
C236   C     0.90752   0.33902   0.06297   0.00000  Uiso   1.00
C237   C     0.93872   0.37860   0.14462   0.00000  Uiso   1.00
C238   C     0.93259   0.37012   0.28069   0.00000  Uiso   1.00
C239   C     0.93766   0.37552   0.50787   0.00000  Uiso   1.00
C240   C     0.90755   0.24550   0.86814   0.00000  Uiso   1.00
C241   C     0.93877   0.20643   0.78601   0.00000  Uiso   1.00
C242   C     0.93268   0.11920   0.75806   0.00000  Uiso   1.00
C243   C     0.93779   0.97938   0.68274   0.00000  Uiso   1.00
C244   C     0.84146   0.25464   0.00796   0.00000  Uiso   1.00
C245   C     0.82683   0.33077   0.92197   0.00000  Uiso   1.00
C246   C     0.78311   0.35432   0.89534   0.00000  Uiso   1.00
C247   C     0.77668   0.42601   0.81438   0.00000  Uiso   1.00
C248   C     0.87149   0.29262   0.11535   0.00000  Uiso   1.00
C249   C     0.86533   0.28407   0.25132   0.00000  Uiso   1.00
C250   C     0.89650   0.32363   0.33316   0.00000  Uiso   1.00
C251   C     0.87152   0.19909   0.92051   0.00000  Uiso   1.00
C252   C     0.86538   0.11190   0.89270   0.00000  Uiso   1.00
C253   C     0.89659   0.07270   0.81054   0.00000  Uiso   1.00
H254   H     0.93585   0.37621   0.87076   0.00000  Uiso   1.00
H255   H     0.88439   0.48475   0.74814   0.00000  Uiso   1.00
H256   H     0.96660   0.41450   0.10406   0.00000  Uiso   1.00
H257   H     0.96665   0.24236   0.74549   0.00000  Uiso   1.00
H258   H     0.81145   0.58464   0.63534   0.00000  Uiso   1.00
H259   H     0.98479   0.43650   0.38581   0.00000  Uiso   1.00
H260   H     0.98491   0.07349   0.62971   0.00000  Uiso   1.00
H261   H     0.81341   0.21851   0.04875   0.00000  Uiso   1.00
H262   H     0.75523   0.31839   0.93589   0.00000  Uiso   1.00
H263   H     0.83744   0.24815   0.29182   0.00000  Uiso   1.00
H264   H     0.83750   0.07600   0.93325   0.00000  Uiso   1.00
H265   H     0.70662   0.44962   0.78773   0.00000  Uiso   1.00
H266   H     0.87997   0.30147   0.53821   0.00000  Uiso   1.00
H267   H     0.88008   0.93847   0.78210   0.00000  Uiso   1.00
O268   O     0.72297   0.58570   0.63412   0.00000  Uiso   1.00
O269   O     0.95040   0.39133   0.61871   0.00000  Uiso   1.00
O270   O     0.95055   0.91508   0.62672   0.00000  Uiso   1.00
N271   N     0.79476   0.53914   0.68667   0.00000  Uiso   1.00
N272   N     0.95683   0.40065   0.38832   0.00000  Uiso   1.00
N273   N     0.95694   0.06127   0.68145   0.00000  Uiso   1.00
N274   N     0.73836   0.46649   0.76867   0.00000  Uiso   1.00
N275   N     0.90042   0.32800   0.47032   0.00000  Uiso   1.00
N276   N     0.90054   0.98862   0.76345   0.00000  Uiso   1.00
C277   C     0.59220   0.15992   0.91153   0.00000  Uiso   1.00
C278   C     0.63714   0.12282   0.86958   0.00000  Uiso   1.00
C279   C     0.64350   0.05115   0.78865   0.00000  Uiso   1.00
C280   C     0.68722   0.02750   0.76191   0.00000  Uiso   1.00
C281   C     0.75152   0.96281   0.68886   0.00000  Uiso   1.00
C282   C     0.59248   0.16098   0.06297   0.00000  Uiso   1.00
C283   C     0.56128   0.12140   0.14462   0.00000  Uiso   1.00
C284   C     0.56741   0.12988   0.28069   0.00000  Uiso   1.00
C285   C     0.56234   0.12448   0.50787   0.00000  Uiso   1.00
C286   C     0.59245   0.25450   0.86814   0.00000  Uiso   1.00
C287   C     0.56123   0.29357   0.78601   0.00000  Uiso   1.00
C288   C     0.56732   0.38080   0.75806   0.00000  Uiso   1.00
C289   C     0.56221   0.52062   0.68274   0.00000  Uiso   1.00
C290   C     0.65854   0.24536   0.00796   0.00000  Uiso   1.00
C291   C     0.67317   0.16923   0.92197   0.00000  Uiso   1.00
C292   C     0.71689   0.14568   0.89534   0.00000  Uiso   1.00
C293   C     0.72332   0.07399   0.81438   0.00000  Uiso   1.00
C294   C     0.62851   0.20738   0.11535   0.00000  Uiso   1.00
C295   C     0.63467   0.21593   0.25132   0.00000  Uiso   1.00
C296   C     0.60350   0.17637   0.33316   0.00000  Uiso   1.00
C297   C     0.62848   0.30091   0.92051   0.00000  Uiso   1.00
C298   C     0.63462   0.38810   0.89270   0.00000  Uiso   1.00
C299   C     0.60341   0.42730   0.81054   0.00000  Uiso   1.00
H300   H     0.56415   0.12379   0.87076   0.00000  Uiso   1.00
H301   H     0.61561   0.01525   0.74814   0.00000  Uiso   1.00
H302   H     0.53340   0.08550   0.10406   0.00000  Uiso   1.00
H303   H     0.53335   0.25764   0.74549   0.00000  Uiso   1.00
H304   H     0.68855   0.91536   0.63534   0.00000  Uiso   1.00
H305   H     0.51521   0.06350   0.38581   0.00000  Uiso   1.00
H306   H     0.51509   0.42651   0.62971   0.00000  Uiso   1.00
H307   H     0.68659   0.28149   0.04875   0.00000  Uiso   1.00
H308   H     0.74477   0.18161   0.93589   0.00000  Uiso   1.00
H309   H     0.66256   0.25185   0.29182   0.00000  Uiso   1.00
H310   H     0.66250   0.42400   0.93325   0.00000  Uiso   1.00
H311   H     0.79338   0.05038   0.78773   0.00000  Uiso   1.00
H312   H     0.62003   0.19853   0.53821   0.00000  Uiso   1.00
H313   H     0.61992   0.56153   0.78210   0.00000  Uiso   1.00
O314   O     0.77703   0.91430   0.63412   0.00000  Uiso   1.00
O315   O     0.54960   0.10867   0.61871   0.00000  Uiso   1.00
O316   O     0.54945   0.58492   0.62672   0.00000  Uiso   1.00
N317   N     0.70524   0.96086   0.68667   0.00000  Uiso   1.00
N318   N     0.54317   0.09935   0.38832   0.00000  Uiso   1.00
N319   N     0.54306   0.43873   0.68145   0.00000  Uiso   1.00
N320   N     0.76164   0.03351   0.76867   0.00000  Uiso   1.00
N321   N     0.59958   0.17200   0.47032   0.00000  Uiso   1.00
N322   N     0.59946   0.51138   0.76345   0.00000  Uiso   1.00
C323   C     0.09220   0.65992   0.91153   0.00000  Uiso   1.00
C324   C     0.13714   0.62282   0.86958   0.00000  Uiso   1.00
C325   C     0.14350   0.55115   0.78865   0.00000  Uiso   1.00
C326   C     0.18722   0.52750   0.76191   0.00000  Uiso   1.00
C327   C     0.25152   0.46281   0.68886   0.00000  Uiso   1.00
C328   C     0.09248   0.66098   0.06297   0.00000  Uiso   1.00
C329   C     0.06128   0.62140   0.14462   0.00000  Uiso   1.00
C330   C     0.06741   0.62988   0.28069   0.00000  Uiso   1.00
C331   C     0.06234   0.62448   0.50787   0.00000  Uiso   1.00
C332   C     0.09245   0.75450   0.86814   0.00000  Uiso   1.00
C333   C     0.06123   0.79357   0.78601   0.00000  Uiso   1.00
C334   C     0.06732   0.88080   0.75806   0.00000  Uiso   1.00
C335   C     0.06221   0.02062   0.68274   0.00000  Uiso   1.00
C336   C     0.15854   0.74536   0.00796   0.00000  Uiso   1.00
C337   C     0.17317   0.66923   0.92197   0.00000  Uiso   1.00
C338   C     0.21689   0.64568   0.89534   0.00000  Uiso   1.00
C339   C     0.22332   0.57399   0.81438   0.00000  Uiso   1.00
C340   C     0.12851   0.70738   0.11535   0.00000  Uiso   1.00
C341   C     0.13467   0.71593   0.25132   0.00000  Uiso   1.00
C342   C     0.10350   0.67637   0.33316   0.00000  Uiso   1.00
C343   C     0.12848   0.80091   0.92051   0.00000  Uiso   1.00
C344   C     0.13462   0.88810   0.89270   0.00000  Uiso   1.00
C345   C     0.10341   0.92730   0.81054   0.00000  Uiso   1.00
H346   H     0.06415   0.62379   0.87076   0.00000  Uiso   1.00
H347   H     0.11561   0.51525   0.74814   0.00000  Uiso   1.00
H348   H     0.03340   0.58550   0.10406   0.00000  Uiso   1.00
H349   H     0.03335   0.75764   0.74549   0.00000  Uiso   1.00
H350   H     0.18855   0.41536   0.63534   0.00000  Uiso   1.00
H351   H     0.01521   0.56350   0.38581   0.00000  Uiso   1.00
H352   H     0.01509   0.92651   0.62971   0.00000  Uiso   1.00
H353   H     0.18659   0.78149   0.04875   0.00000  Uiso   1.00
H354   H     0.24477   0.68161   0.93589   0.00000  Uiso   1.00
H355   H     0.16256   0.75185   0.29182   0.00000  Uiso   1.00
H356   H     0.16250   0.92400   0.93325   0.00000  Uiso   1.00
H357   H     0.29338   0.55038   0.78773   0.00000  Uiso   1.00
H358   H     0.12003   0.69853   0.53821   0.00000  Uiso   1.00
H359   H     0.11992   0.06153   0.78210   0.00000  Uiso   1.00
O360   O     0.27703   0.41430   0.63412   0.00000  Uiso   1.00
O361   O     0.04960   0.60867   0.61871   0.00000  Uiso   1.00
O362   O     0.04945   0.08492   0.62672   0.00000  Uiso   1.00
N363   N     0.20524   0.46086   0.68667   0.00000  Uiso   1.00
N364   N     0.04317   0.59935   0.38832   0.00000  Uiso   1.00
N365   N     0.04306   0.93873   0.68145   0.00000  Uiso   1.00
N366   N     0.26164   0.53351   0.76867   0.00000  Uiso   1.00
N367   N     0.09958   0.67200   0.47032   0.00000  Uiso   1.00
N368   N     0.09946   0.01138   0.76345   0.00000  Uiso   1.00
