data_job_05004
_audit_creation_date              2018-12-19
_audit_creation_method            'Materials Studio'
_symmetry_space_group_name_H-M    'P1'
_symmetry_Int_Tables_number       1
_symmetry_cell_setting            triclinic
loop_
_symmetry_equiv_pos_as_xyz
  x,y,z
_cell_length_a                    7.1967
_cell_length_b                    23.7453
_cell_length_c                    24.0054
_cell_angle_alpha                 90.0000
_cell_angle_beta                  107.5502
_cell_angle_gamma                 90.0000
loop_
_atom_site_label
_atom_site_type_symbol
_atom_site_fract_x
_atom_site_fract_y
_atom_site_fract_z
_atom_site_U_iso_or_equiv
_atom_site_adp_type
_atom_site_occupancy
C1     C     0.94774   0.20053   0.29877   0.00000  Uiso   1.00
C2     C     0.06632   0.25183   0.32714   0.00000  Uiso   1.00
C3     C     0.00163   0.29497   0.35563   0.00000  Uiso   1.00
C4     C     0.13225   0.33816   0.37864   0.00000  Uiso   1.00
C5     C     0.28766   0.41783   0.42348   0.00000  Uiso   1.00
C6     C     0.94842   0.20053   0.23531   0.00000  Uiso   1.00
C7     C     0.78459   0.20053   0.18659   0.00000  Uiso   1.00
C8     C     0.81598   0.20053   0.13229   0.00000  Uiso   1.00
C9     C     0.78835   0.20052   0.03456   0.00000  Uiso   1.00
C10    C     0.06631   0.14922   0.32713   0.00000  Uiso   1.00
C11    C     0.00159   0.10607   0.35561   0.00000  Uiso   1.00
C12    C     0.13222   0.06287   0.37861   0.00000  Uiso   1.00
C13    C     0.28763   0.98320   0.42344   0.00000  Uiso   1.00
C14    C     0.29478   0.20053   0.28896   0.00000  Uiso   1.00
C15    C     0.25481   0.25183   0.32181   0.00000  Uiso   1.00
C16    C     0.38558   0.29496   0.34478   0.00000  Uiso   1.00
C17    C     0.32109   0.33816   0.37330   0.00000  Uiso   1.00
C18    C     0.13690   0.20053   0.22998   0.00000  Uiso   1.00
C19    C     0.16854   0.20053   0.17574   0.00000  Uiso   1.00
C20    C     0.00481   0.20053   0.12695   0.00000  Uiso   1.00
C21    C     0.25480   0.14922   0.32180   0.00000  Uiso   1.00
C22    C     0.38555   0.10608   0.34476   0.00000  Uiso   1.00
C23    C     0.32106   0.06287   0.37327   0.00000  Uiso   1.00
H24    H     0.80099   0.20053   0.30292   0.00000  Uiso   1.00
H25    H     0.85573   0.29495   0.35974   0.00000  Uiso   1.00
H26    H     0.63875   0.20053   0.19073   0.00000  Uiso   1.00
H27    H     0.85572   0.10609   0.35973   0.00000  Uiso   1.00
H28    H     0.99953   0.39965   0.42038   0.00000  Uiso   1.00
H29    H     0.54199   0.20053   0.06400   0.00000  Uiso   1.00
H30    H     0.99952   0.00139   0.42036   0.00000  Uiso   1.00
H31    H     0.44153   0.20052   0.28481   0.00000  Uiso   1.00
H32    H     0.53143   0.29495   0.34065   0.00000  Uiso   1.00
H33    H     0.31443   0.20053   0.17163   0.00000  Uiso   1.00
H34    H     0.53141   0.10609   0.34062   0.00000  Uiso   1.00
H35    H     0.54795   0.39965   0.40488   0.00000  Uiso   1.00
H36    H     0.09041   0.20053   0.04850   0.00000  Uiso   1.00
H37    H     0.54793   0.00139   0.40486   0.00000  Uiso   1.00
O38    O     0.32130   0.46178   0.44967   0.00000  Uiso   1.00
O39    O     0.72102   0.20052   0.98212   0.00000  Uiso   1.00
O40    O     0.32129   0.93926   0.44965   0.00000  Uiso   1.00
N41    N     0.11628   0.38669   0.40908   0.00000  Uiso   1.00
N42    N     0.68850   0.20053   0.07589   0.00000  Uiso   1.00
N43    N     0.11623   0.01434   0.40904   0.00000  Uiso   1.00
N44    N     0.41138   0.38669   0.40074   0.00000  Uiso   1.00
N45    N     0.98360   0.20053   0.06755   0.00000  Uiso   1.00
N46    N     0.41133   0.01434   0.40070   0.00000  Uiso   1.00
C47    C     0.44774   0.70053   0.29877   0.00000  Uiso   1.00
C48    C     0.56632   0.75183   0.32714   0.00000  Uiso   1.00
C49    C     0.50163   0.79497   0.35563   0.00000  Uiso   1.00
C50    C     0.63225   0.83816   0.37864   0.00000  Uiso   1.00
C51    C     0.78766   0.91783   0.42348   0.00000  Uiso   1.00
C52    C     0.44842   0.70053   0.23531   0.00000  Uiso   1.00
C53    C     0.28459   0.70053   0.18659   0.00000  Uiso   1.00
C54    C     0.31598   0.70053   0.13229   0.00000  Uiso   1.00
C55    C     0.28835   0.70052   0.03456   0.00000  Uiso   1.00
C56    C     0.56631   0.64922   0.32713   0.00000  Uiso   1.00
C57    C     0.50159   0.60607   0.35561   0.00000  Uiso   1.00
C58    C     0.63222   0.56287   0.37861   0.00000  Uiso   1.00
C59    C     0.78763   0.48320   0.42344   0.00000  Uiso   1.00
C60    C     0.79478   0.70053   0.28896   0.00000  Uiso   1.00
C61    C     0.75481   0.75183   0.32181   0.00000  Uiso   1.00
C62    C     0.88558   0.79496   0.34478   0.00000  Uiso   1.00
C63    C     0.82109   0.83816   0.37330   0.00000  Uiso   1.00
C64    C     0.63690   0.70053   0.22998   0.00000  Uiso   1.00
C65    C     0.66854   0.70053   0.17574   0.00000  Uiso   1.00
C66    C     0.50481   0.70053   0.12695   0.00000  Uiso   1.00
C67    C     0.75480   0.64922   0.32180   0.00000  Uiso   1.00
C68    C     0.88555   0.60608   0.34476   0.00000  Uiso   1.00
C69    C     0.82106   0.56287   0.37327   0.00000  Uiso   1.00
H70    H     0.30099   0.70053   0.30292   0.00000  Uiso   1.00
H71    H     0.35573   0.79495   0.35974   0.00000  Uiso   1.00
H72    H     0.13875   0.70053   0.19073   0.00000  Uiso   1.00
H73    H     0.35572   0.60609   0.35973   0.00000  Uiso   1.00
H74    H     0.49953   0.89965   0.42038   0.00000  Uiso   1.00
H75    H     0.04199   0.70053   0.06400   0.00000  Uiso   1.00
H76    H     0.49952   0.50139   0.42036   0.00000  Uiso   1.00
H77    H     0.94153   0.70052   0.28481   0.00000  Uiso   1.00
H78    H     0.03143   0.79495   0.34065   0.00000  Uiso   1.00
H79    H     0.81443   0.70053   0.17163   0.00000  Uiso   1.00
H80    H     0.03141   0.60609   0.34062   0.00000  Uiso   1.00
H81    H     0.04795   0.89965   0.40488   0.00000  Uiso   1.00
H82    H     0.59041   0.70053   0.04850   0.00000  Uiso   1.00
H83    H     0.04793   0.50139   0.40486   0.00000  Uiso   1.00
O84    O     0.82130   0.96178   0.44967   0.00000  Uiso   1.00
O85    O     0.22102   0.70052   0.98212   0.00000  Uiso   1.00
O86    O     0.82129   0.43926   0.44965   0.00000  Uiso   1.00
N87    N     0.61628   0.88669   0.40908   0.00000  Uiso   1.00
N88    N     0.18850   0.70053   0.07589   0.00000  Uiso   1.00
N89    N     0.61623   0.51434   0.40904   0.00000  Uiso   1.00
N90    N     0.91138   0.88669   0.40074   0.00000  Uiso   1.00
N91    N     0.48360   0.70053   0.06755   0.00000  Uiso   1.00
N92    N     0.91133   0.51434   0.40070   0.00000  Uiso   1.00
C93    C     0.05226   0.20053   0.70123   0.00000  Uiso   1.00
C94    C     0.93368   0.25183   0.67286   0.00000  Uiso   1.00
C95    C     0.99837   0.29497   0.64437   0.00000  Uiso   1.00
C96    C     0.86775   0.33816   0.62136   0.00000  Uiso   1.00
C97    C     0.71234   0.41783   0.57652   0.00000  Uiso   1.00
C98    C     0.05158   0.20053   0.76469   0.00000  Uiso   1.00
C99    C     0.21541   0.20053   0.81341   0.00000  Uiso   1.00
C100   C     0.18402   0.20053   0.86771   0.00000  Uiso   1.00
C101   C     0.21165   0.20052   0.96544   0.00000  Uiso   1.00
C102   C     0.93369   0.14922   0.67287   0.00000  Uiso   1.00
C103   C     0.99841   0.10607   0.64439   0.00000  Uiso   1.00
C104   C     0.86778   0.06287   0.62139   0.00000  Uiso   1.00
C105   C     0.71237   0.98320   0.57656   0.00000  Uiso   1.00
C106   C     0.70522   0.20053   0.71104   0.00000  Uiso   1.00
C107   C     0.74519   0.25183   0.67819   0.00000  Uiso   1.00
C108   C     0.61442   0.29496   0.65522   0.00000  Uiso   1.00
C109   C     0.67891   0.33816   0.62670   0.00000  Uiso   1.00
C110   C     0.86310   0.20053   0.77002   0.00000  Uiso   1.00
C111   C     0.83146   0.20053   0.82426   0.00000  Uiso   1.00
C112   C     0.99519   0.20053   0.87305   0.00000  Uiso   1.00
C113   C     0.74520   0.14922   0.67820   0.00000  Uiso   1.00
C114   C     0.61445   0.10608   0.65524   0.00000  Uiso   1.00
C115   C     0.67894   0.06287   0.62673   0.00000  Uiso   1.00
H116   H     0.19901   0.20053   0.69708   0.00000  Uiso   1.00
H117   H     0.14427   0.29495   0.64026   0.00000  Uiso   1.00
H118   H     0.36125   0.20053   0.80927   0.00000  Uiso   1.00
H119   H     0.14428   0.10609   0.64027   0.00000  Uiso   1.00
H120   H     0.00047   0.39965   0.57962   0.00000  Uiso   1.00
H121   H     0.45801   0.20053   0.93600   0.00000  Uiso   1.00
H122   H     0.00048   0.00139   0.57964   0.00000  Uiso   1.00
H123   H     0.55847   0.20052   0.71519   0.00000  Uiso   1.00
H124   H     0.46857   0.29495   0.65935   0.00000  Uiso   1.00
H125   H     0.68557   0.20053   0.82837   0.00000  Uiso   1.00
H126   H     0.46859   0.10609   0.65938   0.00000  Uiso   1.00
H127   H     0.45205   0.39965   0.59512   0.00000  Uiso   1.00
H128   H     0.90959   0.20053   0.95150   0.00000  Uiso   1.00
H129   H     0.45207   0.00139   0.59514   0.00000  Uiso   1.00
O130   O     0.67870   0.46178   0.55033   0.00000  Uiso   1.00
O131   O     0.27898   0.20052   0.01788   0.00000  Uiso   1.00
O132   O     0.67871   0.93926   0.55035   0.00000  Uiso   1.00
N133   N     0.88372   0.38669   0.59092   0.00000  Uiso   1.00
N134   N     0.31150   0.20053   0.92411   0.00000  Uiso   1.00
N135   N     0.88377   0.01434   0.59096   0.00000  Uiso   1.00
N136   N     0.58862   0.38669   0.59926   0.00000  Uiso   1.00
N137   N     0.01640   0.20053   0.93245   0.00000  Uiso   1.00
N138   N     0.58867   0.01434   0.59930   0.00000  Uiso   1.00
C139   C     0.55226   0.70053   0.70123   0.00000  Uiso   1.00
C140   C     0.43368   0.75183   0.67286   0.00000  Uiso   1.00
C141   C     0.49837   0.79497   0.64437   0.00000  Uiso   1.00
C142   C     0.36775   0.83816   0.62136   0.00000  Uiso   1.00
C143   C     0.21234   0.91783   0.57652   0.00000  Uiso   1.00
C144   C     0.55158   0.70053   0.76469   0.00000  Uiso   1.00
C145   C     0.71541   0.70053   0.81341   0.00000  Uiso   1.00
C146   C     0.68402   0.70053   0.86771   0.00000  Uiso   1.00
C147   C     0.71165   0.70052   0.96544   0.00000  Uiso   1.00
C148   C     0.43369   0.64922   0.67287   0.00000  Uiso   1.00
C149   C     0.49841   0.60607   0.64439   0.00000  Uiso   1.00
C150   C     0.36778   0.56287   0.62139   0.00000  Uiso   1.00
C151   C     0.21237   0.48320   0.57656   0.00000  Uiso   1.00
C152   C     0.20522   0.70053   0.71104   0.00000  Uiso   1.00
C153   C     0.24519   0.75183   0.67819   0.00000  Uiso   1.00
C154   C     0.11442   0.79496   0.65522   0.00000  Uiso   1.00
C155   C     0.17891   0.83816   0.62670   0.00000  Uiso   1.00
C156   C     0.36310   0.70053   0.77002   0.00000  Uiso   1.00
C157   C     0.33146   0.70053   0.82426   0.00000  Uiso   1.00
C158   C     0.49519   0.70053   0.87305   0.00000  Uiso   1.00
C159   C     0.24520   0.64922   0.67820   0.00000  Uiso   1.00
C160   C     0.11445   0.60608   0.65524   0.00000  Uiso   1.00
C161   C     0.17894   0.56287   0.62673   0.00000  Uiso   1.00
H162   H     0.69901   0.70053   0.69708   0.00000  Uiso   1.00
H163   H     0.64427   0.79495   0.64026   0.00000  Uiso   1.00
H164   H     0.86125   0.70053   0.80927   0.00000  Uiso   1.00
H165   H     0.64428   0.60609   0.64027   0.00000  Uiso   1.00
H166   H     0.50047   0.89965   0.57962   0.00000  Uiso   1.00
H167   H     0.95801   0.70053   0.93600   0.00000  Uiso   1.00
H168   H     0.50048   0.50139   0.57964   0.00000  Uiso   1.00
H169   H     0.05847   0.70052   0.71519   0.00000  Uiso   1.00
H170   H     0.96857   0.79495   0.65935   0.00000  Uiso   1.00
H171   H     0.18557   0.70053   0.82837   0.00000  Uiso   1.00
H172   H     0.96859   0.60609   0.65938   0.00000  Uiso   1.00
H173   H     0.95205   0.89965   0.59512   0.00000  Uiso   1.00
H174   H     0.40959   0.70053   0.95150   0.00000  Uiso   1.00
H175   H     0.95207   0.50139   0.59514   0.00000  Uiso   1.00
O176   O     0.17870   0.96178   0.55033   0.00000  Uiso   1.00
O177   O     0.77898   0.70052   0.01788   0.00000  Uiso   1.00
O178   O     0.17871   0.43926   0.55035   0.00000  Uiso   1.00
N179   N     0.38372   0.88669   0.59092   0.00000  Uiso   1.00
N180   N     0.81150   0.70053   0.92411   0.00000  Uiso   1.00
N181   N     0.38377   0.51434   0.59096   0.00000  Uiso   1.00
N182   N     0.08862   0.88669   0.59926   0.00000  Uiso   1.00
N183   N     0.51640   0.70053   0.93245   0.00000  Uiso   1.00
N184   N     0.08867   0.51434   0.59930   0.00000  Uiso   1.00
