data_job_06018
_audit_creation_date              2018-12-19
_audit_creation_method            'Materials Studio'
_symmetry_space_group_name_H-M    'P1'
_symmetry_Int_Tables_number       1
_symmetry_cell_setting            triclinic
loop_
_symmetry_equiv_pos_as_xyz
  x,y,z
_cell_length_a                    7.5014
_cell_length_b                    27.4317
_cell_length_c                    27.6731
_cell_angle_alpha                 119.1440
_cell_angle_beta                  83.6833
_cell_angle_gamma                 87.1077
loop_
_atom_site_label
_atom_site_type_symbol
_atom_site_fract_x
_atom_site_fract_y
_atom_site_fract_z
_atom_site_U_iso_or_equiv
_atom_site_adp_type
_atom_site_occupancy
C1     C     0.05280   0.90374   0.21408   0.00000  Uiso   1.00
C2     C     0.14077   0.84331   0.17644   0.00000  Uiso   1.00
C3     C     0.04991   0.79638   0.15136   0.00000  Uiso   1.00
C4     C     0.15486   0.74477   0.11845   0.00000  Uiso   1.00
C5     C     0.26270   0.65160   0.06117   0.00000  Uiso   1.00
C6     C     0.12802   0.92519   0.26900   0.00000  Uiso   1.00
C7     C     0.02643   0.94711   0.32173   0.00000  Uiso   1.00
C8     C     0.12067   0.96443   0.36674   0.00000  Uiso   1.00
C9     C     0.20871   0.99842   0.45316   0.00000  Uiso   1.00
C10    C     0.12808   0.93712   0.18733   0.00000  Uiso   1.00
C11    C     0.02654   0.96908   0.17141   0.00000  Uiso   1.00
C12    C     0.12083   0.99646   0.14766   0.00000  Uiso   1.00
C13    C     0.20896   0.04897   0.10728   0.00000  Uiso   1.00
C14    C     0.40078   0.89554   0.20025   0.00000  Uiso   1.00
C15    C     0.32978   0.83885   0.16893   0.00000  Uiso   1.00
C16    C     0.43490   0.78730   0.13605   0.00000  Uiso   1.00
C17    C     0.34421   0.74030   0.11092   0.00000  Uiso   1.00
C18    C     0.31702   0.92073   0.26149   0.00000  Uiso   1.00
C19    C     0.41143   0.93803   0.30643   0.00000  Uiso   1.00
C20    C     0.31001   0.95997   0.35921   0.00000  Uiso   1.00
C21    C     0.31709   0.93266   0.17981   0.00000  Uiso   1.00
C22    C     0.41154   0.96000   0.15610   0.00000  Uiso   1.00
C23    C     0.31017   0.99199   0.14014   0.00000  Uiso   1.00
H24    H     0.90566   0.90722   0.21994   0.00000  Uiso   1.00
H25    H     0.90363   0.79984   0.15718   0.00000  Uiso   1.00
H26    H     0.88017   0.95056   0.32753   0.00000  Uiso   1.00
H27    H     0.88029   0.97252   0.17723   0.00000  Uiso   1.00
H28    H     0.98475   0.67883   0.08432   0.00000  Uiso   1.00
H29    H     0.93527   0.99664   0.44351   0.00000  Uiso   1.00
H30    H     0.93550   0.04296   0.12656   0.00000  Uiso   1.00
H31    H     0.54793   0.89207   0.19440   0.00000  Uiso   1.00
H32    H     0.58116   0.78386   0.13024   0.00000  Uiso   1.00
H33    H     0.55769   0.93457   0.30060   0.00000  Uiso   1.00
H34    H     0.55780   0.95654   0.15029   0.00000  Uiso   1.00
H35    H     0.53465   0.66586   0.06245   0.00000  Uiso   1.00
H36    H     0.48517   0.98367   0.42165   0.00000  Uiso   1.00
H37    H     0.48541   0.02998   0.10470   0.00000  Uiso   1.00
O38    O     0.26997   0.60144   0.03166   0.00000  Uiso   1.00
O39    O     0.20505   0.01839   0.50290   0.00000  Uiso   1.00
O40    O     0.20536   0.07916   0.08707   0.00000  Uiso   1.00
N41    N     0.10961   0.69063   0.08797   0.00000  Uiso   1.00
N42    N     0.06335   0.98775   0.42379   0.00000  Uiso   1.00
N43    N     0.06357   0.03107   0.12748   0.00000  Uiso   1.00
N44    N     0.40551   0.68365   0.07620   0.00000  Uiso   1.00
N45    N     0.35925   0.98077   0.41202   0.00000  Uiso   1.00
N46    N     0.35946   0.02409   0.11572   0.00000  Uiso   1.00
C47    C     0.27062   0.78523   0.69074   0.00000  Uiso   1.00
C48    C     0.32656   0.82359   0.66777   0.00000  Uiso   1.00
C49    C     0.21487   0.84820   0.64679   0.00000  Uiso   1.00
C50    C     0.29172   0.88193   0.62775   0.00000  Uiso   1.00
C51    C     0.35091   0.94015   0.59177   0.00000  Uiso   1.00
C52    C     0.39870   0.73080   0.65677   0.00000  Uiso   1.00
C53    C     0.34767   0.67739   0.62656   0.00000  Uiso   1.00
C54    C     0.48526   0.63300   0.59827   0.00000  Uiso   1.00
C55    C     0.65646   0.54715   0.54525   0.00000  Uiso   1.00
C56    C     0.31624   0.81234   0.75006   0.00000  Uiso   1.00
C57    C     0.19589   0.82748   0.79829   0.00000  Uiso   1.00
C58    C     0.26407   0.85173   0.84854   0.00000  Uiso   1.00
C59    C     0.30723   0.89249   0.94037   0.00000  Uiso   1.00
C60    C     0.60571   0.80137   0.69422   0.00000  Uiso   1.00
C61    C     0.50857   0.83236   0.66966   0.00000  Uiso   1.00
C62    C     0.58561   0.86606   0.65065   0.00000  Uiso   1.00
C63    C     0.47405   0.89071   0.62965   0.00000  Uiso   1.00
C64    C     0.58071   0.73956   0.65866   0.00000  Uiso   1.00
C65    C     0.71841   0.69524   0.63041   0.00000  Uiso   1.00
C66    C     0.66760   0.64178   0.60017   0.00000  Uiso   1.00
C67    C     0.49825   0.82111   0.75195   0.00000  Uiso   1.00
C68    C     0.56663   0.84534   0.80214   0.00000  Uiso   1.00
C69    C     0.44641   0.86051   0.85044   0.00000  Uiso   1.00
H70    H     0.12892   0.77840   0.68926   0.00000  Uiso   1.00
H71    H     0.07402   0.84140   0.64533   0.00000  Uiso   1.00
H72    H     0.20681   0.67062   0.62511   0.00000  Uiso   1.00
H73    H     0.05506   0.82069   0.79681   0.00000  Uiso   1.00
H74    H     0.09344   0.91511   0.59744   0.00000  Uiso   1.00
H75    H     0.37342   0.55499   0.55481   0.00000  Uiso   1.00
H76    H     0.05342   0.87144   0.91688   0.00000  Uiso   1.00
H77    H     0.74742   0.80819   0.69569   0.00000  Uiso   1.00
H78    H     0.72646   0.87283   0.65212   0.00000  Uiso   1.00
H79    H     0.85924   0.70204   0.63189   0.00000  Uiso   1.00
H80    H     0.70749   0.85211   0.80359   0.00000  Uiso   1.00
H81    H     0.62299   0.94061   0.60295   0.00000  Uiso   1.00
H82    H     0.90296   0.58049   0.56032   0.00000  Uiso   1.00
H83    H     0.58296   0.89695   0.92238   0.00000  Uiso   1.00
O84    O     0.33328   0.96983   0.57139   0.00000  Uiso   1.00
O85    O     0.70060   0.49737   0.51548   0.00000  Uiso   1.00
O86    O     0.28076   0.91255   0.99049   0.00000  Uiso   1.00
N87    N     0.22094   0.91225   0.60473   0.00000  Uiso   1.00
N88    N     0.48270   0.57556   0.56487   0.00000  Uiso   1.00
N89    N     0.18354   0.87140   0.90336   0.00000  Uiso   1.00
N90    N     0.50588   0.92597   0.60769   0.00000  Uiso   1.00
N91    N     0.76764   0.58929   0.56783   0.00000  Uiso   1.00
N92    N     0.46848   0.88513   0.90633   0.00000  Uiso   1.00
C93    C     0.96010   0.30828   0.09514   0.00000  Uiso   1.00
C94    C     0.98969   0.33148   0.15577   0.00000  Uiso   1.00
C95    C     0.85482   0.35161   0.20179   0.00000  Uiso   1.00
C96    C     0.90967   0.37103   0.25376   0.00000  Uiso   1.00
C97    C     0.92775   0.40718   0.34705   0.00000  Uiso   1.00
C98    C     0.05929   0.34323   0.07422   0.00000  Uiso   1.00
C99    C     0.98293   0.37323   0.05167   0.00000  Uiso   1.00
C100   C     0.09639   0.40253   0.03499   0.00000  Uiso   1.00
C101   C     0.22255   0.45689   0.00163   0.00000  Uiso   1.00
C102   C     0.06245   0.24924   0.06259   0.00000  Uiso   1.00
C103   C     0.98877   0.20022   0.03026   0.00000  Uiso   1.00
C104   C     0.10491   0.15040   0.00377   0.00000  Uiso   1.00
C105   C     0.23598   0.05883   0.95236   0.00000  Uiso   1.00
C106   C     0.29738   0.30696   0.10559   0.00000  Uiso   1.00
C107   C     0.17289   0.33076   0.16144   0.00000  Uiso   1.00
C108   C     0.22797   0.35015   0.21335   0.00000  Uiso   1.00
C109   C     0.09320   0.37031   0.25945   0.00000  Uiso   1.00
C110   C     0.24248   0.34251   0.07989   0.00000  Uiso   1.00
C111   C     0.35608   0.37177   0.06323   0.00000  Uiso   1.00
C112   C     0.27992   0.40182   0.04067   0.00000  Uiso   1.00
C113   C     0.24565   0.24852   0.06827   0.00000  Uiso   1.00
C114   C     0.36192   0.19876   0.04182   0.00000  Uiso   1.00
C115   C     0.28843   0.14968   0.00946   0.00000  Uiso   1.00
H116   H     0.81748   0.30884   0.09072   0.00000  Uiso   1.00
H117   H     0.71306   0.35216   0.19739   0.00000  Uiso   1.00
H118   H     0.84117   0.37377   0.04728   0.00000  Uiso   1.00
H119   H     0.84700   0.20080   0.02588   0.00000  Uiso   1.00
H120   H     0.67808   0.39990   0.31815   0.00000  Uiso   1.00
H121   H     0.94821   0.44545   0.00163   0.00000  Uiso   1.00
H122   H     0.96051   0.08069   0.95649   0.00000  Uiso   1.00
H123   H     0.44001   0.30640   0.11000   0.00000  Uiso   1.00
H124   H     0.36974   0.34959   0.21773   0.00000  Uiso   1.00
H125   H     0.49784   0.37120   0.06763   0.00000  Uiso   1.00
H126   H     0.50368   0.19822   0.04622   0.00000  Uiso   1.00
H127   H     0.21106   0.39781   0.33467   0.00000  Uiso   1.00
H128   H     0.48119   0.44336   0.01815   0.00000  Uiso   1.00
H129   H     0.49350   0.07860   0.97300   0.00000  Uiso   1.00
O130   O     0.88712   0.42733   0.39693   0.00000  Uiso   1.00
O131   O     0.24152   0.48708   0.98166   0.00000  Uiso   1.00
O132   O     0.25766   0.00852   0.92243   0.00000  Uiso   1.00
N133   N     0.81316   0.39347   0.30725   0.00000  Uiso   1.00
N134   N     0.06571   0.43607   0.01134   0.00000  Uiso   1.00
N135   N     0.07722   0.09505   0.96912   0.00000  Uiso   1.00
N136   N     0.09995   0.39235   0.31614   0.00000  Uiso   1.00
N137   N     0.35250   0.43494   0.02022   0.00000  Uiso   1.00
N138   N     0.36402   0.09392   0.97800   0.00000  Uiso   1.00
C139   C     0.94720   0.09625   0.78592   0.00000  Uiso   1.00
C140   C     0.85923   0.15669   0.82356   0.00000  Uiso   1.00
C141   C     0.95009   0.20362   0.84864   0.00000  Uiso   1.00
C142   C     0.84514   0.25523   0.88155   0.00000  Uiso   1.00
C143   C     0.73730   0.34840   0.93883   0.00000  Uiso   1.00
C144   C     0.87198   0.07481   0.73100   0.00000  Uiso   1.00
C145   C     0.97357   0.05289   0.67827   0.00000  Uiso   1.00
C146   C     0.87933   0.03557   0.63326   0.00000  Uiso   1.00
C147   C     0.79129   0.00158   0.54684   0.00000  Uiso   1.00
C148   C     0.87192   0.06288   0.81267   0.00000  Uiso   1.00
C149   C     0.97346   0.03092   0.82859   0.00000  Uiso   1.00
C150   C     0.87917   0.00354   0.85234   0.00000  Uiso   1.00
C151   C     0.79104   0.95103   0.89272   0.00000  Uiso   1.00
C152   C     0.59922   0.10446   0.79975   0.00000  Uiso   1.00
C153   C     0.67022   0.16115   0.83107   0.00000  Uiso   1.00
C154   C     0.56510   0.21270   0.86395   0.00000  Uiso   1.00
C155   C     0.65579   0.25970   0.88908   0.00000  Uiso   1.00
C156   C     0.68298   0.07927   0.73851   0.00000  Uiso   1.00
C157   C     0.58857   0.06197   0.69357   0.00000  Uiso   1.00
C158   C     0.68999   0.04003   0.64079   0.00000  Uiso   1.00
C159   C     0.68291   0.06734   0.82019   0.00000  Uiso   1.00
C160   C     0.58846   0.04000   0.84390   0.00000  Uiso   1.00
C161   C     0.68983   0.00801   0.85986   0.00000  Uiso   1.00
H162   H     0.09434   0.09278   0.78006   0.00000  Uiso   1.00
H163   H     0.09637   0.20016   0.84282   0.00000  Uiso   1.00
H164   H     0.11983   0.04944   0.67247   0.00000  Uiso   1.00
H165   H     0.11971   0.02748   0.82277   0.00000  Uiso   1.00
H166   H     0.01525   0.32117   0.91568   0.00000  Uiso   1.00
H167   H     0.06473   0.00336   0.55649   0.00000  Uiso   1.00
H168   H     0.06450   0.95704   0.87344   0.00000  Uiso   1.00
H169   H     0.45207   0.10793   0.80560   0.00000  Uiso   1.00
H170   H     0.41884   0.21614   0.86976   0.00000  Uiso   1.00
H171   H     0.44231   0.06543   0.69940   0.00000  Uiso   1.00
H172   H     0.44219   0.04346   0.84971   0.00000  Uiso   1.00
H173   H     0.46535   0.33414   0.93755   0.00000  Uiso   1.00
H174   H     0.51483   0.01633   0.57835   0.00000  Uiso   1.00
H175   H     0.51459   0.97002   0.89530   0.00000  Uiso   1.00
O176   O     0.73003   0.39856   0.96834   0.00000  Uiso   1.00
O177   O     0.79495   0.98161   0.49710   0.00000  Uiso   1.00
O178   O     0.79464   0.92084   0.91293   0.00000  Uiso   1.00
N179   N     0.89039   0.30937   0.91203   0.00000  Uiso   1.00
N180   N     0.93665   0.01225   0.57621   0.00000  Uiso   1.00
N181   N     0.93643   0.96893   0.87252   0.00000  Uiso   1.00
N182   N     0.59449   0.31635   0.92380   0.00000  Uiso   1.00
N183   N     0.64075   0.01923   0.58798   0.00000  Uiso   1.00
N184   N     0.64053   0.97591   0.88428   0.00000  Uiso   1.00
C185   C     0.72938   0.21477   0.30926   0.00000  Uiso   1.00
C186   C     0.67344   0.17641   0.33223   0.00000  Uiso   1.00
C187   C     0.78513   0.15180   0.35321   0.00000  Uiso   1.00
C188   C     0.70828   0.11807   0.37225   0.00000  Uiso   1.00
C189   C     0.64909   0.05985   0.40823   0.00000  Uiso   1.00
C190   C     0.60130   0.26920   0.34323   0.00000  Uiso   1.00
C191   C     0.65233   0.32261   0.37344   0.00000  Uiso   1.00
C192   C     0.51474   0.36700   0.40173   0.00000  Uiso   1.00
C193   C     0.34354   0.45285   0.45475   0.00000  Uiso   1.00
C194   C     0.68376   0.18766   0.24994   0.00000  Uiso   1.00
C195   C     0.80411   0.17252   0.20171   0.00000  Uiso   1.00
C196   C     0.73593   0.14827   0.15146   0.00000  Uiso   1.00
C197   C     0.69277   0.10751   0.05963   0.00000  Uiso   1.00
C198   C     0.39429   0.19863   0.30578   0.00000  Uiso   1.00
C199   C     0.49143   0.16764   0.33034   0.00000  Uiso   1.00
C200   C     0.41439   0.13394   0.34935   0.00000  Uiso   1.00
C201   C     0.52595   0.10929   0.37035   0.00000  Uiso   1.00
C202   C     0.41929   0.26044   0.34134   0.00000  Uiso   1.00
C203   C     0.28159   0.30476   0.36959   0.00000  Uiso   1.00
C204   C     0.33240   0.35822   0.39983   0.00000  Uiso   1.00
C205   C     0.50175   0.17889   0.24805   0.00000  Uiso   1.00
C206   C     0.43337   0.15466   0.19786   0.00000  Uiso   1.00
C207   C     0.55359   0.13949   0.14956   0.00000  Uiso   1.00
H208   H     0.87108   0.22160   0.31074   0.00000  Uiso   1.00
H209   H     0.92597   0.15860   0.35467   0.00000  Uiso   1.00
H210   H     0.79319   0.32938   0.37489   0.00000  Uiso   1.00
H211   H     0.94494   0.17931   0.20319   0.00000  Uiso   1.00
H212   H     0.90656   0.08489   0.40256   0.00000  Uiso   1.00
H213   H     0.62658   0.44501   0.44519   0.00000  Uiso   1.00
H214   H     0.94658   0.12856   0.08312   0.00000  Uiso   1.00
H215   H     0.25258   0.19181   0.30431   0.00000  Uiso   1.00
H216   H     0.27354   0.12717   0.34788   0.00000  Uiso   1.00
H217   H     0.14076   0.29796   0.36811   0.00000  Uiso   1.00
H218   H     0.29251   0.14789   0.19641   0.00000  Uiso   1.00
H219   H     0.37701   0.05939   0.39705   0.00000  Uiso   1.00
H220   H     0.09704   0.41950   0.43968   0.00000  Uiso   1.00
H221   H     0.41704   0.10305   0.07762   0.00000  Uiso   1.00
O222   O     0.66672   0.03017   0.42861   0.00000  Uiso   1.00
O223   O     0.29940   0.50263   0.48452   0.00000  Uiso   1.00
O224   O     0.71924   0.08745   0.00951   0.00000  Uiso   1.00
N225   N     0.77906   0.08775   0.39527   0.00000  Uiso   1.00
N226   N     0.51730   0.42444   0.43513   0.00000  Uiso   1.00
N227   N     0.81646   0.12860   0.09664   0.00000  Uiso   1.00
N228   N     0.49412   0.07403   0.39231   0.00000  Uiso   1.00
N229   N     0.23236   0.41071   0.43217   0.00000  Uiso   1.00
N230   N     0.53152   0.11487   0.09367   0.00000  Uiso   1.00
C231   C     0.03990   0.69172   0.90486   0.00000  Uiso   1.00
C232   C     0.01031   0.66852   0.84423   0.00000  Uiso   1.00
C233   C     0.14518   0.64839   0.79820   0.00000  Uiso   1.00
C234   C     0.09032   0.62897   0.74624   0.00000  Uiso   1.00
C235   C     0.07225   0.59282   0.65295   0.00000  Uiso   1.00
C236   C     0.94071   0.65677   0.92578   0.00000  Uiso   1.00
C237   C     0.01707   0.62677   0.94833   0.00000  Uiso   1.00
C238   C     0.90361   0.59746   0.96501   0.00000  Uiso   1.00
C239   C     0.77745   0.54311   0.99837   0.00000  Uiso   1.00
C240   C     0.93754   0.75076   0.93741   0.00000  Uiso   1.00
C241   C     0.01123   0.79978   0.96974   0.00000  Uiso   1.00
C242   C     0.89509   0.84960   0.99623   0.00000  Uiso   1.00
C243   C     0.76402   0.94117   0.04764   0.00000  Uiso   1.00
C244   C     0.70262   0.69304   0.89441   0.00000  Uiso   1.00
C245   C     0.82711   0.66924   0.83856   0.00000  Uiso   1.00
C246   C     0.77203   0.64985   0.78665   0.00000  Uiso   1.00
C247   C     0.90680   0.62969   0.74055   0.00000  Uiso   1.00
C248   C     0.75752   0.65749   0.92011   0.00000  Uiso   1.00
C249   C     0.64392   0.62823   0.93677   0.00000  Uiso   1.00
C250   C     0.72008   0.59818   0.95933   0.00000  Uiso   1.00
C251   C     0.75435   0.75148   0.93173   0.00000  Uiso   1.00
C252   C     0.63808   0.80124   0.95818   0.00000  Uiso   1.00
C253   C     0.71157   0.85032   0.99054   0.00000  Uiso   1.00
H254   H     0.18252   0.69116   0.90928   0.00000  Uiso   1.00
H255   H     0.28694   0.64784   0.80261   0.00000  Uiso   1.00
H256   H     0.15883   0.62623   0.95272   0.00000  Uiso   1.00
H257   H     0.15299   0.79920   0.97412   0.00000  Uiso   1.00
H258   H     0.32192   0.60010   0.68185   0.00000  Uiso   1.00
H259   H     0.05179   0.55455   0.99837   0.00000  Uiso   1.00
H260   H     0.03949   0.91931   0.04351   0.00000  Uiso   1.00
H261   H     0.55999   0.69360   0.89000   0.00000  Uiso   1.00
H262   H     0.63026   0.65041   0.78227   0.00000  Uiso   1.00
H263   H     0.50216   0.62880   0.93237   0.00000  Uiso   1.00
H264   H     0.49632   0.80178   0.95378   0.00000  Uiso   1.00
H265   H     0.78894   0.60219   0.66533   0.00000  Uiso   1.00
H266   H     0.51881   0.55664   0.98185   0.00000  Uiso   1.00
H267   H     0.50650   0.92140   0.02700   0.00000  Uiso   1.00
O268   O     0.11288   0.57267   0.60307   0.00000  Uiso   1.00
O269   O     0.75848   0.51292   0.01834   0.00000  Uiso   1.00
O270   O     0.74234   0.99148   0.07757   0.00000  Uiso   1.00
N271   N     0.18684   0.60653   0.69275   0.00000  Uiso   1.00
N272   N     0.93429   0.56393   0.98866   0.00000  Uiso   1.00
N273   N     0.92278   0.90495   0.03088   0.00000  Uiso   1.00
N274   N     0.90005   0.60765   0.68386   0.00000  Uiso   1.00
N275   N     0.64750   0.56506   0.97978   0.00000  Uiso   1.00
N276   N     0.63598   0.90608   0.02200   0.00000  Uiso   1.00
