data_job_00348
_audit_creation_date              2018-12-19
_audit_creation_method            'Materials Studio'
_symmetry_space_group_name_H-M    'P1'
_symmetry_Int_Tables_number       1
_symmetry_cell_setting            triclinic
loop_
_symmetry_equiv_pos_as_xyz
  x,y,z
_cell_length_a                    45.0727
_cell_length_b                    45.0727
_cell_length_c                    7.1806
_cell_angle_alpha                 90.0000
_cell_angle_beta                  90.0000
_cell_angle_gamma                 90.0000
loop_
_atom_site_label
_atom_site_type_symbol
_atom_site_fract_x
_atom_site_fract_y
_atom_site_fract_z
_atom_site_U_iso_or_equiv
_atom_site_adp_type
_atom_site_occupancy
C1     C     0.14472   0.14477   0.57046   0.00000  Uiso   1.00
C2     C     0.16679   0.16684   0.65248   0.00000  Uiso   1.00
C3     C     0.18534   0.18539   0.55137   0.00000  Uiso   1.00
C4     C     0.20392   0.20397   0.65231   0.00000  Uiso   1.00
C5     C     0.23820   0.23822   0.75000   0.00000  Uiso   1.00
C6     C     0.15280   0.11463   0.65244   0.00000  Uiso   1.00
C7     C     0.15959   0.08928   0.55128   0.00000  Uiso   1.00
C8     C     0.16640   0.06390   0.65218   0.00000  Uiso   1.00
C9     C     0.17894   0.01709   0.74980   0.00000  Uiso   1.00
C10    C     0.11458   0.15284   0.65253   0.00000  Uiso   1.00
C11    C     0.08922   0.15962   0.55145   0.00000  Uiso   1.00
C12    C     0.06384   0.16641   0.65243   0.00000  Uiso   1.00
C13    C     0.01704   0.17893   0.75019   0.00000  Uiso   1.00
C14    C     0.14473   0.14476   0.92953   0.00000  Uiso   1.00
C15    C     0.16679   0.16683   0.84752   0.00000  Uiso   1.00
C16    C     0.18535   0.18538   0.94864   0.00000  Uiso   1.00
C17    C     0.20393   0.20396   0.84769   0.00000  Uiso   1.00
C18    C     0.15281   0.11462   0.84746   0.00000  Uiso   1.00
C19    C     0.15960   0.08927   0.94854   0.00000  Uiso   1.00
C20    C     0.16640   0.06390   0.84757   0.00000  Uiso   1.00
C21    C     0.11458   0.15284   0.84756   0.00000  Uiso   1.00
C22    C     0.08924   0.15961   0.94872   0.00000  Uiso   1.00
C23    C     0.06385   0.16640   0.84781   0.00000  Uiso   1.00
H24    H     0.14471   0.14478   0.41862   0.00000  Uiso   1.00
H25    H     0.18533   0.18539   0.40044   0.00000  Uiso   1.00
H26    H     0.15958   0.08930   0.40035   0.00000  Uiso   1.00
H27    H     0.08923   0.15963   0.40053   0.00000  Uiso   1.00
H28    H     0.23037   0.23041   0.46629   0.00000  Uiso   1.00
H29    H     0.17607   0.02778   0.46610   0.00000  Uiso   1.00
H30    H     0.02771   0.17609   0.46646   0.00000  Uiso   1.00
H31    H     0.14473   0.14476   0.08138   0.00000  Uiso   1.00
H32    H     0.18535   0.18537   0.09956   0.00000  Uiso   1.00
H33    H     0.15960   0.08927   0.09947   0.00000  Uiso   1.00
H34    H     0.08925   0.15960   0.09964   0.00000  Uiso   1.00
H35    H     0.23039   0.23039   0.03372   0.00000  Uiso   1.00
H36    H     0.17608   0.02776   0.03353   0.00000  Uiso   1.00
H37    H     0.02773   0.17607   0.03390   0.00000  Uiso   1.00
O38    O     0.25711   0.25711   0.75001   0.00000  Uiso   1.00
O39    O     0.18586   0.99127   0.74976   0.00000  Uiso   1.00
O40    O     0.99122   0.18585   0.75024   0.00000  Uiso   1.00
N41    N     0.22480   0.22483   0.59734   0.00000  Uiso   1.00
N42    N     0.17403   0.03539   0.59716   0.00000  Uiso   1.00
N43    N     0.03533   0.17404   0.59750   0.00000  Uiso   1.00
N44    N     0.22481   0.22483   0.90267   0.00000  Uiso   1.00
N45    N     0.17404   0.03538   0.90249   0.00000  Uiso   1.00
N46    N     0.03534   0.17403   0.90283   0.00000  Uiso   1.00
C47    C     0.85528   0.85523   0.57046   0.00000  Uiso   1.00
C48    C     0.83321   0.83316   0.65248   0.00000  Uiso   1.00
C49    C     0.81466   0.81461   0.55137   0.00000  Uiso   1.00
C50    C     0.79608   0.79603   0.65231   0.00000  Uiso   1.00
C51    C     0.76180   0.76178   0.75000   0.00000  Uiso   1.00
C52    C     0.84720   0.88537   0.65244   0.00000  Uiso   1.00
C53    C     0.84041   0.91072   0.55128   0.00000  Uiso   1.00
C54    C     0.83360   0.93610   0.65218   0.00000  Uiso   1.00
C55    C     0.82106   0.98291   0.74980   0.00000  Uiso   1.00
C56    C     0.88542   0.84716   0.65253   0.00000  Uiso   1.00
C57    C     0.91078   0.84038   0.55145   0.00000  Uiso   1.00
C58    C     0.93616   0.83359   0.65243   0.00000  Uiso   1.00
C59    C     0.98296   0.82107   0.75019   0.00000  Uiso   1.00
C60    C     0.85527   0.85524   0.92953   0.00000  Uiso   1.00
C61    C     0.83321   0.83317   0.84752   0.00000  Uiso   1.00
C62    C     0.81465   0.81462   0.94864   0.00000  Uiso   1.00
C63    C     0.79607   0.79604   0.84769   0.00000  Uiso   1.00
C64    C     0.84719   0.88538   0.84746   0.00000  Uiso   1.00
C65    C     0.84040   0.91073   0.94854   0.00000  Uiso   1.00
C66    C     0.83360   0.93610   0.84757   0.00000  Uiso   1.00
C67    C     0.88542   0.84716   0.84756   0.00000  Uiso   1.00
C68    C     0.91076   0.84039   0.94872   0.00000  Uiso   1.00
C69    C     0.93615   0.83360   0.84781   0.00000  Uiso   1.00
H70    H     0.85529   0.85522   0.41862   0.00000  Uiso   1.00
H71    H     0.81467   0.81461   0.40044   0.00000  Uiso   1.00
H72    H     0.84042   0.91070   0.40035   0.00000  Uiso   1.00
H73    H     0.91077   0.84037   0.40053   0.00000  Uiso   1.00
H74    H     0.76963   0.76959   0.46629   0.00000  Uiso   1.00
H75    H     0.82393   0.97222   0.46610   0.00000  Uiso   1.00
H76    H     0.97229   0.82391   0.46646   0.00000  Uiso   1.00
H77    H     0.85527   0.85524   0.08138   0.00000  Uiso   1.00
H78    H     0.81465   0.81463   0.09956   0.00000  Uiso   1.00
H79    H     0.84040   0.91073   0.09947   0.00000  Uiso   1.00
H80    H     0.91075   0.84040   0.09964   0.00000  Uiso   1.00
H81    H     0.76961   0.76961   0.03372   0.00000  Uiso   1.00
H82    H     0.82392   0.97224   0.03353   0.00000  Uiso   1.00
H83    H     0.97227   0.82393   0.03390   0.00000  Uiso   1.00
O84    O     0.74289   0.74289   0.75001   0.00000  Uiso   1.00
O85    O     0.81414   0.00873   0.74976   0.00000  Uiso   1.00
O86    O     0.00878   0.81415   0.75024   0.00000  Uiso   1.00
N87    N     0.77520   0.77517   0.59734   0.00000  Uiso   1.00
N88    N     0.82597   0.96461   0.59716   0.00000  Uiso   1.00
N89    N     0.96467   0.82596   0.59750   0.00000  Uiso   1.00
N90    N     0.77519   0.77517   0.90267   0.00000  Uiso   1.00
N91    N     0.82596   0.96462   0.90249   0.00000  Uiso   1.00
N92    N     0.96466   0.82597   0.90283   0.00000  Uiso   1.00
C93    C     0.35523   0.64472   0.57046   0.00000  Uiso   1.00
C94    C     0.33316   0.66679   0.65248   0.00000  Uiso   1.00
C95    C     0.31461   0.68534   0.55137   0.00000  Uiso   1.00
C96    C     0.29603   0.70392   0.65231   0.00000  Uiso   1.00
C97    C     0.26178   0.73820   0.75000   0.00000  Uiso   1.00
C98    C     0.38537   0.65280   0.65244   0.00000  Uiso   1.00
C99    C     0.41072   0.65959   0.55128   0.00000  Uiso   1.00
C100   C     0.43610   0.66640   0.65218   0.00000  Uiso   1.00
C101   C     0.48291   0.67894   0.74980   0.00000  Uiso   1.00
C102   C     0.34716   0.61458   0.65253   0.00000  Uiso   1.00
C103   C     0.34038   0.58922   0.55145   0.00000  Uiso   1.00
C104   C     0.33359   0.56384   0.65243   0.00000  Uiso   1.00
C105   C     0.32107   0.51704   0.75019   0.00000  Uiso   1.00
C106   C     0.35524   0.64473   0.92953   0.00000  Uiso   1.00
C107   C     0.33317   0.66679   0.84752   0.00000  Uiso   1.00
C108   C     0.31462   0.68535   0.94864   0.00000  Uiso   1.00
C109   C     0.29604   0.70393   0.84769   0.00000  Uiso   1.00
C110   C     0.38538   0.65281   0.84746   0.00000  Uiso   1.00
C111   C     0.41073   0.65960   0.94854   0.00000  Uiso   1.00
C112   C     0.43610   0.66640   0.84757   0.00000  Uiso   1.00
C113   C     0.34716   0.61458   0.84756   0.00000  Uiso   1.00
C114   C     0.34039   0.58924   0.94872   0.00000  Uiso   1.00
C115   C     0.33360   0.56385   0.84781   0.00000  Uiso   1.00
H116   H     0.35522   0.64471   0.41862   0.00000  Uiso   1.00
H117   H     0.31461   0.68533   0.40044   0.00000  Uiso   1.00
H118   H     0.41070   0.65958   0.40035   0.00000  Uiso   1.00
H119   H     0.34037   0.58923   0.40053   0.00000  Uiso   1.00
H120   H     0.26959   0.73037   0.46629   0.00000  Uiso   1.00
H121   H     0.47222   0.67607   0.46610   0.00000  Uiso   1.00
H122   H     0.32391   0.52771   0.46646   0.00000  Uiso   1.00
H123   H     0.35524   0.64473   0.08138   0.00000  Uiso   1.00
H124   H     0.31463   0.68535   0.09956   0.00000  Uiso   1.00
H125   H     0.41073   0.65960   0.09947   0.00000  Uiso   1.00
H126   H     0.34040   0.58925   0.09964   0.00000  Uiso   1.00
H127   H     0.26961   0.73039   0.03372   0.00000  Uiso   1.00
H128   H     0.47224   0.67608   0.03353   0.00000  Uiso   1.00
H129   H     0.32393   0.52773   0.03390   0.00000  Uiso   1.00
O130   O     0.24289   0.75711   0.75001   0.00000  Uiso   1.00
O131   O     0.50873   0.68586   0.74976   0.00000  Uiso   1.00
O132   O     0.31415   0.49122   0.75024   0.00000  Uiso   1.00
N133   N     0.27517   0.72480   0.59734   0.00000  Uiso   1.00
N134   N     0.46461   0.67403   0.59716   0.00000  Uiso   1.00
N135   N     0.32596   0.53533   0.59750   0.00000  Uiso   1.00
N136   N     0.27517   0.72481   0.90267   0.00000  Uiso   1.00
N137   N     0.46462   0.67404   0.90249   0.00000  Uiso   1.00
N138   N     0.32597   0.53534   0.90283   0.00000  Uiso   1.00
C139   C     0.64477   0.35528   0.57046   0.00000  Uiso   1.00
C140   C     0.66684   0.33321   0.65248   0.00000  Uiso   1.00
C141   C     0.68539   0.31466   0.55137   0.00000  Uiso   1.00
C142   C     0.70397   0.29608   0.65231   0.00000  Uiso   1.00
C143   C     0.73822   0.26180   0.75000   0.00000  Uiso   1.00
C144   C     0.61463   0.34720   0.65244   0.00000  Uiso   1.00
C145   C     0.58928   0.34041   0.55128   0.00000  Uiso   1.00
C146   C     0.56390   0.33360   0.65218   0.00000  Uiso   1.00
C147   C     0.51709   0.32106   0.74980   0.00000  Uiso   1.00
C148   C     0.65284   0.38542   0.65253   0.00000  Uiso   1.00
C149   C     0.65962   0.41078   0.55145   0.00000  Uiso   1.00
C150   C     0.66641   0.43616   0.65243   0.00000  Uiso   1.00
C151   C     0.67893   0.48296   0.75019   0.00000  Uiso   1.00
C152   C     0.64476   0.35527   0.92953   0.00000  Uiso   1.00
C153   C     0.66683   0.33321   0.84752   0.00000  Uiso   1.00
C154   C     0.68538   0.31465   0.94864   0.00000  Uiso   1.00
C155   C     0.70396   0.29607   0.84769   0.00000  Uiso   1.00
C156   C     0.61462   0.34719   0.84746   0.00000  Uiso   1.00
C157   C     0.58927   0.34040   0.94854   0.00000  Uiso   1.00
C158   C     0.56390   0.33360   0.84757   0.00000  Uiso   1.00
C159   C     0.65284   0.38542   0.84756   0.00000  Uiso   1.00
C160   C     0.65961   0.41076   0.94872   0.00000  Uiso   1.00
C161   C     0.66640   0.43615   0.84781   0.00000  Uiso   1.00
H162   H     0.64478   0.35529   0.41862   0.00000  Uiso   1.00
H163   H     0.68539   0.31467   0.40044   0.00000  Uiso   1.00
H164   H     0.58930   0.34042   0.40035   0.00000  Uiso   1.00
H165   H     0.65963   0.41077   0.40053   0.00000  Uiso   1.00
H166   H     0.73041   0.26963   0.46629   0.00000  Uiso   1.00
H167   H     0.52778   0.32393   0.46610   0.00000  Uiso   1.00
H168   H     0.67609   0.47229   0.46646   0.00000  Uiso   1.00
H169   H     0.64476   0.35527   0.08138   0.00000  Uiso   1.00
H170   H     0.68537   0.31465   0.09956   0.00000  Uiso   1.00
H171   H     0.58927   0.34040   0.09947   0.00000  Uiso   1.00
H172   H     0.65960   0.41075   0.09964   0.00000  Uiso   1.00
H173   H     0.73039   0.26961   0.03372   0.00000  Uiso   1.00
H174   H     0.52776   0.32392   0.03353   0.00000  Uiso   1.00
H175   H     0.67607   0.47227   0.03390   0.00000  Uiso   1.00
O176   O     0.75711   0.24289   0.75001   0.00000  Uiso   1.00
O177   O     0.49127   0.31414   0.74976   0.00000  Uiso   1.00
O178   O     0.68585   0.50878   0.75024   0.00000  Uiso   1.00
N179   N     0.72483   0.27520   0.59734   0.00000  Uiso   1.00
N180   N     0.53539   0.32597   0.59716   0.00000  Uiso   1.00
N181   N     0.67404   0.46467   0.59750   0.00000  Uiso   1.00
N182   N     0.72483   0.27519   0.90267   0.00000  Uiso   1.00
N183   N     0.53538   0.32596   0.90249   0.00000  Uiso   1.00
N184   N     0.67403   0.46466   0.90283   0.00000  Uiso   1.00
C185   C     0.35528   0.35523   0.42954   0.00000  Uiso   1.00
C186   C     0.33321   0.33316   0.34752   0.00000  Uiso   1.00
C187   C     0.31466   0.31461   0.44863   0.00000  Uiso   1.00
C188   C     0.29608   0.29603   0.34769   0.00000  Uiso   1.00
C189   C     0.26180   0.26178   0.25000   0.00000  Uiso   1.00
C190   C     0.34720   0.38537   0.34756   0.00000  Uiso   1.00
C191   C     0.34041   0.41072   0.44872   0.00000  Uiso   1.00
C192   C     0.33360   0.43610   0.34782   0.00000  Uiso   1.00
C193   C     0.32106   0.48291   0.25020   0.00000  Uiso   1.00
C194   C     0.38542   0.34716   0.34747   0.00000  Uiso   1.00
C195   C     0.41078   0.34038   0.44855   0.00000  Uiso   1.00
C196   C     0.43616   0.33359   0.34757   0.00000  Uiso   1.00
C197   C     0.48296   0.32107   0.24981   0.00000  Uiso   1.00
C198   C     0.35527   0.35524   0.07047   0.00000  Uiso   1.00
C199   C     0.33321   0.33317   0.15248   0.00000  Uiso   1.00
C200   C     0.31465   0.31462   0.05136   0.00000  Uiso   1.00
C201   C     0.29607   0.29604   0.15231   0.00000  Uiso   1.00
C202   C     0.34719   0.38538   0.15254   0.00000  Uiso   1.00
C203   C     0.34040   0.41073   0.05146   0.00000  Uiso   1.00
C204   C     0.33360   0.43610   0.15243   0.00000  Uiso   1.00
C205   C     0.38542   0.34716   0.15244   0.00000  Uiso   1.00
C206   C     0.41076   0.34039   0.05128   0.00000  Uiso   1.00
C207   C     0.43615   0.33360   0.15219   0.00000  Uiso   1.00
H208   H     0.35529   0.35522   0.58138   0.00000  Uiso   1.00
H209   H     0.31467   0.31461   0.59956   0.00000  Uiso   1.00
H210   H     0.34042   0.41070   0.59965   0.00000  Uiso   1.00
H211   H     0.41077   0.34037   0.59947   0.00000  Uiso   1.00
H212   H     0.26963   0.26959   0.53371   0.00000  Uiso   1.00
H213   H     0.32393   0.47222   0.53390   0.00000  Uiso   1.00
H214   H     0.47229   0.32391   0.53354   0.00000  Uiso   1.00
H215   H     0.35527   0.35524   0.91862   0.00000  Uiso   1.00
H216   H     0.31465   0.31463   0.90044   0.00000  Uiso   1.00
H217   H     0.34040   0.41073   0.90053   0.00000  Uiso   1.00
H218   H     0.41075   0.34040   0.90036   0.00000  Uiso   1.00
H219   H     0.26961   0.26961   0.96628   0.00000  Uiso   1.00
H220   H     0.32392   0.47224   0.96647   0.00000  Uiso   1.00
H221   H     0.47227   0.32393   0.96610   0.00000  Uiso   1.00
O222   O     0.24289   0.24289   0.24999   0.00000  Uiso   1.00
O223   O     0.31414   0.50873   0.25024   0.00000  Uiso   1.00
O224   O     0.50878   0.31415   0.24976   0.00000  Uiso   1.00
N225   N     0.27520   0.27517   0.40266   0.00000  Uiso   1.00
N226   N     0.32597   0.46461   0.40284   0.00000  Uiso   1.00
N227   N     0.46467   0.32596   0.40250   0.00000  Uiso   1.00
N228   N     0.27519   0.27517   0.09733   0.00000  Uiso   1.00
N229   N     0.32596   0.46462   0.09751   0.00000  Uiso   1.00
N230   N     0.46466   0.32597   0.09717   0.00000  Uiso   1.00
C231   C     0.64472   0.64477   0.42954   0.00000  Uiso   1.00
C232   C     0.66679   0.66684   0.34752   0.00000  Uiso   1.00
C233   C     0.68534   0.68539   0.44863   0.00000  Uiso   1.00
C234   C     0.70392   0.70397   0.34769   0.00000  Uiso   1.00
C235   C     0.73820   0.73822   0.25000   0.00000  Uiso   1.00
C236   C     0.65280   0.61463   0.34756   0.00000  Uiso   1.00
C237   C     0.65959   0.58928   0.44872   0.00000  Uiso   1.00
C238   C     0.66640   0.56390   0.34782   0.00000  Uiso   1.00
C239   C     0.67894   0.51709   0.25020   0.00000  Uiso   1.00
C240   C     0.61458   0.65284   0.34747   0.00000  Uiso   1.00
C241   C     0.58922   0.65962   0.44855   0.00000  Uiso   1.00
C242   C     0.56384   0.66641   0.34757   0.00000  Uiso   1.00
C243   C     0.51704   0.67893   0.24981   0.00000  Uiso   1.00
C244   C     0.64473   0.64476   0.07047   0.00000  Uiso   1.00
C245   C     0.66679   0.66683   0.15248   0.00000  Uiso   1.00
C246   C     0.68535   0.68538   0.05136   0.00000  Uiso   1.00
C247   C     0.70393   0.70396   0.15231   0.00000  Uiso   1.00
C248   C     0.65281   0.61462   0.15254   0.00000  Uiso   1.00
C249   C     0.65960   0.58927   0.05146   0.00000  Uiso   1.00
C250   C     0.66640   0.56390   0.15243   0.00000  Uiso   1.00
C251   C     0.61458   0.65284   0.15244   0.00000  Uiso   1.00
C252   C     0.58924   0.65961   0.05128   0.00000  Uiso   1.00
C253   C     0.56385   0.66640   0.15219   0.00000  Uiso   1.00
H254   H     0.64471   0.64478   0.58138   0.00000  Uiso   1.00
H255   H     0.68533   0.68539   0.59956   0.00000  Uiso   1.00
H256   H     0.65958   0.58930   0.59965   0.00000  Uiso   1.00
H257   H     0.58923   0.65963   0.59947   0.00000  Uiso   1.00
H258   H     0.73037   0.73041   0.53371   0.00000  Uiso   1.00
H259   H     0.67607   0.52778   0.53390   0.00000  Uiso   1.00
H260   H     0.52771   0.67609   0.53354   0.00000  Uiso   1.00
H261   H     0.64473   0.64476   0.91862   0.00000  Uiso   1.00
H262   H     0.68535   0.68537   0.90044   0.00000  Uiso   1.00
H263   H     0.65960   0.58927   0.90053   0.00000  Uiso   1.00
H264   H     0.58925   0.65960   0.90036   0.00000  Uiso   1.00
H265   H     0.73039   0.73039   0.96628   0.00000  Uiso   1.00
H266   H     0.67608   0.52776   0.96647   0.00000  Uiso   1.00
H267   H     0.52773   0.67607   0.96610   0.00000  Uiso   1.00
O268   O     0.75711   0.75711   0.24999   0.00000  Uiso   1.00
O269   O     0.68586   0.49127   0.25024   0.00000  Uiso   1.00
O270   O     0.49122   0.68585   0.24976   0.00000  Uiso   1.00
N271   N     0.72480   0.72483   0.40266   0.00000  Uiso   1.00
N272   N     0.67403   0.53539   0.40284   0.00000  Uiso   1.00
N273   N     0.53533   0.67404   0.40250   0.00000  Uiso   1.00
N274   N     0.72481   0.72483   0.09733   0.00000  Uiso   1.00
N275   N     0.67404   0.53538   0.09751   0.00000  Uiso   1.00
N276   N     0.53534   0.67403   0.09717   0.00000  Uiso   1.00
C277   C     0.14477   0.85528   0.42954   0.00000  Uiso   1.00
C278   C     0.16684   0.83321   0.34752   0.00000  Uiso   1.00
C279   C     0.18539   0.81466   0.44863   0.00000  Uiso   1.00
C280   C     0.20397   0.79608   0.34769   0.00000  Uiso   1.00
C281   C     0.23822   0.76180   0.25000   0.00000  Uiso   1.00
C282   C     0.11463   0.84720   0.34756   0.00000  Uiso   1.00
C283   C     0.08928   0.84041   0.44872   0.00000  Uiso   1.00
C284   C     0.06390   0.83360   0.34782   0.00000  Uiso   1.00
C285   C     0.01709   0.82106   0.25020   0.00000  Uiso   1.00
C286   C     0.15284   0.88542   0.34747   0.00000  Uiso   1.00
C287   C     0.15962   0.91078   0.44855   0.00000  Uiso   1.00
C288   C     0.16641   0.93616   0.34757   0.00000  Uiso   1.00
C289   C     0.17893   0.98296   0.24981   0.00000  Uiso   1.00
C290   C     0.14476   0.85527   0.07047   0.00000  Uiso   1.00
C291   C     0.16683   0.83321   0.15248   0.00000  Uiso   1.00
C292   C     0.18538   0.81465   0.05136   0.00000  Uiso   1.00
C293   C     0.20396   0.79607   0.15231   0.00000  Uiso   1.00
C294   C     0.11462   0.84719   0.15254   0.00000  Uiso   1.00
C295   C     0.08927   0.84040   0.05146   0.00000  Uiso   1.00
C296   C     0.06390   0.83360   0.15243   0.00000  Uiso   1.00
C297   C     0.15284   0.88542   0.15244   0.00000  Uiso   1.00
C298   C     0.15961   0.91076   0.05128   0.00000  Uiso   1.00
C299   C     0.16640   0.93615   0.15219   0.00000  Uiso   1.00
H300   H     0.14478   0.85529   0.58138   0.00000  Uiso   1.00
H301   H     0.18539   0.81467   0.59956   0.00000  Uiso   1.00
H302   H     0.08930   0.84042   0.59965   0.00000  Uiso   1.00
H303   H     0.15963   0.91077   0.59947   0.00000  Uiso   1.00
H304   H     0.23041   0.76963   0.53371   0.00000  Uiso   1.00
H305   H     0.02778   0.82393   0.53390   0.00000  Uiso   1.00
H306   H     0.17609   0.97229   0.53354   0.00000  Uiso   1.00
H307   H     0.14476   0.85527   0.91862   0.00000  Uiso   1.00
H308   H     0.18537   0.81465   0.90044   0.00000  Uiso   1.00
H309   H     0.08927   0.84040   0.90053   0.00000  Uiso   1.00
H310   H     0.15960   0.91075   0.90036   0.00000  Uiso   1.00
H311   H     0.23039   0.76961   0.96628   0.00000  Uiso   1.00
H312   H     0.02776   0.82392   0.96647   0.00000  Uiso   1.00
H313   H     0.17607   0.97227   0.96610   0.00000  Uiso   1.00
O314   O     0.25711   0.74289   0.24999   0.00000  Uiso   1.00
O315   O     0.99127   0.81414   0.25024   0.00000  Uiso   1.00
O316   O     0.18585   0.00878   0.24976   0.00000  Uiso   1.00
N317   N     0.22483   0.77520   0.40266   0.00000  Uiso   1.00
N318   N     0.03539   0.82597   0.40284   0.00000  Uiso   1.00
N319   N     0.17404   0.96467   0.40250   0.00000  Uiso   1.00
N320   N     0.22483   0.77519   0.09733   0.00000  Uiso   1.00
N321   N     0.03538   0.82596   0.09751   0.00000  Uiso   1.00
N322   N     0.17403   0.96466   0.09717   0.00000  Uiso   1.00
C323   C     0.85523   0.14472   0.42954   0.00000  Uiso   1.00
C324   C     0.83316   0.16679   0.34752   0.00000  Uiso   1.00
C325   C     0.81461   0.18534   0.44863   0.00000  Uiso   1.00
C326   C     0.79603   0.20392   0.34769   0.00000  Uiso   1.00
C327   C     0.76178   0.23820   0.25000   0.00000  Uiso   1.00
C328   C     0.88537   0.15280   0.34756   0.00000  Uiso   1.00
C329   C     0.91072   0.15959   0.44872   0.00000  Uiso   1.00
C330   C     0.93610   0.16640   0.34782   0.00000  Uiso   1.00
C331   C     0.98291   0.17894   0.25020   0.00000  Uiso   1.00
C332   C     0.84716   0.11458   0.34747   0.00000  Uiso   1.00
C333   C     0.84038   0.08922   0.44855   0.00000  Uiso   1.00
C334   C     0.83359   0.06384   0.34757   0.00000  Uiso   1.00
C335   C     0.82107   0.01704   0.24981   0.00000  Uiso   1.00
C336   C     0.85524   0.14473   0.07047   0.00000  Uiso   1.00
C337   C     0.83317   0.16679   0.15248   0.00000  Uiso   1.00
C338   C     0.81462   0.18535   0.05136   0.00000  Uiso   1.00
C339   C     0.79604   0.20393   0.15231   0.00000  Uiso   1.00
C340   C     0.88538   0.15281   0.15254   0.00000  Uiso   1.00
C341   C     0.91073   0.15960   0.05146   0.00000  Uiso   1.00
C342   C     0.93610   0.16640   0.15243   0.00000  Uiso   1.00
C343   C     0.84716   0.11458   0.15244   0.00000  Uiso   1.00
C344   C     0.84039   0.08924   0.05128   0.00000  Uiso   1.00
C345   C     0.83360   0.06385   0.15219   0.00000  Uiso   1.00
H346   H     0.85522   0.14471   0.58138   0.00000  Uiso   1.00
H347   H     0.81461   0.18533   0.59956   0.00000  Uiso   1.00
H348   H     0.91070   0.15958   0.59965   0.00000  Uiso   1.00
H349   H     0.84037   0.08923   0.59947   0.00000  Uiso   1.00
H350   H     0.76959   0.23037   0.53371   0.00000  Uiso   1.00
H351   H     0.97222   0.17607   0.53390   0.00000  Uiso   1.00
H352   H     0.82391   0.02771   0.53354   0.00000  Uiso   1.00
H353   H     0.85524   0.14473   0.91862   0.00000  Uiso   1.00
H354   H     0.81463   0.18535   0.90044   0.00000  Uiso   1.00
H355   H     0.91073   0.15960   0.90053   0.00000  Uiso   1.00
H356   H     0.84040   0.08925   0.90036   0.00000  Uiso   1.00
H357   H     0.76961   0.23039   0.96628   0.00000  Uiso   1.00
H358   H     0.97224   0.17608   0.96647   0.00000  Uiso   1.00
H359   H     0.82393   0.02773   0.96610   0.00000  Uiso   1.00
O360   O     0.74289   0.25711   0.24999   0.00000  Uiso   1.00
O361   O     0.00873   0.18586   0.25024   0.00000  Uiso   1.00
O362   O     0.81415   0.99122   0.24976   0.00000  Uiso   1.00
N363   N     0.77517   0.22480   0.40266   0.00000  Uiso   1.00
N364   N     0.96461   0.17403   0.40284   0.00000  Uiso   1.00
N365   N     0.82596   0.03533   0.40250   0.00000  Uiso   1.00
N366   N     0.77517   0.22481   0.09733   0.00000  Uiso   1.00
N367   N     0.96462   0.17404   0.09751   0.00000  Uiso   1.00
N368   N     0.82597   0.03534   0.09717   0.00000  Uiso   1.00
