data_job_02762
_audit_creation_date              2018-12-19
_audit_creation_method            'Materials Studio'
_symmetry_space_group_name_H-M    'P1'
_symmetry_Int_Tables_number       1
_symmetry_cell_setting            triclinic
loop_
_symmetry_equiv_pos_as_xyz
  x,y,z
_cell_length_a                    19.5300
_cell_length_b                    39.0186
_cell_length_c                    9.7159
_cell_angle_alpha                 90.0000
_cell_angle_beta                  90.0000
_cell_angle_gamma                 90.0000
loop_
_atom_site_label
_atom_site_type_symbol
_atom_site_fract_x
_atom_site_fract_y
_atom_site_fract_z
_atom_site_U_iso_or_equiv
_atom_site_adp_type
_atom_site_occupancy
C1     C     0.62448   0.14542   0.77824   0.00000  Uiso   1.00
C2     C     0.65533   0.17272   0.68463   0.00000  Uiso   1.00
C3     C     0.72463   0.17750   0.65953   0.00000  Uiso   1.00
C4     C     0.74248   0.20390   0.57069   0.00000  Uiso   1.00
C5     C     0.79796   0.24313   0.43474   0.00000  Uiso   1.00
C6     C     0.58098   0.16462   0.88332   0.00000  Uiso   1.00
C7     C     0.58776   0.16258   0.02528   0.00000  Uiso   1.00
C8     C     0.54301   0.18216   0.10370   0.00000  Uiso   1.00
C9     C     0.48301   0.20880   0.27622   0.00000  Uiso   1.00
C10    C     0.57440   0.12522   0.68925   0.00000  Uiso   1.00
C11    C     0.57562   0.09005   0.66806   0.00000  Uiso   1.00
C12    C     0.52532   0.07646   0.58311   0.00000  Uiso   1.00
C13    C     0.45511   0.04192   0.45430   0.00000  Uiso   1.00
C14    C     0.53295   0.18381   0.66510   0.00000  Uiso   1.00
C15    C     0.60562   0.19357   0.62318   0.00000  Uiso   1.00
C16    C     0.62337   0.21997   0.53435   0.00000  Uiso   1.00
C17    C     0.69268   0.22479   0.50912   0.00000  Uiso   1.00
C18    C     0.53127   0.18547   0.82187   0.00000  Uiso   1.00
C19    C     0.48649   0.20505   0.90010   0.00000  Uiso   1.00
C20    C     0.49320   0.20305   0.04213   0.00000  Uiso   1.00
C21    C     0.52468   0.14607   0.62779   0.00000  Uiso   1.00
C22    C     0.47436   0.13253   0.54287   0.00000  Uiso   1.00
C23    C     0.47552   0.09735   0.52154   0.00000  Uiso   1.00
H24    H     0.66318   0.12918   0.82610   0.00000  Uiso   1.00
H25    H     0.76309   0.16136   0.70712   0.00000  Uiso   1.00
H26    H     0.62623   0.14644   0.07281   0.00000  Uiso   1.00
H27    H     0.61410   0.07392   0.71563   0.00000  Uiso   1.00
H28    H     0.85194   0.20623   0.54815   0.00000  Uiso   1.00
H29    H     0.56334   0.17477   0.31922   0.00000  Uiso   1.00
H30    H     0.53777   0.02185   0.56606   0.00000  Uiso   1.00
H31    H     0.49424   0.20004   0.61725   0.00000  Uiso   1.00
H32    H     0.58488   0.23611   0.48681   0.00000  Uiso   1.00
H33    H     0.44802   0.22119   0.85250   0.00000  Uiso   1.00
H34    H     0.43590   0.14867   0.49533   0.00000  Uiso   1.00
H35    H     0.70730   0.26690   0.36934   0.00000  Uiso   1.00
H36    H     0.41870   0.23543   0.14042   0.00000  Uiso   1.00
H37    H     0.39313   0.08252   0.38725   0.00000  Uiso   1.00
O38    O     0.84229   0.25902   0.37674   0.00000  Uiso   1.00
O39    O     0.46366   0.21773   0.38836   0.00000  Uiso   1.00
O40    O     0.43012   0.01711   0.40022   0.00000  Uiso   1.00
N41    N     0.80546   0.21556   0.52395   0.00000  Uiso   1.00
N42    N     0.53564   0.18614   0.24486   0.00000  Uiso   1.00
N43    N     0.51173   0.04318   0.54074   0.00000  Uiso   1.00
N44    N     0.72763   0.24820   0.42773   0.00000  Uiso   1.00
N45    N     0.45782   0.21879   0.14864   0.00000  Uiso   1.00
N46    N     0.43390   0.07583   0.44452   0.00000  Uiso   1.00
C47    C     0.87552   0.85458   0.27824   0.00000  Uiso   1.00
C48    C     0.84467   0.82728   0.18463   0.00000  Uiso   1.00
C49    C     0.77537   0.82250   0.15953   0.00000  Uiso   1.00
C50    C     0.75752   0.79610   0.07069   0.00000  Uiso   1.00
C51    C     0.70204   0.75687   0.93474   0.00000  Uiso   1.00
C52    C     0.91902   0.83538   0.38332   0.00000  Uiso   1.00
C53    C     0.91224   0.83742   0.52528   0.00000  Uiso   1.00
C54    C     0.95699   0.81784   0.60370   0.00000  Uiso   1.00
C55    C     0.01699   0.79120   0.77622   0.00000  Uiso   1.00
C56    C     0.92560   0.87478   0.18925   0.00000  Uiso   1.00
C57    C     0.92438   0.90995   0.16806   0.00000  Uiso   1.00
C58    C     0.97468   0.92354   0.08311   0.00000  Uiso   1.00
C59    C     0.04489   0.95808   0.95430   0.00000  Uiso   1.00
C60    C     0.96705   0.81619   0.16510   0.00000  Uiso   1.00
C61    C     0.89438   0.80643   0.12318   0.00000  Uiso   1.00
C62    C     0.87663   0.78003   0.03435   0.00000  Uiso   1.00
C63    C     0.80732   0.77521   0.00912   0.00000  Uiso   1.00
C64    C     0.96873   0.81453   0.32187   0.00000  Uiso   1.00
C65    C     0.01351   0.79495   0.40010   0.00000  Uiso   1.00
C66    C     0.00680   0.79695   0.54213   0.00000  Uiso   1.00
C67    C     0.97532   0.85393   0.12779   0.00000  Uiso   1.00
C68    C     0.02564   0.86747   0.04287   0.00000  Uiso   1.00
C69    C     0.02448   0.90265   0.02154   0.00000  Uiso   1.00
H70    H     0.83682   0.87082   0.32610   0.00000  Uiso   1.00
H71    H     0.73691   0.83864   0.20712   0.00000  Uiso   1.00
H72    H     0.87377   0.85356   0.57281   0.00000  Uiso   1.00
H73    H     0.88590   0.92608   0.21563   0.00000  Uiso   1.00
H74    H     0.64806   0.79377   0.04815   0.00000  Uiso   1.00
H75    H     0.93666   0.82523   0.81922   0.00000  Uiso   1.00
H76    H     0.96223   0.97815   0.06606   0.00000  Uiso   1.00
H77    H     0.00576   0.79996   0.11725   0.00000  Uiso   1.00
H78    H     0.91512   0.76389   0.98681   0.00000  Uiso   1.00
H79    H     0.05198   0.77881   0.35250   0.00000  Uiso   1.00
H80    H     0.06410   0.85133   0.99533   0.00000  Uiso   1.00
H81    H     0.79270   0.73310   0.86934   0.00000  Uiso   1.00
H82    H     0.08130   0.76457   0.64042   0.00000  Uiso   1.00
H83    H     0.10687   0.91748   0.88725   0.00000  Uiso   1.00
O84    O     0.65771   0.74098   0.87674   0.00000  Uiso   1.00
O85    O     0.03634   0.78227   0.88836   0.00000  Uiso   1.00
O86    O     0.06988   0.98289   0.90022   0.00000  Uiso   1.00
N87    N     0.69454   0.78444   0.02395   0.00000  Uiso   1.00
N88    N     0.96436   0.81386   0.74486   0.00000  Uiso   1.00
N89    N     0.98827   0.95682   0.04074   0.00000  Uiso   1.00
N90    N     0.77237   0.75180   0.92773   0.00000  Uiso   1.00
N91    N     0.04218   0.78121   0.64864   0.00000  Uiso   1.00
N92    N     0.06610   0.92417   0.94452   0.00000  Uiso   1.00
C93    C     0.37552   0.64542   0.72176   0.00000  Uiso   1.00
C94    C     0.34467   0.67272   0.81537   0.00000  Uiso   1.00
C95    C     0.27537   0.67750   0.84047   0.00000  Uiso   1.00
C96    C     0.25752   0.70390   0.92931   0.00000  Uiso   1.00
C97    C     0.20204   0.74313   0.06526   0.00000  Uiso   1.00
C98    C     0.41902   0.66462   0.61668   0.00000  Uiso   1.00
C99    C     0.41224   0.66258   0.47472   0.00000  Uiso   1.00
C100   C     0.45699   0.68216   0.39630   0.00000  Uiso   1.00
C101   C     0.51699   0.70880   0.22378   0.00000  Uiso   1.00
C102   C     0.42560   0.62522   0.81075   0.00000  Uiso   1.00
C103   C     0.42438   0.59005   0.83194   0.00000  Uiso   1.00
C104   C     0.47468   0.57646   0.91689   0.00000  Uiso   1.00
C105   C     0.54489   0.54192   0.04570   0.00000  Uiso   1.00
C106   C     0.46705   0.68381   0.83490   0.00000  Uiso   1.00
C107   C     0.39438   0.69357   0.87682   0.00000  Uiso   1.00
C108   C     0.37663   0.71997   0.96565   0.00000  Uiso   1.00
C109   C     0.30732   0.72479   0.99088   0.00000  Uiso   1.00
C110   C     0.46873   0.68547   0.67813   0.00000  Uiso   1.00
C111   C     0.51351   0.70505   0.59990   0.00000  Uiso   1.00
C112   C     0.50680   0.70305   0.45787   0.00000  Uiso   1.00
C113   C     0.47532   0.64607   0.87221   0.00000  Uiso   1.00
C114   C     0.52564   0.63253   0.95713   0.00000  Uiso   1.00
C115   C     0.52448   0.59735   0.97846   0.00000  Uiso   1.00
H116   H     0.33682   0.62918   0.67390   0.00000  Uiso   1.00
H117   H     0.23691   0.66136   0.79288   0.00000  Uiso   1.00
H118   H     0.37377   0.64644   0.42719   0.00000  Uiso   1.00
H119   H     0.38590   0.57392   0.78437   0.00000  Uiso   1.00
H120   H     0.14806   0.70623   0.95185   0.00000  Uiso   1.00
H121   H     0.43666   0.67477   0.18078   0.00000  Uiso   1.00
H122   H     0.46223   0.52185   0.93394   0.00000  Uiso   1.00
H123   H     0.50576   0.70004   0.88275   0.00000  Uiso   1.00
H124   H     0.41512   0.73611   0.01319   0.00000  Uiso   1.00
H125   H     0.55198   0.72119   0.64750   0.00000  Uiso   1.00
H126   H     0.56410   0.64867   0.00467   0.00000  Uiso   1.00
H127   H     0.29270   0.76690   0.13066   0.00000  Uiso   1.00
H128   H     0.58130   0.73543   0.35958   0.00000  Uiso   1.00
H129   H     0.60687   0.58252   0.11275   0.00000  Uiso   1.00
O130   O     0.15771   0.75902   0.12326   0.00000  Uiso   1.00
O131   O     0.53634   0.71773   0.11164   0.00000  Uiso   1.00
O132   O     0.56988   0.51711   0.09978   0.00000  Uiso   1.00
N133   N     0.19454   0.71556   0.97605   0.00000  Uiso   1.00
N134   N     0.46436   0.68614   0.25514   0.00000  Uiso   1.00
N135   N     0.48827   0.54318   0.95926   0.00000  Uiso   1.00
N136   N     0.27237   0.74820   0.07227   0.00000  Uiso   1.00
N137   N     0.54218   0.71879   0.35136   0.00000  Uiso   1.00
N138   N     0.56610   0.57583   0.05548   0.00000  Uiso   1.00
C139   C     0.12448   0.35458   0.22176   0.00000  Uiso   1.00
C140   C     0.15533   0.32728   0.31537   0.00000  Uiso   1.00
C141   C     0.22463   0.32250   0.34047   0.00000  Uiso   1.00
C142   C     0.24248   0.29610   0.42931   0.00000  Uiso   1.00
C143   C     0.29796   0.25687   0.56526   0.00000  Uiso   1.00
C144   C     0.08098   0.33538   0.11668   0.00000  Uiso   1.00
C145   C     0.08776   0.33742   0.97472   0.00000  Uiso   1.00
C146   C     0.04301   0.31784   0.89630   0.00000  Uiso   1.00
C147   C     0.98301   0.29120   0.72378   0.00000  Uiso   1.00
C148   C     0.07440   0.37478   0.31075   0.00000  Uiso   1.00
C149   C     0.07562   0.40995   0.33194   0.00000  Uiso   1.00
C150   C     0.02532   0.42354   0.41689   0.00000  Uiso   1.00
C151   C     0.95511   0.45808   0.54570   0.00000  Uiso   1.00
C152   C     0.03295   0.31619   0.33490   0.00000  Uiso   1.00
C153   C     0.10562   0.30643   0.37682   0.00000  Uiso   1.00
C154   C     0.12337   0.28003   0.46565   0.00000  Uiso   1.00
C155   C     0.19268   0.27521   0.49088   0.00000  Uiso   1.00
C156   C     0.03127   0.31453   0.17813   0.00000  Uiso   1.00
C157   C     0.98649   0.29495   0.09990   0.00000  Uiso   1.00
C158   C     0.99320   0.29695   0.95787   0.00000  Uiso   1.00
C159   C     0.02468   0.35393   0.37221   0.00000  Uiso   1.00
C160   C     0.97436   0.36747   0.45713   0.00000  Uiso   1.00
C161   C     0.97552   0.40265   0.47846   0.00000  Uiso   1.00
H162   H     0.16318   0.37082   0.17390   0.00000  Uiso   1.00
H163   H     0.26309   0.33864   0.29288   0.00000  Uiso   1.00
H164   H     0.12623   0.35356   0.92719   0.00000  Uiso   1.00
H165   H     0.11410   0.42608   0.28437   0.00000  Uiso   1.00
H166   H     0.35194   0.29377   0.45185   0.00000  Uiso   1.00
H167   H     0.06334   0.32523   0.68078   0.00000  Uiso   1.00
H168   H     0.03777   0.47815   0.43394   0.00000  Uiso   1.00
H169   H     0.99424   0.29996   0.38275   0.00000  Uiso   1.00
H170   H     0.08488   0.26389   0.51319   0.00000  Uiso   1.00
H171   H     0.94802   0.27881   0.14750   0.00000  Uiso   1.00
H172   H     0.93590   0.35133   0.50467   0.00000  Uiso   1.00
H173   H     0.20730   0.23310   0.63066   0.00000  Uiso   1.00
H174   H     0.91870   0.26457   0.85958   0.00000  Uiso   1.00
H175   H     0.89313   0.41748   0.61275   0.00000  Uiso   1.00
O176   O     0.34229   0.24098   0.62326   0.00000  Uiso   1.00
O177   O     0.96366   0.28227   0.61164   0.00000  Uiso   1.00
O178   O     0.93012   0.48289   0.59978   0.00000  Uiso   1.00
N179   N     0.30546   0.28444   0.47605   0.00000  Uiso   1.00
N180   N     0.03564   0.31386   0.75514   0.00000  Uiso   1.00
N181   N     0.01173   0.45682   0.45926   0.00000  Uiso   1.00
N182   N     0.22763   0.25180   0.57227   0.00000  Uiso   1.00
N183   N     0.95782   0.28121   0.85136   0.00000  Uiso   1.00
N184   N     0.93390   0.42417   0.55548   0.00000  Uiso   1.00
C185   C     0.37552   0.85458   0.22176   0.00000  Uiso   1.00
C186   C     0.34467   0.82728   0.31537   0.00000  Uiso   1.00
C187   C     0.27537   0.82250   0.34047   0.00000  Uiso   1.00
C188   C     0.25752   0.79610   0.42931   0.00000  Uiso   1.00
C189   C     0.20204   0.75687   0.56526   0.00000  Uiso   1.00
C190   C     0.41902   0.83538   0.11668   0.00000  Uiso   1.00
C191   C     0.41224   0.83742   0.97472   0.00000  Uiso   1.00
C192   C     0.45699   0.81784   0.89630   0.00000  Uiso   1.00
C193   C     0.51699   0.79120   0.72378   0.00000  Uiso   1.00
C194   C     0.42560   0.87478   0.31075   0.00000  Uiso   1.00
C195   C     0.42438   0.90995   0.33194   0.00000  Uiso   1.00
C196   C     0.47468   0.92354   0.41689   0.00000  Uiso   1.00
C197   C     0.54489   0.95808   0.54570   0.00000  Uiso   1.00
C198   C     0.46705   0.81619   0.33490   0.00000  Uiso   1.00
C199   C     0.39438   0.80643   0.37682   0.00000  Uiso   1.00
C200   C     0.37663   0.78003   0.46565   0.00000  Uiso   1.00
C201   C     0.30732   0.77521   0.49088   0.00000  Uiso   1.00
C202   C     0.46873   0.81453   0.17813   0.00000  Uiso   1.00
C203   C     0.51351   0.79495   0.09990   0.00000  Uiso   1.00
C204   C     0.50680   0.79695   0.95787   0.00000  Uiso   1.00
C205   C     0.47532   0.85393   0.37221   0.00000  Uiso   1.00
C206   C     0.52564   0.86747   0.45713   0.00000  Uiso   1.00
C207   C     0.52448   0.90265   0.47846   0.00000  Uiso   1.00
H208   H     0.33682   0.87082   0.17390   0.00000  Uiso   1.00
H209   H     0.23691   0.83864   0.29288   0.00000  Uiso   1.00
H210   H     0.37377   0.85356   0.92719   0.00000  Uiso   1.00
H211   H     0.38590   0.92608   0.28437   0.00000  Uiso   1.00
H212   H     0.14806   0.79377   0.45185   0.00000  Uiso   1.00
H213   H     0.43666   0.82523   0.68078   0.00000  Uiso   1.00
H214   H     0.46223   0.97815   0.43394   0.00000  Uiso   1.00
H215   H     0.50576   0.79996   0.38275   0.00000  Uiso   1.00
H216   H     0.41512   0.76389   0.51319   0.00000  Uiso   1.00
H217   H     0.55198   0.77881   0.14750   0.00000  Uiso   1.00
H218   H     0.56410   0.85133   0.50467   0.00000  Uiso   1.00
H219   H     0.29270   0.73310   0.63066   0.00000  Uiso   1.00
H220   H     0.58130   0.76457   0.85958   0.00000  Uiso   1.00
H221   H     0.60687   0.91748   0.61275   0.00000  Uiso   1.00
O222   O     0.15771   0.74098   0.62326   0.00000  Uiso   1.00
O223   O     0.53634   0.78227   0.61164   0.00000  Uiso   1.00
O224   O     0.56988   0.98289   0.59978   0.00000  Uiso   1.00
N225   N     0.19454   0.78444   0.47605   0.00000  Uiso   1.00
N226   N     0.46436   0.81386   0.75514   0.00000  Uiso   1.00
N227   N     0.48827   0.95682   0.45926   0.00000  Uiso   1.00
N228   N     0.27237   0.75180   0.57227   0.00000  Uiso   1.00
N229   N     0.54218   0.78121   0.85136   0.00000  Uiso   1.00
N230   N     0.56610   0.92417   0.55548   0.00000  Uiso   1.00
C231   C     0.12448   0.14542   0.72176   0.00000  Uiso   1.00
C232   C     0.15533   0.17272   0.81537   0.00000  Uiso   1.00
C233   C     0.22463   0.17750   0.84047   0.00000  Uiso   1.00
C234   C     0.24248   0.20390   0.92931   0.00000  Uiso   1.00
C235   C     0.29796   0.24313   0.06526   0.00000  Uiso   1.00
C236   C     0.08098   0.16462   0.61668   0.00000  Uiso   1.00
C237   C     0.08776   0.16258   0.47472   0.00000  Uiso   1.00
C238   C     0.04301   0.18216   0.39630   0.00000  Uiso   1.00
C239   C     0.98301   0.20880   0.22378   0.00000  Uiso   1.00
C240   C     0.07440   0.12522   0.81075   0.00000  Uiso   1.00
C241   C     0.07562   0.09005   0.83194   0.00000  Uiso   1.00
C242   C     0.02532   0.07646   0.91689   0.00000  Uiso   1.00
C243   C     0.95511   0.04192   0.04570   0.00000  Uiso   1.00
C244   C     0.03295   0.18381   0.83490   0.00000  Uiso   1.00
C245   C     0.10562   0.19357   0.87682   0.00000  Uiso   1.00
C246   C     0.12337   0.21997   0.96565   0.00000  Uiso   1.00
C247   C     0.19268   0.22479   0.99088   0.00000  Uiso   1.00
C248   C     0.03127   0.18547   0.67813   0.00000  Uiso   1.00
C249   C     0.98649   0.20505   0.59990   0.00000  Uiso   1.00
C250   C     0.99320   0.20305   0.45787   0.00000  Uiso   1.00
C251   C     0.02468   0.14607   0.87221   0.00000  Uiso   1.00
C252   C     0.97436   0.13253   0.95713   0.00000  Uiso   1.00
C253   C     0.97552   0.09735   0.97846   0.00000  Uiso   1.00
H254   H     0.16318   0.12918   0.67390   0.00000  Uiso   1.00
H255   H     0.26309   0.16136   0.79288   0.00000  Uiso   1.00
H256   H     0.12623   0.14644   0.42719   0.00000  Uiso   1.00
H257   H     0.11410   0.07392   0.78437   0.00000  Uiso   1.00
H258   H     0.35194   0.20623   0.95185   0.00000  Uiso   1.00
H259   H     0.06334   0.17477   0.18078   0.00000  Uiso   1.00
H260   H     0.03777   0.02185   0.93394   0.00000  Uiso   1.00
H261   H     0.99424   0.20004   0.88275   0.00000  Uiso   1.00
H262   H     0.08488   0.23611   0.01319   0.00000  Uiso   1.00
H263   H     0.94802   0.22119   0.64750   0.00000  Uiso   1.00
H264   H     0.93590   0.14867   0.00467   0.00000  Uiso   1.00
H265   H     0.20730   0.26690   0.13066   0.00000  Uiso   1.00
H266   H     0.91870   0.23543   0.35958   0.00000  Uiso   1.00
H267   H     0.89313   0.08252   0.11275   0.00000  Uiso   1.00
O268   O     0.34229   0.25902   0.12326   0.00000  Uiso   1.00
O269   O     0.96366   0.21773   0.11164   0.00000  Uiso   1.00
O270   O     0.93012   0.01711   0.09978   0.00000  Uiso   1.00
N271   N     0.30546   0.21556   0.97605   0.00000  Uiso   1.00
N272   N     0.03564   0.18614   0.25514   0.00000  Uiso   1.00
N273   N     0.01173   0.04318   0.95926   0.00000  Uiso   1.00
N274   N     0.22763   0.24820   0.07227   0.00000  Uiso   1.00
N275   N     0.95782   0.21879   0.35136   0.00000  Uiso   1.00
N276   N     0.93390   0.07583   0.05548   0.00000  Uiso   1.00
C277   C     0.62448   0.35458   0.27824   0.00000  Uiso   1.00
C278   C     0.65533   0.32728   0.18463   0.00000  Uiso   1.00
C279   C     0.72463   0.32250   0.15953   0.00000  Uiso   1.00
C280   C     0.74248   0.29610   0.07069   0.00000  Uiso   1.00
C281   C     0.79796   0.25687   0.93474   0.00000  Uiso   1.00
C282   C     0.58098   0.33538   0.38332   0.00000  Uiso   1.00
C283   C     0.58776   0.33742   0.52528   0.00000  Uiso   1.00
C284   C     0.54301   0.31784   0.60370   0.00000  Uiso   1.00
C285   C     0.48301   0.29120   0.77622   0.00000  Uiso   1.00
C286   C     0.57440   0.37478   0.18925   0.00000  Uiso   1.00
C287   C     0.57562   0.40995   0.16806   0.00000  Uiso   1.00
C288   C     0.52532   0.42354   0.08311   0.00000  Uiso   1.00
C289   C     0.45511   0.45808   0.95430   0.00000  Uiso   1.00
C290   C     0.53295   0.31619   0.16510   0.00000  Uiso   1.00
C291   C     0.60562   0.30643   0.12318   0.00000  Uiso   1.00
C292   C     0.62337   0.28003   0.03435   0.00000  Uiso   1.00
C293   C     0.69268   0.27521   0.00912   0.00000  Uiso   1.00
C294   C     0.53127   0.31453   0.32187   0.00000  Uiso   1.00
C295   C     0.48649   0.29495   0.40010   0.00000  Uiso   1.00
C296   C     0.49320   0.29695   0.54213   0.00000  Uiso   1.00
C297   C     0.52468   0.35393   0.12779   0.00000  Uiso   1.00
C298   C     0.47436   0.36747   0.04287   0.00000  Uiso   1.00
C299   C     0.47552   0.40265   0.02154   0.00000  Uiso   1.00
H300   H     0.66318   0.37082   0.32610   0.00000  Uiso   1.00
H301   H     0.76309   0.33864   0.20712   0.00000  Uiso   1.00
H302   H     0.62623   0.35356   0.57281   0.00000  Uiso   1.00
H303   H     0.61410   0.42608   0.21563   0.00000  Uiso   1.00
H304   H     0.85194   0.29377   0.04815   0.00000  Uiso   1.00
H305   H     0.56334   0.32523   0.81922   0.00000  Uiso   1.00
H306   H     0.53777   0.47815   0.06606   0.00000  Uiso   1.00
H307   H     0.49424   0.29996   0.11725   0.00000  Uiso   1.00
H308   H     0.58488   0.26389   0.98681   0.00000  Uiso   1.00
H309   H     0.44802   0.27881   0.35250   0.00000  Uiso   1.00
H310   H     0.43590   0.35133   0.99533   0.00000  Uiso   1.00
H311   H     0.70730   0.23310   0.86934   0.00000  Uiso   1.00
H312   H     0.41870   0.26457   0.64042   0.00000  Uiso   1.00
H313   H     0.39313   0.41748   0.88725   0.00000  Uiso   1.00
O314   O     0.84229   0.24098   0.87674   0.00000  Uiso   1.00
O315   O     0.46366   0.28227   0.88836   0.00000  Uiso   1.00
O316   O     0.43012   0.48289   0.90022   0.00000  Uiso   1.00
N317   N     0.80546   0.28444   0.02395   0.00000  Uiso   1.00
N318   N     0.53564   0.31386   0.74486   0.00000  Uiso   1.00
N319   N     0.51173   0.45682   0.04074   0.00000  Uiso   1.00
N320   N     0.72763   0.25180   0.92773   0.00000  Uiso   1.00
N321   N     0.45782   0.28121   0.64864   0.00000  Uiso   1.00
N322   N     0.43390   0.42417   0.94452   0.00000  Uiso   1.00
C323   C     0.87552   0.64542   0.77824   0.00000  Uiso   1.00
C324   C     0.84467   0.67272   0.68463   0.00000  Uiso   1.00
C325   C     0.77537   0.67750   0.65953   0.00000  Uiso   1.00
C326   C     0.75752   0.70390   0.57069   0.00000  Uiso   1.00
C327   C     0.70204   0.74313   0.43474   0.00000  Uiso   1.00
C328   C     0.91902   0.66462   0.88332   0.00000  Uiso   1.00
C329   C     0.91224   0.66258   0.02528   0.00000  Uiso   1.00
C330   C     0.95699   0.68216   0.10370   0.00000  Uiso   1.00
C331   C     0.01699   0.70880   0.27622   0.00000  Uiso   1.00
C332   C     0.92560   0.62522   0.68925   0.00000  Uiso   1.00
C333   C     0.92438   0.59005   0.66806   0.00000  Uiso   1.00
C334   C     0.97468   0.57646   0.58311   0.00000  Uiso   1.00
C335   C     0.04489   0.54192   0.45430   0.00000  Uiso   1.00
C336   C     0.96705   0.68381   0.66510   0.00000  Uiso   1.00
C337   C     0.89438   0.69357   0.62318   0.00000  Uiso   1.00
C338   C     0.87663   0.71997   0.53435   0.00000  Uiso   1.00
C339   C     0.80732   0.72479   0.50912   0.00000  Uiso   1.00
C340   C     0.96873   0.68547   0.82187   0.00000  Uiso   1.00
C341   C     0.01351   0.70505   0.90010   0.00000  Uiso   1.00
C342   C     0.00680   0.70305   0.04213   0.00000  Uiso   1.00
C343   C     0.97532   0.64607   0.62779   0.00000  Uiso   1.00
C344   C     0.02564   0.63253   0.54287   0.00000  Uiso   1.00
C345   C     0.02448   0.59735   0.52154   0.00000  Uiso   1.00
H346   H     0.83682   0.62918   0.82610   0.00000  Uiso   1.00
H347   H     0.73691   0.66136   0.70712   0.00000  Uiso   1.00
H348   H     0.87377   0.64644   0.07281   0.00000  Uiso   1.00
H349   H     0.88590   0.57392   0.71563   0.00000  Uiso   1.00
H350   H     0.64806   0.70623   0.54815   0.00000  Uiso   1.00
H351   H     0.93666   0.67477   0.31922   0.00000  Uiso   1.00
H352   H     0.96223   0.52185   0.56606   0.00000  Uiso   1.00
H353   H     0.00576   0.70004   0.61725   0.00000  Uiso   1.00
H354   H     0.91512   0.73611   0.48681   0.00000  Uiso   1.00
H355   H     0.05198   0.72119   0.85250   0.00000  Uiso   1.00
H356   H     0.06410   0.64867   0.49533   0.00000  Uiso   1.00
H357   H     0.79270   0.76690   0.36934   0.00000  Uiso   1.00
H358   H     0.08130   0.73543   0.14042   0.00000  Uiso   1.00
H359   H     0.10687   0.58252   0.38725   0.00000  Uiso   1.00
O360   O     0.65771   0.75902   0.37674   0.00000  Uiso   1.00
O361   O     0.03634   0.71773   0.38836   0.00000  Uiso   1.00
O362   O     0.06988   0.51711   0.40022   0.00000  Uiso   1.00
N363   N     0.69454   0.71556   0.52395   0.00000  Uiso   1.00
N364   N     0.96436   0.68614   0.24486   0.00000  Uiso   1.00
N365   N     0.98827   0.54318   0.54074   0.00000  Uiso   1.00
N366   N     0.77237   0.74820   0.42773   0.00000  Uiso   1.00
N367   N     0.04218   0.71879   0.14864   0.00000  Uiso   1.00
N368   N     0.06610   0.57583   0.44452   0.00000  Uiso   1.00
