data_job_06382
_audit_creation_date              2018-12-19
_audit_creation_method            'Materials Studio'
_symmetry_space_group_name_H-M    'P1'
_symmetry_Int_Tables_number       1
_symmetry_cell_setting            triclinic
loop_
_symmetry_equiv_pos_as_xyz
  x,y,z
_cell_length_a                    16.7874
_cell_length_b                    16.8213
_cell_length_c                    16.8389
_cell_angle_alpha                 100.8970
_cell_angle_beta                  100.9570
_cell_angle_gamma                 100.9680
loop_
_atom_site_label
_atom_site_type_symbol
_atom_site_fract_x
_atom_site_fract_y
_atom_site_fract_z
_atom_site_U_iso_or_equiv
_atom_site_adp_type
_atom_site_occupancy
C1     C     0.90717   0.08744   0.57569   0.00000  Uiso   1.00
C2     C     0.96911   0.11775   0.66014   0.00000  Uiso   1.00
C3     C     0.04349   0.09395   0.68192   0.00000  Uiso   1.00
C4     C     0.09144   0.12869   0.76225   0.00000  Uiso   1.00
C5     C     0.19148   0.16713   0.88481   0.00000  Uiso   1.00
C6     C     0.82371   0.05042   0.59289   0.00000  Uiso   1.00
C7     C     0.77584   0.97001   0.55810   0.00000  Uiso   1.00
C8     C     0.70139   0.94808   0.58182   0.00000  Uiso   1.00
C9     C     0.57566   0.88201   0.59992   0.00000  Uiso   1.00
C10    C     0.89641   0.16543   0.54528   0.00000  Uiso   1.00
C11    C     0.90965   0.18172   0.47044   0.00000  Uiso   1.00
C12    C     0.89638   0.25662   0.45406   0.00000  Uiso   1.00
C13    C     0.88354   0.36912   0.39823   0.00000  Uiso   1.00
C14    C     0.86005   0.19147   0.67964   0.00000  Uiso   1.00
C15    C     0.94351   0.17425   0.71661   0.00000  Uiso   1.00
C16    C     0.99136   0.20905   0.79693   0.00000  Uiso   1.00
C17    C     0.06580   0.18530   0.81882   0.00000  Uiso   1.00
C18    C     0.79811   0.10692   0.64935   0.00000  Uiso   1.00
C19    C     0.72370   0.08511   0.67312   0.00000  Uiso   1.00
C20    C     0.67574   0.00469   0.63838   0.00000  Uiso   1.00
C21    C     0.87081   0.22194   0.60174   0.00000  Uiso   1.00
C22    C     0.85751   0.29682   0.58546   0.00000  Uiso   1.00
C23    C     0.87074   0.31322   0.51063   0.00000  Uiso   1.00
H24    H     0.92710   0.04344   0.53173   0.00000  Uiso   1.00
H25    H     0.06328   0.05021   0.63820   0.00000  Uiso   1.00
H26    H     0.79567   0.92630   0.51441   0.00000  Uiso   1.00
H27    H     0.92946   0.13798   0.42677   0.00000  Uiso   1.00
H28    H     0.20296   0.08261   0.78116   0.00000  Uiso   1.00
H29    H     0.63867   0.82135   0.52011   0.00000  Uiso   1.00
H30    H     0.92079   0.26771   0.33529   0.00000  Uiso   1.00
H31    H     0.84011   0.23546   0.72360   0.00000  Uiso   1.00
H32    H     0.97153   0.25277   0.84061   0.00000  Uiso   1.00
H33    H     0.70391   0.12886   0.71681   0.00000  Uiso   1.00
H34    H     0.83770   0.34054   0.62917   0.00000  Uiso   1.00
H35    H     0.12849   0.24701   0.94544   0.00000  Uiso   1.00
H36    H     0.56419   0.98575   0.68438   0.00000  Uiso   1.00
H37    H     0.84632   0.43211   0.49958   0.00000  Uiso   1.00
O38    O     0.25373   0.17271   0.93682   0.00000  Uiso   1.00
O39    O     0.51339   0.82995   0.59431   0.00000  Uiso   1.00
O40    O     0.88353   0.41556   0.35185   0.00000  Uiso   1.00
N41    N     0.16741   0.11894   0.80376   0.00000  Uiso   1.00
N42    N     0.63983   0.87467   0.55970   0.00000  Uiso   1.00
N43    N     0.90357   0.29197   0.38691   0.00000  Uiso   1.00
N44    N     0.12733   0.20740   0.89216   0.00000  Uiso   1.00
N45    N     0.59976   0.96314   0.64810   0.00000  Uiso   1.00
N46    N     0.86350   0.38043   0.47531   0.00000  Uiso   1.00
C47    C     0.57589   0.90720   0.08757   0.00000  Uiso   1.00
C48    C     0.66060   0.96905   0.11789   0.00000  Uiso   1.00
C49    C     0.68240   0.04330   0.09407   0.00000  Uiso   1.00
C50    C     0.76299   0.09118   0.12883   0.00000  Uiso   1.00
C51    C     0.88591   0.19107   0.16727   0.00000  Uiso   1.00
C52    C     0.59319   0.82396   0.05069   0.00000  Uiso   1.00
C53    C     0.55831   0.77622   0.97037   0.00000  Uiso   1.00
C54    C     0.58215   0.70197   0.94856   0.00000  Uiso   1.00
C55    C     0.60038   0.57658   0.88269   0.00000  Uiso   1.00
C56    C     0.54538   0.89639   0.16545   0.00000  Uiso   1.00
C57    C     0.47028   0.90953   0.18163   0.00000  Uiso   1.00
C58    C     0.45385   0.89624   0.25643   0.00000  Uiso   1.00
C59    C     0.39784   0.88332   0.36875   0.00000  Uiso   1.00
C60    C     0.68023   0.86021   0.19164   0.00000  Uiso   1.00
C61    C     0.71727   0.94352   0.17441   0.00000  Uiso   1.00
C62    C     0.79784   0.99131   0.20922   0.00000  Uiso   1.00
C63    C     0.81976   0.06562   0.18546   0.00000  Uiso   1.00
C64    C     0.64986   0.79844   0.10721   0.00000  Uiso   1.00
C65    C     0.67375   0.72423   0.08552   0.00000  Uiso   1.00
C66    C     0.63892   0.67640   0.00519   0.00000  Uiso   1.00
C67    C     0.60205   0.87087   0.22198   0.00000  Uiso   1.00
C68    C     0.58573   0.85755   0.29677   0.00000  Uiso   1.00
C69    C     0.51063   0.87067   0.31306   0.00000  Uiso   1.00
H70    H     0.53176   0.92707   0.04356   0.00000  Uiso   1.00
H71    H     0.63853   0.06302   0.05032   0.00000  Uiso   1.00
H72    H     0.51445   0.79599   0.92665   0.00000  Uiso   1.00
H73    H     0.42644   0.92928   0.13787   0.00000  Uiso   1.00
H74    H     0.78190   0.20248   0.08272   0.00000  Uiso   1.00
H75    H     0.52025   0.63941   0.82195   0.00000  Uiso   1.00
H76    H     0.33467   0.92049   0.26736   0.00000  Uiso   1.00
H77    H     0.72435   0.84034   0.23565   0.00000  Uiso   1.00
H78    H     0.84169   0.97154   0.25296   0.00000  Uiso   1.00
H79    H     0.71761   0.70450   0.12928   0.00000  Uiso   1.00
H80    H     0.62960   0.83780   0.34050   0.00000  Uiso   1.00
H81    H     0.94679   0.12823   0.24719   0.00000  Uiso   1.00
H82    H     0.68514   0.56515   0.98641   0.00000  Uiso   1.00
H83    H     0.49956   0.84624   0.43182   0.00000  Uiso   1.00
O84    O     0.93807   0.25321   0.17285   0.00000  Uiso   1.00
O85    O     0.59478   0.51447   0.83074   0.00000  Uiso   1.00
O86    O     0.35130   0.88325   0.41510   0.00000  Uiso   1.00
N87    N     0.80460   0.16701   0.11907   0.00000  Uiso   1.00
N88    N     0.55998   0.64057   0.87526   0.00000  Uiso   1.00
N89    N     0.38647   0.90334   0.29167   0.00000  Uiso   1.00
N90    N     0.89333   0.12706   0.20756   0.00000  Uiso   1.00
N91    N     0.64871   0.60062   0.96375   0.00000  Uiso   1.00
N92    N     0.47519   0.86339   0.38016   0.00000  Uiso   1.00
C93    C     0.08708   0.57566   0.90711   0.00000  Uiso   1.00
C94    C     0.11746   0.66017   0.96885   0.00000  Uiso   1.00
C95    C     0.09355   0.68187   0.04297   0.00000  Uiso   1.00
C96    C     0.12838   0.76227   0.09077   0.00000  Uiso   1.00
C97    C     0.16689   0.88490   0.19048   0.00000  Uiso   1.00
C98    C     0.05006   0.59294   0.82391   0.00000  Uiso   1.00
C99    C     0.96948   0.55810   0.77617   0.00000  Uiso   1.00
C100   C     0.94758   0.58191   0.70195   0.00000  Uiso   1.00
C101   C     0.88147   0.60011   0.57662   0.00000  Uiso   1.00
C102   C     0.16524   0.54529   0.89643   0.00000  Uiso   1.00
C103   C     0.18152   0.47038   0.90963   0.00000  Uiso   1.00
C104   C     0.25659   0.45405   0.89646   0.00000  Uiso   1.00
C105   C     0.36933   0.39827   0.88372   0.00000  Uiso   1.00
C106   C     0.19145   0.67988   0.86020   0.00000  Uiso   1.00
C107   C     0.17414   0.71678   0.94336   0.00000  Uiso   1.00
C108   C     0.20902   0.79717   0.99107   0.00000  Uiso   1.00
C109   C     0.18517   0.81898   0.06525   0.00000  Uiso   1.00
C110   C     0.10674   0.64955   0.79843   0.00000  Uiso   1.00
C111   C     0.08495   0.67340   0.72427   0.00000  Uiso   1.00
C112   C     0.00437   0.63861   0.67643   0.00000  Uiso   1.00
C113   C     0.22194   0.60190   0.87095   0.00000  Uiso   1.00
C114   C     0.29699   0.58568   0.85774   0.00000  Uiso   1.00
C115   C     0.31338   0.51076   0.87093   0.00000  Uiso   1.00
H116   H     0.04294   0.53159   0.92695   0.00000  Uiso   1.00
H117   H     0.04967   0.63805   0.06266   0.00000  Uiso   1.00
H118   H     0.92563   0.51430   0.79590   0.00000  Uiso   1.00
H119   H     0.13764   0.42659   0.92935   0.00000  Uiso   1.00
H120   H     0.08211   0.78104   0.20187   0.00000  Uiso   1.00
H121   H     0.82057   0.52008   0.63938   0.00000  Uiso   1.00
H122   H     0.26762   0.33513   0.92079   0.00000  Uiso   1.00
H123   H     0.23558   0.72395   0.84036   0.00000  Uiso   1.00
H124   H     0.25289   0.84096   0.97133   0.00000  Uiso   1.00
H125   H     0.12884   0.71721   0.70457   0.00000  Uiso   1.00
H126   H     0.34085   0.62950   0.83802   0.00000  Uiso   1.00
H127   H     0.24704   0.94573   0.12775   0.00000  Uiso   1.00
H128   H     0.98550   0.68477   0.56525   0.00000  Uiso   1.00
H129   H     0.43255   0.49983   0.84666   0.00000  Uiso   1.00
O130   O     0.17246   0.93690   0.25251   0.00000  Uiso   1.00
O131   O     0.82934   0.59452   0.51453   0.00000  Uiso   1.00
O132   O     0.41586   0.35187   0.88374   0.00000  Uiso   1.00
N133   N     0.11857   0.80374   0.16646   0.00000  Uiso   1.00
N134   N     0.87404   0.55977   0.64057   0.00000  Uiso   1.00
N135   N     0.29198   0.38685   0.90364   0.00000  Uiso   1.00
N136   N     0.20732   0.89236   0.12658   0.00000  Uiso   1.00
N137   N     0.96279   0.64839   0.60068   0.00000  Uiso   1.00
N138   N     0.38073   0.47546   0.86376   0.00000  Uiso   1.00
C139   C     0.40718   0.07580   0.58759   0.00000  Uiso   1.00
C140   C     0.46912   0.16035   0.61789   0.00000  Uiso   1.00
C141   C     0.54352   0.18215   0.59412   0.00000  Uiso   1.00
C142   C     0.59148   0.26257   0.62885   0.00000  Uiso   1.00
C143   C     0.69154   0.38526   0.66727   0.00000  Uiso   1.00
C144   C     0.32372   0.09303   0.55062   0.00000  Uiso   1.00
C145   C     0.27587   0.05823   0.47030   0.00000  Uiso   1.00
C146   C     0.20143   0.08197   0.44840   0.00000  Uiso   1.00
C147   C     0.07572   0.10011   0.38241   0.00000  Uiso   1.00
C148   C     0.39638   0.04533   0.66549   0.00000  Uiso   1.00
C149   C     0.40960   0.97041   0.68174   0.00000  Uiso   1.00
C150   C     0.39631   0.95399   0.75655   0.00000  Uiso   1.00
C151   C     0.38342   0.89807   0.86891   0.00000  Uiso   1.00
C152   C     0.36005   0.17985   0.69154   0.00000  Uiso   1.00
C153   C     0.44352   0.21686   0.67435   0.00000  Uiso   1.00
C154   C     0.49138   0.29726   0.70912   0.00000  Uiso   1.00
C155   C     0.56584   0.31918   0.68541   0.00000  Uiso   1.00
C156   C     0.29812   0.14954   0.60708   0.00000  Uiso   1.00
C157   C     0.22373   0.17334   0.58530   0.00000  Uiso   1.00
C158   C     0.17578   0.13859   0.50496   0.00000  Uiso   1.00
C159   C     0.37079   0.10185   0.72195   0.00000  Uiso   1.00
C160   C     0.35746   0.08554   0.79674   0.00000  Uiso   1.00
C161   C     0.37066   0.01061   0.81311   0.00000  Uiso   1.00
H162   H     0.42710   0.03180   0.54364   0.00000  Uiso   1.00
H163   H     0.56330   0.13840   0.55042   0.00000  Uiso   1.00
H164   H     0.29569   0.01449   0.42663   0.00000  Uiso   1.00
H165   H     0.42941   0.92670   0.63804   0.00000  Uiso   1.00
H166   H     0.70301   0.28151   0.58282   0.00000  Uiso   1.00
H167   H     0.13872   0.02022   0.32180   0.00000  Uiso   1.00
H168   H     0.42068   0.83509   0.76760   0.00000  Uiso   1.00
H169   H     0.34012   0.22385   0.73549   0.00000  Uiso   1.00
H170   H     0.47156   0.34098   0.75281   0.00000  Uiso   1.00
H171   H     0.20394   0.21707   0.62901   0.00000  Uiso   1.00
H172   H     0.33765   0.12928   0.84042   0.00000  Uiso   1.00
H173   H     0.62854   0.44594   0.74708   0.00000  Uiso   1.00
H174   H     0.06425   0.18464   0.48605   0.00000  Uiso   1.00
H175   H     0.34621   0.99951   0.93186   0.00000  Uiso   1.00
O176   O     0.75380   0.43733   0.67286   0.00000  Uiso   1.00
O177   O     0.01346   0.09451   0.33041   0.00000  Uiso   1.00
O178   O     0.38339   0.85162   0.91529   0.00000  Uiso   1.00
N179   N     0.66746   0.30413   0.61912   0.00000  Uiso   1.00
N180   N     0.13988   0.05985   0.37507   0.00000  Uiso   1.00
N181   N     0.40347   0.88675   0.79185   0.00000  Uiso   1.00
N182   N     0.62739   0.39261   0.70750   0.00000  Uiso   1.00
N183   N     0.09981   0.14832   0.46345   0.00000  Uiso   1.00
N184   N     0.36340   0.97523   0.88023   0.00000  Uiso   1.00
C185   C     0.07586   0.58738   0.40720   0.00000  Uiso   1.00
C186   C     0.16056   0.61772   0.46898   0.00000  Uiso   1.00
C187   C     0.18234   0.59386   0.54314   0.00000  Uiso   1.00
C188   C     0.26292   0.62864   0.59098   0.00000  Uiso   1.00
C189   C     0.38583   0.66711   0.69076   0.00000  Uiso   1.00
C190   C     0.09317   0.55048   0.32404   0.00000  Uiso   1.00
C191   C     0.05829   0.47008   0.27634   0.00000  Uiso   1.00
C192   C     0.08214   0.44827   0.20216   0.00000  Uiso   1.00
C193   C     0.10038   0.38235   0.07690   0.00000  Uiso   1.00
C194   C     0.04537   0.66535   0.39642   0.00000  Uiso   1.00
C195   C     0.97028   0.68155   0.40955   0.00000  Uiso   1.00
C196   C     0.95387   0.75644   0.39630   0.00000  Uiso   1.00
C197   C     0.89789   0.86889   0.38342   0.00000  Uiso   1.00
C198   C     0.18024   0.69159   0.36029   0.00000  Uiso   1.00
C199   C     0.21725   0.67432   0.44350   0.00000  Uiso   1.00
C200   C     0.29782   0.70915   0.49124   0.00000  Uiso   1.00
C201   C     0.31972   0.68534   0.56545   0.00000  Uiso   1.00
C202   C     0.14987   0.60707   0.29856   0.00000  Uiso   1.00
C203   C     0.17377   0.58537   0.22444   0.00000  Uiso   1.00
C204   C     0.13893   0.50497   0.17663   0.00000  Uiso   1.00
C205   C     0.10206   0.72196   0.37094   0.00000  Uiso   1.00
C206   C     0.08577   0.79684   0.35766   0.00000  Uiso   1.00
C207   C     0.01067   0.81314   0.37077   0.00000  Uiso   1.00
H208   H     0.03172   0.54332   0.42703   0.00000  Uiso   1.00
H209   H     0.13845   0.55005   0.56283   0.00000  Uiso   1.00
H210   H     0.01441   0.42630   0.29607   0.00000  Uiso   1.00
H211   H     0.92642   0.63773   0.42927   0.00000  Uiso   1.00
H212   H     0.28179   0.58246   0.70214   0.00000  Uiso   1.00
H213   H     0.02022   0.32153   0.13964   0.00000  Uiso   1.00
H214   H     0.83468   0.76737   0.42052   0.00000  Uiso   1.00
H215   H     0.22438   0.73565   0.34045   0.00000  Uiso   1.00
H216   H     0.34168   0.75294   0.47150   0.00000  Uiso   1.00
H217   H     0.21764   0.62919   0.20474   0.00000  Uiso   1.00
H218   H     0.12965   0.84062   0.33794   0.00000  Uiso   1.00
H219   H     0.44675   0.74713   0.62801   0.00000  Uiso   1.00
H220   H     0.18517   0.48620   0.06551   0.00000  Uiso   1.00
H221   H     0.99963   0.93204   0.34639   0.00000  Uiso   1.00
O222   O     0.43797   0.67268   0.75283   0.00000  Uiso   1.00
O223   O     0.09479   0.33036   0.01486   0.00000  Uiso   1.00
O224   O     0.85136   0.91529   0.38336   0.00000  Uiso   1.00
N225   N     0.30451   0.61885   0.66672   0.00000  Uiso   1.00
N226   N     0.05997   0.37489   0.14082   0.00000  Uiso   1.00
N227   N     0.88649   0.79171   0.40339   0.00000  Uiso   1.00
N228   N     0.39327   0.70746   0.62683   0.00000  Uiso   1.00
N229   N     0.14873   0.46350   0.10093   0.00000  Uiso   1.00
N230   N     0.97525   0.88032   0.36351   0.00000  Uiso   1.00
C231   C     0.58711   0.40712   0.07558   0.00000  Uiso   1.00
C232   C     0.61748   0.46890   0.16001   0.00000  Uiso   1.00
C233   C     0.59359   0.54310   0.18170   0.00000  Uiso   1.00
C234   C     0.62841   0.59093   0.26202   0.00000  Uiso   1.00
C235   C     0.66691   0.69073   0.38453   0.00000  Uiso   1.00
C236   C     0.55006   0.32381   0.09282   0.00000  Uiso   1.00
C237   C     0.46948   0.27602   0.05801   0.00000  Uiso   1.00
C238   C     0.44756   0.20172   0.08177   0.00000  Uiso   1.00
C239   C     0.38141   0.07624   0.09992   0.00000  Uiso   1.00
C240   C     0.66528   0.39643   0.04524   0.00000  Uiso   1.00
C241   C     0.68158   0.40967   0.97041   0.00000  Uiso   1.00
C242   C     0.75665   0.39648   0.95411   0.00000  Uiso   1.00
C243   C     0.86940   0.38374   0.89838   0.00000  Uiso   1.00
C244   C     0.69144   0.36012   0.17966   0.00000  Uiso   1.00
C245   C     0.67414   0.44337   0.21654   0.00000  Uiso   1.00
C246   C     0.70902   0.49111   0.29685   0.00000  Uiso   1.00
C247   C     0.68518   0.56537   0.31866   0.00000  Uiso   1.00
C248   C     0.60672   0.29829   0.14935   0.00000  Uiso   1.00
C249   C     0.58491   0.22403   0.17316   0.00000  Uiso   1.00
C250   C     0.50433   0.17615   0.13840   0.00000  Uiso   1.00
C251   C     0.72195   0.37090   0.10178   0.00000  Uiso   1.00
C252   C     0.79701   0.35768   0.08558   0.00000  Uiso   1.00
C253   C     0.81342   0.37091   0.01074   0.00000  Uiso   1.00
H254   H     0.54299   0.42698   0.03157   0.00000  Uiso   1.00
H255   H     0.54973   0.56283   0.13793   0.00000  Uiso   1.00
H256   H     0.42565   0.29579   0.01426   0.00000  Uiso   1.00
H257   H     0.63771   0.42942   0.92668   0.00000  Uiso   1.00
H258   H     0.58216   0.70216   0.28080   0.00000  Uiso   1.00
H259   H     0.32055   0.13909   0.02000   0.00000  Uiso   1.00
H260   H     0.76772   0.42087   0.83533   0.00000  Uiso   1.00
H261   H     0.73556   0.34025   0.22368   0.00000  Uiso   1.00
H262   H     0.75287   0.47134   0.34059   0.00000  Uiso   1.00
H263   H     0.62878   0.20430   0.21691   0.00000  Uiso   1.00
H264   H     0.84084   0.33793   0.12934   0.00000  Uiso   1.00
H265   H     0.74703   0.62791   0.44528   0.00000  Uiso   1.00
H266   H     0.48542   0.06483   0.18448   0.00000  Uiso   1.00
H267   H     0.93259   0.34662   0.99981   0.00000  Uiso   1.00
O268   O     0.67249   0.75282   0.43649   0.00000  Uiso   1.00
O269   O     0.32926   0.01408   0.09432   0.00000  Uiso   1.00
O270   O     0.91594   0.38378   0.85204   0.00000  Uiso   1.00
N271   N     0.61860   0.66670   0.30346   0.00000  Uiso   1.00
N272   N     0.37400   0.14027   0.05964   0.00000  Uiso   1.00
N273   N     0.79206   0.40369   0.88698   0.00000  Uiso   1.00
N274   N     0.70732   0.62675   0.39197   0.00000  Uiso   1.00
N275   N     0.46272   0.10031   0.14814   0.00000  Uiso   1.00
N276   N     0.88078   0.36373   0.97548   0.00000  Uiso   1.00
