data_job_06320
_audit_creation_date              2018-12-19
_audit_creation_method            'Materials Studio'
_symmetry_space_group_name_H-M    'P1'
_symmetry_Int_Tables_number       1
_symmetry_cell_setting            triclinic
loop_
_symmetry_equiv_pos_as_xyz
  x,y,z
_cell_length_a                    19.2449
_cell_length_b                    19.5311
_cell_length_c                    21.1434
_cell_angle_alpha                 65.2927
_cell_angle_beta                  63.5983
_cell_angle_gamma                 61.1663
loop_
_atom_site_label
_atom_site_type_symbol
_atom_site_fract_x
_atom_site_fract_y
_atom_site_fract_z
_atom_site_U_iso_or_equiv
_atom_site_adp_type
_atom_site_occupancy
C1     C     0.17308   0.88815   0.63989   0.00000  Uiso   1.00
C2     C     0.11320   0.89964   0.71508   0.00000  Uiso   1.00
C3     C     0.03895   0.96469   0.72844   0.00000  Uiso   1.00
C4     C     0.99302   0.96399   0.80109   0.00000  Uiso   1.00
C5     C     0.89588   0.99151   0.90914   0.00000  Uiso   1.00
C6     C     0.25726   0.87823   0.63863   0.00000  Uiso   1.00
C7     C     0.30413   0.92528   0.58769   0.00000  Uiso   1.00
C8     C     0.37947   0.90654   0.59598   0.00000  Uiso   1.00
C9     C     0.50602   0.90079   0.58530   0.00000  Uiso   1.00
C10    C     0.18339   0.80645   0.63811   0.00000  Uiso   1.00
C11    C     0.16818   0.79314   0.58673   0.00000  Uiso   1.00
C12    C     0.18136   0.71396   0.59457   0.00000  Uiso   1.00
C13    C     0.19322   0.59676   0.58309   0.00000  Uiso   1.00
C14    C     0.22356   0.77122   0.74517   0.00000  Uiso   1.00
C15    C     0.14062   0.83613   0.77227   0.00000  Uiso   1.00
C16    C     0.09479   0.83532   0.84492   0.00000  Uiso   1.00
C17    C     0.02048   0.90036   0.85838   0.00000  Uiso   1.00
C18    C     0.28467   0.81472   0.69581   0.00000  Uiso   1.00
C19    C     0.35997   0.79591   0.70417   0.00000  Uiso   1.00
C20    C     0.40694   0.84292   0.65326   0.00000  Uiso   1.00
C21    C     0.21081   0.74294   0.69530   0.00000  Uiso   1.00
C22    C     0.22402   0.66377   0.70321   0.00000  Uiso   1.00
C23    C     0.20883   0.65034   0.65185   0.00000  Uiso   1.00
H24    H     0.15174   0.93760   0.59537   0.00000  Uiso   1.00
H25    H     0.01775   0.01384   0.68417   0.00000  Uiso   1.00
H26    H     0.28290   0.97442   0.54344   0.00000  Uiso   1.00
H27    H     0.14697   0.84230   0.54249   0.00000  Uiso   1.00
H28    H     0.88131   0.07037   0.80784   0.00000  Uiso   1.00
H29    H     0.44039   0.98724   0.51109   0.00000  Uiso   1.00
H30    H     0.15375   0.70864   0.50907   0.00000  Uiso   1.00
H31    H     0.24491   0.72177   0.78969   0.00000  Uiso   1.00
H32    H     0.11602   0.78616   0.88916   0.00000  Uiso   1.00
H33    H     0.38117   0.74675   0.74843   0.00000  Uiso   1.00
H34    H     0.24524   0.61463   0.74747   0.00000  Uiso   1.00
H35    H     0.96107   0.88558   0.97421   0.00000  Uiso   1.00
H36    H     0.52016   0.80245   0.67746   0.00000  Uiso   1.00
H37    H     0.23351   0.52386   0.67544   0.00000  Uiso   1.00
O38    O     0.83473   0.02425   0.95295   0.00000  Uiso   1.00
O39    O     0.56824   0.91517   0.56362   0.00000  Uiso   1.00
O40    O     0.19217   0.54966   0.56097   0.00000  Uiso   1.00
N41    N     0.91776   0.01803   0.83334   0.00000  Uiso   1.00
N42    N     0.44046   0.94032   0.55591   0.00000  Uiso   1.00
N43    N     0.17250   0.67985   0.55401   0.00000  Uiso   1.00
N44    N     0.96067   0.91860   0.92287   0.00000  Uiso   1.00
N45    N     0.48338   0.84089   0.64543   0.00000  Uiso   1.00
N46    N     0.21542   0.58042   0.64353   0.00000  Uiso   1.00
C47    C     0.29775   0.17046   0.63946   0.00000  Uiso   1.00
C48    C     0.27112   0.11311   0.71305   0.00000  Uiso   1.00
C49    C     0.26632   0.04039   0.72319   0.00000  Uiso   1.00
C50    C     0.24060   0.99671   0.79484   0.00000  Uiso   1.00
C51    C     0.20228   0.90341   0.90007   0.00000  Uiso   1.00
C52    C     0.22619   0.25220   0.63976   0.00000  Uiso   1.00
C53    C     0.18363   0.29643   0.58829   0.00000  Uiso   1.00
C54    C     0.12009   0.36984   0.59824   0.00000  Uiso   1.00
C55    C     0.01206   0.49251   0.58966   0.00000  Uiso   1.00
C56    C     0.37046   0.18152   0.64041   0.00000  Uiso   1.00
C57    C     0.44919   0.16635   0.58947   0.00000  Uiso   1.00
C58    C     0.50710   0.18028   0.59995   0.00000  Uiso   1.00
C59    C     0.62306   0.19321   0.59239   0.00000  Uiso   1.00
C60    C     0.26059   0.22220   0.74866   0.00000  Uiso   1.00
C61    C     0.25094   0.14122   0.77236   0.00000  Uiso   1.00
C62    C     0.22521   0.09764   0.84400   0.00000  Uiso   1.00
C63    C     0.22038   0.02486   0.85425   0.00000  Uiso   1.00
C64    C     0.20601   0.28031   0.69907   0.00000  Uiso   1.00
C65    C     0.14252   0.35368   0.70909   0.00000  Uiso   1.00
C66    C     0.09987   0.39800   0.65765   0.00000  Uiso   1.00
C67    C     0.35028   0.20963   0.69972   0.00000  Uiso   1.00
C68    C     0.40808   0.22359   0.71028   0.00000  Uiso   1.00
C69    C     0.48688   0.20843   0.65937   0.00000  Uiso   1.00
H70    H     0.31346   0.14858   0.59329   0.00000  Uiso   1.00
H71    H     0.28194   0.01867   0.67728   0.00000  Uiso   1.00
H72    H     0.19927   0.27467   0.54239   0.00000  Uiso   1.00
H73    H     0.46478   0.14460   0.54358   0.00000  Uiso   1.00
H74    H     0.23807   0.88704   0.79656   0.00000  Uiso   1.00
H75    H     0.06377   0.42685   0.51213   0.00000  Uiso   1.00
H76    H     0.62366   0.15258   0.51462   0.00000  Uiso   1.00
H77    H     0.24488   0.24408   0.79483   0.00000  Uiso   1.00
H78    H     0.20960   0.11940   0.88989   0.00000  Uiso   1.00
H79    H     0.12692   0.37541   0.75500   0.00000  Uiso   1.00
H80    H     0.39244   0.24534   0.75618   0.00000  Uiso   1.00
H81    H     0.17935   0.96880   0.96911   0.00000  Uiso   1.00
H82    H     0.00505   0.50861   0.68468   0.00000  Uiso   1.00
H83    H     0.56494   0.23434   0.68718   0.00000  Uiso   1.00
O84    O     0.18671   0.84419   0.94173   0.00000  Uiso   1.00
O85    O     0.95805   0.55240   0.56856   0.00000  Uiso   1.00
O86    O     0.69261   0.19256   0.57183   0.00000  Uiso   1.00
N87    N     0.22911   0.92338   0.82412   0.00000  Uiso   1.00
N88    N     0.06613   0.42807   0.55820   0.00000  Uiso   1.00
N89    N     0.58958   0.17167   0.56053   0.00000  Uiso   1.00
N90    N     0.19751   0.96738   0.91697   0.00000  Uiso   1.00
N91    N     0.03454   0.47206   0.65105   0.00000  Uiso   1.00
N92    N     0.55798   0.21566   0.65338   0.00000  Uiso   1.00
C93    C     0.89176   0.29590   0.63889   0.00000  Uiso   1.00
C94    C     0.90238   0.27171   0.71352   0.00000  Uiso   1.00
C95    C     0.96926   0.26815   0.72583   0.00000  Uiso   1.00
C96    C     0.96734   0.24462   0.79812   0.00000  Uiso   1.00
C97    C     0.99395   0.20994   0.90521   0.00000  Uiso   1.00
C98    C     0.88060   0.22542   0.63556   0.00000  Uiso   1.00
C99    C     0.92918   0.18296   0.58231   0.00000  Uiso   1.00
C100   C     0.90892   0.12047   0.58897   0.00000  Uiso   1.00
C101   C     0.90169   0.01398   0.57498   0.00000  Uiso   1.00
C102   C     0.80846   0.36627   0.64056   0.00000  Uiso   1.00
C103   C     0.79637   0.44223   0.59150   0.00000  Uiso   1.00
C104   C     0.71537   0.49833   0.60235   0.00000  Uiso   1.00
C105   C     0.59613   0.61052   0.59613   0.00000  Uiso   1.00
C106   C     0.76941   0.26046   0.74537   0.00000  Uiso   1.00
C107   C     0.83592   0.25245   0.77136   0.00000  Uiso   1.00
C108   C     0.83389   0.22893   0.84365   0.00000  Uiso   1.00
C109   C     0.90076   0.22533   0.85607   0.00000  Uiso   1.00
C110   C     0.81415   0.20617   0.69339   0.00000  Uiso   1.00
C111   C     0.79381   0.14374   0.70013   0.00000  Uiso   1.00
C112   C     0.84234   0.10118   0.64691   0.00000  Uiso   1.00
C113   C     0.74200   0.34702   0.69840   0.00000  Uiso   1.00
C114   C     0.66100   0.40301   0.70932   0.00000  Uiso   1.00
C115   C     0.64879   0.47904   0.66030   0.00000  Uiso   1.00
H116   H     0.94350   0.31089   0.59385   0.00000  Uiso   1.00
H117   H     0.02068   0.28304   0.68106   0.00000  Uiso   1.00
H118   H     0.98060   0.19787   0.53755   0.00000  Uiso   1.00
H119   H     0.84781   0.45711   0.54675   0.00000  Uiso   1.00
H120   H     0.07696   0.24365   0.80324   0.00000  Uiso   1.00
H121   H     0.99242   0.06409   0.50064   0.00000  Uiso   1.00
H122   H     0.71242   0.61073   0.52003   0.00000  Uiso   1.00
H123   H     0.71767   0.24547   0.79041   0.00000  Uiso   1.00
H124   H     0.78245   0.21403   0.88840   0.00000  Uiso   1.00
H125   H     0.74237   0.12886   0.74489   0.00000  Uiso   1.00
H126   H     0.60959   0.38809   0.75409   0.00000  Uiso   1.00
H127   H     0.88361   0.18764   0.97153   0.00000  Uiso   1.00
H128   H     0.79906   0.00807   0.66893   0.00000  Uiso   1.00
H129   H     0.51907   0.55471   0.68832   0.00000  Uiso   1.00
O130   O     0.02699   0.19612   0.94830   0.00000  Uiso   1.00
O131   O     0.91607   0.96055   0.55129   0.00000  Uiso   1.00
O132   O     0.54872   0.67773   0.57673   0.00000  Uiso   1.00
N133   N     0.02256   0.23480   0.82940   0.00000  Uiso   1.00
N134   N     0.94352   0.06691   0.54650   0.00000  Uiso   1.00
N135   N     0.68174   0.57796   0.56461   0.00000  Uiso   1.00
N136   N     0.91851   0.20466   0.91995   0.00000  Uiso   1.00
N137   N     0.83948   0.03676   0.63705   0.00000  Uiso   1.00
N138   N     0.57770   0.54782   0.65516   0.00000  Uiso   1.00
C139   C     0.82692   0.11185   0.36011   0.00000  Uiso   1.00
C140   C     0.88680   0.10036   0.28492   0.00000  Uiso   1.00
C141   C     0.96105   0.03531   0.27156   0.00000  Uiso   1.00
C142   C     0.00698   0.03601   0.19891   0.00000  Uiso   1.00
C143   C     0.10412   0.00849   0.09085   0.00000  Uiso   1.00
C144   C     0.74274   0.12177   0.36137   0.00000  Uiso   1.00
C145   C     0.69587   0.07472   0.41231   0.00000  Uiso   1.00
C146   C     0.62052   0.09346   0.40402   0.00000  Uiso   1.00
C147   C     0.49398   0.09921   0.41470   0.00000  Uiso   1.00
C148   C     0.81661   0.19355   0.36189   0.00000  Uiso   1.00
C149   C     0.83182   0.20686   0.41327   0.00000  Uiso   1.00
C150   C     0.81864   0.28604   0.40543   0.00000  Uiso   1.00
C151   C     0.80678   0.40324   0.41691   0.00000  Uiso   1.00
C152   C     0.77644   0.22878   0.25483   0.00000  Uiso   1.00
C153   C     0.85938   0.16387   0.22773   0.00000  Uiso   1.00
C154   C     0.90521   0.16468   0.15508   0.00000  Uiso   1.00
C155   C     0.97952   0.09964   0.14162   0.00000  Uiso   1.00
C156   C     0.71533   0.18528   0.30419   0.00000  Uiso   1.00
C157   C     0.64003   0.20409   0.29583   0.00000  Uiso   1.00
C158   C     0.59306   0.15708   0.34674   0.00000  Uiso   1.00
C159   C     0.78919   0.25706   0.30470   0.00000  Uiso   1.00
C160   C     0.77598   0.33623   0.29679   0.00000  Uiso   1.00
C161   C     0.79117   0.34966   0.34815   0.00000  Uiso   1.00
H162   H     0.84825   0.06240   0.40463   0.00000  Uiso   1.00
H163   H     0.98225   0.98616   0.31583   0.00000  Uiso   1.00
H164   H     0.71710   0.02558   0.45656   0.00000  Uiso   1.00
H165   H     0.85303   0.15770   0.45751   0.00000  Uiso   1.00
H166   H     0.11869   0.92963   0.19216   0.00000  Uiso   1.00
H167   H     0.55961   0.01276   0.48891   0.00000  Uiso   1.00
H168   H     0.84625   0.29136   0.49093   0.00000  Uiso   1.00
H169   H     0.75509   0.27823   0.21031   0.00000  Uiso   1.00
H170   H     0.88398   0.21384   0.11084   0.00000  Uiso   1.00
H171   H     0.61883   0.25325   0.25157   0.00000  Uiso   1.00
H172   H     0.75476   0.38537   0.25253   0.00000  Uiso   1.00
H173   H     0.03893   0.11442   0.02579   0.00000  Uiso   1.00
H174   H     0.47984   0.19755   0.32254   0.00000  Uiso   1.00
H175   H     0.76649   0.47614   0.32456   0.00000  Uiso   1.00
O176   O     0.16526   0.97575   0.04705   0.00000  Uiso   1.00
O177   O     0.43176   0.08483   0.43638   0.00000  Uiso   1.00
O178   O     0.80783   0.45034   0.43903   0.00000  Uiso   1.00
N179   N     0.08224   0.98197   0.16666   0.00000  Uiso   1.00
N180   N     0.55954   0.05968   0.44409   0.00000  Uiso   1.00
N181   N     0.82750   0.32015   0.44599   0.00000  Uiso   1.00
N182   N     0.03933   0.08140   0.07713   0.00000  Uiso   1.00
N183   N     0.51662   0.15911   0.35457   0.00000  Uiso   1.00
N184   N     0.78458   0.41958   0.35647   0.00000  Uiso   1.00
C185   C     0.70225   0.82954   0.36054   0.00000  Uiso   1.00
C186   C     0.72888   0.88689   0.28695   0.00000  Uiso   1.00
C187   C     0.73367   0.95961   0.27681   0.00000  Uiso   1.00
C188   C     0.75940   0.00329   0.20516   0.00000  Uiso   1.00
C189   C     0.79772   0.09659   0.09993   0.00000  Uiso   1.00
C190   C     0.77381   0.74780   0.36024   0.00000  Uiso   1.00
C191   C     0.81637   0.70357   0.41171   0.00000  Uiso   1.00
C192   C     0.87991   0.63016   0.40176   0.00000  Uiso   1.00
C193   C     0.98794   0.50749   0.41034   0.00000  Uiso   1.00
C194   C     0.62954   0.81848   0.35959   0.00000  Uiso   1.00
C195   C     0.55081   0.83365   0.41053   0.00000  Uiso   1.00
C196   C     0.49290   0.81972   0.40005   0.00000  Uiso   1.00
C197   C     0.37694   0.80679   0.40761   0.00000  Uiso   1.00
C198   C     0.73941   0.77780   0.25134   0.00000  Uiso   1.00
C199   C     0.74906   0.85878   0.22764   0.00000  Uiso   1.00
C200   C     0.77478   0.90236   0.15600   0.00000  Uiso   1.00
C201   C     0.77962   0.97514   0.14575   0.00000  Uiso   1.00
C202   C     0.79399   0.71969   0.30093   0.00000  Uiso   1.00
C203   C     0.85748   0.64632   0.29091   0.00000  Uiso   1.00
C204   C     0.90013   0.60200   0.34235   0.00000  Uiso   1.00
C205   C     0.64972   0.79037   0.30028   0.00000  Uiso   1.00
C206   C     0.59192   0.77641   0.28972   0.00000  Uiso   1.00
C207   C     0.51312   0.79157   0.34063   0.00000  Uiso   1.00
H208   H     0.68654   0.85142   0.40671   0.00000  Uiso   1.00
H209   H     0.71806   0.98133   0.32272   0.00000  Uiso   1.00
H210   H     0.80073   0.72533   0.45761   0.00000  Uiso   1.00
H211   H     0.53522   0.85540   0.45642   0.00000  Uiso   1.00
H212   H     0.76193   0.11296   0.20344   0.00000  Uiso   1.00
H213   H     0.93623   0.57315   0.48787   0.00000  Uiso   1.00
H214   H     0.37634   0.84742   0.48538   0.00000  Uiso   1.00
H215   H     0.75512   0.75592   0.20517   0.00000  Uiso   1.00
H216   H     0.79040   0.88060   0.11011   0.00000  Uiso   1.00
H217   H     0.87308   0.62459   0.24500   0.00000  Uiso   1.00
H218   H     0.60756   0.75466   0.24382   0.00000  Uiso   1.00
H219   H     0.82065   0.03120   0.03089   0.00000  Uiso   1.00
H220   H     0.99495   0.49139   0.31532   0.00000  Uiso   1.00
H221   H     0.43506   0.76566   0.31282   0.00000  Uiso   1.00
O222   O     0.81329   0.15581   0.05827   0.00000  Uiso   1.00
O223   O     0.04195   0.44760   0.43144   0.00000  Uiso   1.00
O224   O     0.30739   0.80744   0.42817   0.00000  Uiso   1.00
N225   N     0.77089   0.07662   0.17588   0.00000  Uiso   1.00
N226   N     0.93386   0.57193   0.44180   0.00000  Uiso   1.00
N227   N     0.41042   0.82833   0.43947   0.00000  Uiso   1.00
N228   N     0.80249   0.03262   0.08303   0.00000  Uiso   1.00
N229   N     0.96546   0.52794   0.34895   0.00000  Uiso   1.00
N230   N     0.44202   0.78434   0.34662   0.00000  Uiso   1.00
C231   C     0.10824   0.70410   0.36111   0.00000  Uiso   1.00
C232   C     0.09762   0.72829   0.28648   0.00000  Uiso   1.00
C233   C     0.03074   0.73185   0.27417   0.00000  Uiso   1.00
C234   C     0.03266   0.75538   0.20188   0.00000  Uiso   1.00
C235   C     0.00605   0.79006   0.09479   0.00000  Uiso   1.00
C236   C     0.11940   0.77458   0.36444   0.00000  Uiso   1.00
C237   C     0.07082   0.81704   0.41769   0.00000  Uiso   1.00
C238   C     0.09108   0.87953   0.41103   0.00000  Uiso   1.00
C239   C     0.09831   0.98602   0.42502   0.00000  Uiso   1.00
C240   C     0.19154   0.63373   0.35944   0.00000  Uiso   1.00
C241   C     0.20363   0.55777   0.40850   0.00000  Uiso   1.00
C242   C     0.28463   0.50167   0.39765   0.00000  Uiso   1.00
C243   C     0.40387   0.38948   0.40387   0.00000  Uiso   1.00
C244   C     0.23059   0.73954   0.25463   0.00000  Uiso   1.00
C245   C     0.16408   0.74755   0.22864   0.00000  Uiso   1.00
C246   C     0.16611   0.77107   0.15635   0.00000  Uiso   1.00
C247   C     0.09924   0.77467   0.14393   0.00000  Uiso   1.00
C248   C     0.18585   0.79383   0.30661   0.00000  Uiso   1.00
C249   C     0.20619   0.85626   0.29987   0.00000  Uiso   1.00
C250   C     0.15766   0.89882   0.35309   0.00000  Uiso   1.00
C251   C     0.25800   0.65298   0.30160   0.00000  Uiso   1.00
C252   C     0.33900   0.59699   0.29068   0.00000  Uiso   1.00
C253   C     0.35121   0.52096   0.33970   0.00000  Uiso   1.00
H254   H     0.05650   0.68911   0.40615   0.00000  Uiso   1.00
H255   H     0.97931   0.71696   0.31894   0.00000  Uiso   1.00
H256   H     0.01940   0.80213   0.46245   0.00000  Uiso   1.00
H257   H     0.15218   0.54289   0.45325   0.00000  Uiso   1.00
H258   H     0.92304   0.75635   0.19676   0.00000  Uiso   1.00
H259   H     0.00758   0.93591   0.49936   0.00000  Uiso   1.00
H260   H     0.28758   0.38927   0.47997   0.00000  Uiso   1.00
H261   H     0.28233   0.75453   0.20959   0.00000  Uiso   1.00
H262   H     0.21754   0.78597   0.11160   0.00000  Uiso   1.00
H263   H     0.25763   0.87114   0.25511   0.00000  Uiso   1.00
H264   H     0.39041   0.61191   0.24591   0.00000  Uiso   1.00
H265   H     0.11639   0.81236   0.02847   0.00000  Uiso   1.00
H266   H     0.20093   0.99193   0.33107   0.00000  Uiso   1.00
H267   H     0.48093   0.44529   0.31168   0.00000  Uiso   1.00
O268   O     0.97301   0.80388   0.05170   0.00000  Uiso   1.00
O269   O     0.08393   0.03945   0.44871   0.00000  Uiso   1.00
O270   O     0.45128   0.32227   0.42327   0.00000  Uiso   1.00
N271   N     0.97744   0.76520   0.17060   0.00000  Uiso   1.00
N272   N     0.05648   0.93309   0.45350   0.00000  Uiso   1.00
N273   N     0.31825   0.42204   0.43539   0.00000  Uiso   1.00
N274   N     0.08149   0.79534   0.08004   0.00000  Uiso   1.00
N275   N     0.16052   0.96324   0.36295   0.00000  Uiso   1.00
N276   N     0.42230   0.45218   0.34484   0.00000  Uiso   1.00
