data_job_06453
_audit_creation_date              2018-12-19
_audit_creation_method            'Materials Studio'
_symmetry_space_group_name_H-M    'P1'
_symmetry_Int_Tables_number       1
_symmetry_cell_setting            triclinic
loop_
_symmetry_equiv_pos_as_xyz
  x,y,z
_cell_length_a                    15.8863
_cell_length_b                    15.7320
_cell_length_c                    15.5883
_cell_angle_alpha                 99.1701
_cell_angle_beta                  100.0260
_cell_angle_gamma                 100.7610
loop_
_atom_site_label
_atom_site_type_symbol
_atom_site_fract_x
_atom_site_fract_y
_atom_site_fract_z
_atom_site_U_iso_or_equiv
_atom_site_adp_type
_atom_site_occupancy
C1     C     0.34316   0.51001   0.22304   0.00000  Uiso   1.00
C2     C     0.25777   0.50805   0.25550   0.00000  Uiso   1.00
C3     C     0.19935   0.43278   0.26138   0.00000  Uiso   1.00
C4     C     0.12495   0.44493   0.29271   0.00000  Uiso   1.00
C5     C     0.99468   0.42904   0.33934   0.00000  Uiso   1.00
C6     C     0.33715   0.55969   0.14659   0.00000  Uiso   1.00
C7     C     0.34548   0.52784   0.06089   0.00000  Uiso   1.00
C8     C     0.33792   0.58347   0.00054   0.00000  Uiso   1.00
C9     C     0.33095   0.64778   0.87809   0.00000  Uiso   1.00
C10    C     0.41520   0.56881   0.29799   0.00000  Uiso   1.00
C11    C     0.48917   0.54463   0.33959   0.00000  Uiso   1.00
C12    C     0.54733   0.60795   0.40670   0.00000  Uiso   1.00
C13    C     0.66154   0.68641   0.51933   0.00000  Uiso   1.00
C14    C     0.31493   0.66545   0.26824   0.00000  Uiso   1.00
C15    C     0.24244   0.59248   0.28005   0.00000  Uiso   1.00
C16    C     0.16811   0.60475   0.31139   0.00000  Uiso   1.00
C17    C     0.10959   0.52951   0.31731   0.00000  Uiso   1.00
C18    C     0.32182   0.64412   0.17113   0.00000  Uiso   1.00
C19    C     0.31425   0.69981   0.11090   0.00000  Uiso   1.00
C20    C     0.32256   0.66805   0.02513   0.00000  Uiso   1.00
C21    C     0.39987   0.65324   0.32255   0.00000  Uiso   1.00
C22    C     0.45793   0.71660   0.38960   0.00000  Uiso   1.00
C23    C     0.53197   0.69253   0.43129   0.00000  Uiso   1.00
H24    H     0.35510   0.44428   0.20392   0.00000  Uiso   1.00
H25    H     0.21123   0.36745   0.24236   0.00000  Uiso   1.00
H26    H     0.35736   0.46251   0.04191   0.00000  Uiso   1.00
H27    H     0.50101   0.47929   0.32057   0.00000  Uiso   1.00
H28    H     0.04496   0.31950   0.29578   0.00000  Uiso   1.00
H29    H     0.35309   0.51994   0.87312   0.00000  Uiso   1.00
H30    H     0.65602   0.55533   0.46073   0.00000  Uiso   1.00
H31    H     0.30299   0.73118   0.28735   0.00000  Uiso   1.00
H32    H     0.15627   0.67009   0.33038   0.00000  Uiso   1.00
H33    H     0.30239   0.76514   0.12992   0.00000  Uiso   1.00
H34    H     0.44604   0.78193   0.40858   0.00000  Uiso   1.00
H35    H     0.00034   0.56514   0.36721   0.00000  Uiso   1.00
H36    H     0.30848   0.76557   0.94456   0.00000  Uiso   1.00
H37    H     0.61141   0.80097   0.53216   0.00000  Uiso   1.00
O38    O     0.92705   0.39696   0.35827   0.00000  Uiso   1.00
O39    O     0.33133   0.65992   0.80377   0.00000  Uiso   1.00
O40    O     0.72876   0.70636   0.57469   0.00000  Uiso   1.00
N41    N     0.05460   0.38570   0.30670   0.00000  Uiso   1.00
N42    N     0.34267   0.57309   0.91154   0.00000  Uiso   1.00
N43    N     0.62590   0.60619   0.46089   0.00000  Uiso   1.00
N44    N     0.03059   0.51787   0.34514   0.00000  Uiso   1.00
N45    N     0.31867   0.70526   0.94998   0.00000  Uiso   1.00
N46    N     0.60190   0.73836   0.49933   0.00000  Uiso   1.00
C47    C     0.21980   0.33905   0.50688   0.00000  Uiso   1.00
C48    C     0.25115   0.25309   0.50620   0.00000  Uiso   1.00
C49    C     0.25599   0.19513   0.43108   0.00000  Uiso   1.00
C50    C     0.28640   0.12008   0.44448   0.00000  Uiso   1.00
C51    C     0.33129   0.98908   0.43042   0.00000  Uiso   1.00
C52    C     0.14496   0.33197   0.55659   0.00000  Uiso   1.00
C53    C     0.06052   0.34034   0.52384   0.00000  Uiso   1.00
C54    C     0.00154   0.33170   0.57967   0.00000  Uiso   1.00
C55    C     0.88157   0.32323   0.64386   0.00000  Uiso   1.00
C56    C     0.29439   0.41137   0.56570   0.00000  Uiso   1.00
C57    C     0.33559   0.48652   0.54063   0.00000  Uiso   1.00
C58    C     0.40242   0.54474   0.60413   0.00000  Uiso   1.00
C59    C     0.51448   0.65955   0.68247   0.00000  Uiso   1.00
C60    C     0.26519   0.30884   0.66426   0.00000  Uiso   1.00
C61    C     0.27580   0.23669   0.59168   0.00000  Uiso   1.00
C62    C     0.30622   0.16170   0.60520   0.00000  Uiso   1.00
C63    C     0.31111   0.10364   0.53011   0.00000  Uiso   1.00
C64    C     0.16961   0.31556   0.64207   0.00000  Uiso   1.00
C65    C     0.11074   0.30692   0.69796   0.00000  Uiso   1.00
C66    C     0.02624   0.31526   0.66530   0.00000  Uiso   1.00
C67    C     0.31905   0.39497   0.65118   0.00000  Uiso   1.00
C68    C     0.38582   0.45308   0.71474   0.00000  Uiso   1.00
C69    C     0.42712   0.52830   0.68977   0.00000  Uiso   1.00
H70    H     0.20060   0.35183   0.44034   0.00000  Uiso   1.00
H71    H     0.23690   0.20785   0.36494   0.00000  Uiso   1.00
H72    H     0.04146   0.35305   0.45769   0.00000  Uiso   1.00
H73    H     0.31650   0.49919   0.47447   0.00000  Uiso   1.00
H74    H     0.28799   0.04097   0.31905   0.00000  Uiso   1.00
H75    H     0.87590   0.34716   0.51463   0.00000  Uiso   1.00
H76    H     0.45587   0.65534   0.55002   0.00000  Uiso   1.00
H77    H     0.28439   0.29606   0.73081   0.00000  Uiso   1.00
H78    H     0.32529   0.14902   0.67135   0.00000  Uiso   1.00
H79    H     0.12984   0.29422   0.76410   0.00000  Uiso   1.00
H80    H     0.40488   0.44037   0.78088   0.00000  Uiso   1.00
H81    H     0.35972   0.99322   0.56774   0.00000  Uiso   1.00
H82    H     0.94763   0.29942   0.76333   0.00000  Uiso   1.00
H83    H     0.52760   0.60759   0.79871   0.00000  Uiso   1.00
O84    O     0.34922   0.92136   0.39904   0.00000  Uiso   1.00
O85    O     0.80859   0.32309   0.65564   0.00000  Uiso   1.00
O86    O     0.56949   0.72740   0.70207   0.00000  Uiso   1.00
N87    N     0.29927   0.04992   0.38574   0.00000  Uiso   1.00
N88    N     0.91399   0.33617   0.56859   0.00000  Uiso   1.00
N89    N     0.45620   0.62431   0.60168   0.00000  Uiso   1.00
N90    N     0.33788   0.02423   0.51956   0.00000  Uiso   1.00
N91    N     0.95260   0.31048   0.70241   0.00000  Uiso   1.00
N92    N     0.49480   0.59862   0.73550   0.00000  Uiso   1.00
C93    C     0.50500   0.21878   0.33778   0.00000  Uiso   1.00
C94    C     0.50391   0.25149   0.25070   0.00000  Uiso   1.00
C95    C     0.42967   0.25673   0.19173   0.00000  Uiso   1.00
C96    C     0.44249   0.28842   0.11574   0.00000  Uiso   1.00
C97    C     0.42800   0.33528   0.98299   0.00000  Uiso   1.00
C98    C     0.55334   0.14361   0.33191   0.00000  Uiso   1.00
C99    C     0.52065   0.05816   0.34123   0.00000  Uiso   1.00
C100   C     0.57509   0.99904   0.33361   0.00000  Uiso   1.00
C101   C     0.63736   0.87845   0.32701   0.00000  Uiso   1.00
C102   C     0.56385   0.29343   0.41011   0.00000  Uiso   1.00
C103   C     0.54001   0.33392   0.48520   0.00000  Uiso   1.00
C104   C     0.60331   0.40093   0.54344   0.00000  Uiso   1.00
C105   C     0.68190   0.51294   0.65825   0.00000  Uiso   1.00
C106   C     0.65981   0.26576   0.30770   0.00000  Uiso   1.00
C107   C     0.58800   0.27700   0.23436   0.00000  Uiso   1.00
C108   C     0.60094   0.30870   0.15844   0.00000  Uiso   1.00
C109   C     0.52673   0.31399   0.09937   0.00000  Uiso   1.00
C110   C     0.63742   0.16913   0.31557   0.00000  Uiso   1.00
C111   C     0.69192   0.11013   0.30794   0.00000  Uiso   1.00
C112   C     0.65933   0.02460   0.31724   0.00000  Uiso   1.00
C113   C     0.64793   0.31895   0.39377   0.00000  Uiso   1.00
C114   C     0.71128   0.38590   0.45191   0.00000  Uiso   1.00
C115   C     0.68755   0.42649   0.52707   0.00000  Uiso   1.00
H116   H     0.43954   0.19891   0.35051   0.00000  Uiso   1.00
H117   H     0.36460   0.23696   0.20440   0.00000  Uiso   1.00
H118   H     0.45558   0.03843   0.35388   0.00000  Uiso   1.00
H119   H     0.47494   0.31415   0.49783   0.00000  Uiso   1.00
H120   H     0.31860   0.29038   0.03519   0.00000  Uiso   1.00
H121   H     0.51044   0.87176   0.35042   0.00000  Uiso   1.00
H122   H     0.55126   0.45318   0.65395   0.00000  Uiso   1.00
H123   H     0.72528   0.28563   0.29497   0.00000  Uiso   1.00
H124   H     0.66602   0.32844   0.14582   0.00000  Uiso   1.00
H125   H     0.75699   0.12990   0.29530   0.00000  Uiso   1.00
H126   H     0.77635   0.40563   0.43924   0.00000  Uiso   1.00
H127   H     0.56324   0.36462   0.98764   0.00000  Uiso   1.00
H128   H     0.75508   0.94600   0.30287   0.00000  Uiso   1.00
H129   H     0.79589   0.52742   0.60640   0.00000  Uiso   1.00
O130   O     0.39678   0.35407   0.91428   0.00000  Uiso   1.00
O131   O     0.64847   0.80487   0.32787   0.00000  Uiso   1.00
O132   O     0.70202   0.56768   0.72609   0.00000  Uiso   1.00
N133   N     0.38431   0.30199   0.04448   0.00000  Uiso   1.00
N134   N     0.56366   0.91061   0.33918   0.00000  Uiso   1.00
N135   N     0.60183   0.45417   0.62297   0.00000  Uiso   1.00
N136   N     0.51595   0.34194   0.01889   0.00000  Uiso   1.00
N137   N     0.69530   0.95056   0.31360   0.00000  Uiso   1.00
N138   N     0.73347   0.49412   0.59739   0.00000  Uiso   1.00
C139   C     0.84302   0.72310   0.01019   0.00000  Uiso   1.00
C140   C     0.75783   0.75477   0.00873   0.00000  Uiso   1.00
C141   C     0.69985   0.76021   0.93320   0.00000  Uiso   1.00
C142   C     0.62556   0.79083   0.94590   0.00000  Uiso   1.00
C143   C     0.49563   0.83627   0.93067   0.00000  Uiso   1.00
C144   C     0.83632   0.64725   0.06035   0.00000  Uiso   1.00
C145   C     0.84435   0.56229   0.02822   0.00000  Uiso   1.00
C146   C     0.83614   0.50241   0.08438   0.00000  Uiso   1.00
C147   C     0.82813   0.38095   0.14932   0.00000  Uiso   1.00
C148   C     0.91515   0.79791   0.06899   0.00000  Uiso   1.00
C149   C     0.98949   0.83961   0.04414   0.00000  Uiso   1.00
C150   C     0.04767   0.90655   0.10759   0.00000  Uiso   1.00
C151   C     0.16207   0.01900   0.18594   0.00000  Uiso   1.00
C152   C     0.81418   0.76782   0.16707   0.00000  Uiso   1.00
C153   C     0.74216   0.77906   0.09394   0.00000  Uiso   1.00
C154   C     0.66793   0.80968   0.10676   0.00000  Uiso   1.00
C155   C     0.60986   0.81517   0.03126   0.00000  Uiso   1.00
C156   C     0.82065   0.67154   0.14556   0.00000  Uiso   1.00
C157   C     0.81243   0.61177   0.20179   0.00000  Uiso   1.00
C158   C     0.82044   0.52674   0.16975   0.00000  Uiso   1.00
C159   C     0.89949   0.82220   0.15421   0.00000  Uiso   1.00
C160   C     0.95757   0.88908   0.21771   0.00000  Uiso   1.00
C161   C     0.03197   0.93088   0.19295   0.00000  Uiso   1.00
H162   H     0.85522   0.70418   0.94385   0.00000  Uiso   1.00
H163   H     0.71200   0.74139   0.86726   0.00000  Uiso   1.00
H164   H     0.85648   0.54352   0.96228   0.00000  Uiso   1.00
H165   H     0.00159   0.82079   0.97820   0.00000  Uiso   1.00
H166   H     0.54628   0.79333   0.81993   0.00000  Uiso   1.00
H167   H     0.85096   0.37611   0.02028   0.00000  Uiso   1.00
H168   H     0.15696   0.96079   0.05384   0.00000  Uiso   1.00
H169   H     0.80198   0.78673   0.23341   0.00000  Uiso   1.00
H170   H     0.65582   0.82847   0.17271   0.00000  Uiso   1.00
H171   H     0.80031   0.63059   0.26773   0.00000  Uiso   1.00
H172   H     0.94542   0.90786   0.28364   0.00000  Uiso   1.00
H173   H     0.50068   0.86401   0.06784   0.00000  Uiso   1.00
H174   H     0.80537   0.44678   0.26820   0.00000  Uiso   1.00
H175   H     0.11137   0.03146   0.30176   0.00000  Uiso   1.00
O176   O     0.42829   0.85461   0.89873   0.00000  Uiso   1.00
O177   O     0.82803   0.30724   0.16159   0.00000  Uiso   1.00
O178   O     0.22950   0.07432   0.20562   0.00000  Uiso   1.00
N179   N     0.55562   0.80425   0.88661   0.00000  Uiso   1.00
N180   N     0.84046   0.41417   0.07392   0.00000  Uiso   1.00
N181   N     0.12656   0.96078   0.10530   0.00000  Uiso   1.00
N182   N     0.53108   0.84228   0.02001   0.00000  Uiso   1.00
N183   N     0.81592   0.45220   0.20732   0.00000  Uiso   1.00
N184   N     0.10202   0.99881   0.23870   0.00000  Uiso   1.00
C185   C     0.71865   0.00541   0.83764   0.00000  Uiso   1.00
C186   C     0.75047   0.00490   0.75078   0.00000  Uiso   1.00
C187   C     0.75523   0.93040   0.69233   0.00000  Uiso   1.00
C188   C     0.78613   0.94385   0.61646   0.00000  Uiso   1.00
C189   C     0.83167   0.93013   0.48411   0.00000  Uiso   1.00
C190   C     0.64412   0.05425   0.83094   0.00000  Uiso   1.00
C191   C     0.55945   0.02126   0.83992   0.00000  Uiso   1.00
C192   C     0.50082   0.07626   0.83155   0.00000  Uiso   1.00
C193   C     0.38126   0.13918   0.82373   0.00000  Uiso   1.00
C194   C     0.79316   0.06424   0.91007   0.00000  Uiso   1.00
C195   C     0.83381   0.03965   0.98559   0.00000  Uiso   1.00
C196   C     0.90066   0.10308   0.04385   0.00000  Uiso   1.00
C197   C     0.01252   0.18151   0.15888   0.00000  Uiso   1.00
C198   C     0.76508   0.16177   0.80683   0.00000  Uiso   1.00
C199   C     0.77569   0.08983   0.73404   0.00000  Uiso   1.00
C200   C     0.80660   0.10339   0.65824   0.00000  Uiso   1.00
C201   C     0.81140   0.02893   0.59970   0.00000  Uiso   1.00
C202   C     0.66933   0.13918   0.81421   0.00000  Uiso   1.00
C203   C     0.61082   0.19424   0.80583   0.00000  Uiso   1.00
C204   C     0.52609   0.16134   0.81479   0.00000  Uiso   1.00
C205   C     0.81839   0.14917   0.89334   0.00000  Uiso   1.00
C206   C     0.88519   0.21264   0.95150   0.00000  Uiso   1.00
C207   C     0.92593   0.18816   0.02708   0.00000  Uiso   1.00
H208   H     0.69901   0.93930   0.85066   0.00000  Uiso   1.00
H209   H     0.73569   0.86469   0.70530   0.00000  Uiso   1.00
H210   H     0.53995   0.95554   0.85288   0.00000  Uiso   1.00
H211   H     0.81427   0.97393   0.99852   0.00000  Uiso   1.00
H212   H     0.78746   0.81942   0.53674   0.00000  Uiso   1.00
H213   H     0.37474   0.01099   0.84794   0.00000  Uiso   1.00
H214   H     0.95319   0.04977   0.15506   0.00000  Uiso   1.00
H215   H     0.78472   0.22789   0.79380   0.00000  Uiso   1.00
H216   H     0.82611   0.16912   0.64531   0.00000  Uiso   1.00
H217   H     0.63037   0.25996   0.79289   0.00000  Uiso   1.00
H218   H     0.90469   0.27836   0.93853   0.00000  Uiso   1.00
H219   H     0.86085   0.06651   0.48805   0.00000  Uiso   1.00
H220   H     0.44812   0.25807   0.79926   0.00000  Uiso   1.00
H221   H     0.02657   0.29686   0.10637   0.00000  Uiso   1.00
O222   O     0.84981   0.89909   0.41573   0.00000  Uiso   1.00
O223   O     0.30834   0.15042   0.82403   0.00000  Uiso   1.00
O224   O     0.06726   0.20131   0.22695   0.00000  Uiso   1.00
N225   N     0.79907   0.88564   0.54567   0.00000  Uiso   1.00
N226   N     0.41319   0.06474   0.83661   0.00000  Uiso   1.00
N227   N     0.95398   0.10101   0.12375   0.00000  Uiso   1.00
N228   N     0.83856   0.01860   0.51947   0.00000  Uiso   1.00
N229   N     0.45268   0.19769   0.81041   0.00000  Uiso   1.00
N230   N     0.99347   0.23396   0.09755   0.00000  Uiso   1.00
C231   C     0.00629   0.83933   0.71988   0.00000  Uiso   1.00
C232   C     0.00453   0.75297   0.75290   0.00000  Uiso   1.00
C233   C     0.92993   0.69403   0.75866   0.00000  Uiso   1.00
C234   C     0.94216   0.61875   0.79057   0.00000  Uiso   1.00
C235   C     0.92667   0.48702   0.83797   0.00000  Uiso   1.00
C236   C     0.05502   0.83378   0.64379   0.00000  Uiso   1.00
C237   C     0.02286   0.84279   0.55782   0.00000  Uiso   1.00
C238   C     0.07759   0.83554   0.49789   0.00000  Uiso   1.00
C239   C     0.14050   0.82933   0.37591   0.00000  Uiso   1.00
C240   C     0.06512   0.91146   0.79474   0.00000  Uiso   1.00
C241   C     0.04148   0.98581   0.83569   0.00000  Uiso   1.00
C242   C     0.10473   0.04398   0.90283   0.00000  Uiso   1.00
C243   C     0.18333   0.15838   0.01523   0.00000  Uiso   1.00
C244   C     0.16067   0.81046   0.76629   0.00000  Uiso   1.00
C245   C     0.08839   0.73729   0.77811   0.00000  Uiso   1.00
C246   C     0.10073   0.66209   0.81002   0.00000  Uiso   1.00
C247   C     0.02616   0.60304   0.81583   0.00000  Uiso   1.00
C248   C     0.13887   0.81810   0.66900   0.00000  Uiso   1.00
C249   C     0.19366   0.81085   0.60918   0.00000  Uiso   1.00
C250   C     0.16159   0.81984   0.52314   0.00000  Uiso   1.00
C251   C     0.14898   0.89578   0.81996   0.00000  Uiso   1.00
C252   C     0.21228   0.95386   0.88705   0.00000  Uiso   1.00
C253   C     0.18873   0.02827   0.92809   0.00000  Uiso   1.00
H254   H     0.94101   0.85154   0.70024   0.00000  Uiso   1.00
H255   H     0.86505   0.70618   0.73914   0.00000  Uiso   1.00
H256   H     0.95797   0.85493   0.53833   0.00000  Uiso   1.00
H257   H     0.97658   0.99792   0.81616   0.00000  Uiso   1.00
H258   H     0.81780   0.53809   0.79335   0.00000  Uiso   1.00
H259   H     0.01374   0.85176   0.36995   0.00000  Uiso   1.00
H260   H     0.05299   0.15329   0.95579   0.00000  Uiso   1.00
H261   H     0.22596   0.79826   0.78592   0.00000  Uiso   1.00
H262   H     0.16563   0.64997   0.82953   0.00000  Uiso   1.00
H263   H     0.25855   0.79872   0.62871   0.00000  Uiso   1.00
H264   H     0.27716   0.94170   0.90654   0.00000  Uiso   1.00
H265   H     0.06177   0.49247   0.86671   0.00000  Uiso   1.00
H266   H     0.25771   0.80614   0.44330   0.00000  Uiso   1.00
H267   H     0.29696   0.10766   0.02915   0.00000  Uiso   1.00
O268   O     0.89496   0.41868   0.85713   0.00000  Uiso   1.00
O269   O     0.15202   0.83022   0.30165   0.00000  Uiso   1.00
O270   O     0.20352   0.22581   0.07027   0.00000  Uiso   1.00
N271   N     0.88350   0.54771   0.80465   0.00000  Uiso   1.00
N272   N     0.06668   0.84096   0.40879   0.00000  Uiso   1.00
N273   N     0.10339   0.12288   0.95649   0.00000  Uiso   1.00
N274   N     0.01478   0.52316   0.84412   0.00000  Uiso   1.00
N275   N     0.19796   0.81641   0.44826   0.00000  Uiso   1.00
N276   N     0.23466   0.09833   0.99596   0.00000  Uiso   1.00
