data_job_03138
_audit_creation_date              2018-12-19
_audit_creation_method            'Materials Studio'
_symmetry_space_group_name_H-M    'P1'
_symmetry_Int_Tables_number       1
_symmetry_cell_setting            triclinic
loop_
_symmetry_equiv_pos_as_xyz
  x,y,z
_cell_length_a                    21.4840
_cell_length_b                    12.9511
_cell_length_c                    23.6796
_cell_angle_alpha                 90.0000
_cell_angle_beta                  90.0000
_cell_angle_gamma                 90.0000
loop_
_atom_site_label
_atom_site_type_symbol
_atom_site_fract_x
_atom_site_fract_y
_atom_site_fract_z
_atom_site_U_iso_or_equiv
_atom_site_adp_type
_atom_site_occupancy
C1     C     0.69284   0.57656   0.21911   0.00000  Uiso   1.00
C2     C     0.72048   0.50818   0.17307   0.00000  Uiso   1.00
C3     C     0.77119   0.53274   0.13934   0.00000  Uiso   1.00
C4     C     0.78931   0.45979   0.09964   0.00000  Uiso   1.00
C5     C     0.83700   0.36795   0.02901   0.00000  Uiso   1.00
C6     C     0.62436   0.59047   0.20397   0.00000  Uiso   1.00
C7     C     0.59426   0.68422   0.19622   0.00000  Uiso   1.00
C8     C     0.53146   0.68055   0.18254   0.00000  Uiso   1.00
C9     C     0.42991   0.71647   0.15991   0.00000  Uiso   1.00
C10    C     0.69392   0.51233   0.27307   0.00000  Uiso   1.00
C11    C     0.72229   0.54039   0.32344   0.00000  Uiso   1.00
C12    C     0.71804   0.47094   0.36794   0.00000  Uiso   1.00
C13    C     0.72449   0.38554   0.45261   0.00000  Uiso   1.00
C14    C     0.63484   0.40334   0.20858   0.00000  Uiso   1.00
C15    C     0.68897   0.41410   0.16735   0.00000  Uiso   1.00
C16    C     0.70702   0.34109   0.12769   0.00000  Uiso   1.00
C17    C     0.75775   0.36554   0.09392   0.00000  Uiso   1.00
C18    C     0.59286   0.49639   0.19825   0.00000  Uiso   1.00
C19    C     0.53008   0.49258   0.18457   0.00000  Uiso   1.00
C20    C     0.49989   0.58630   0.17681   0.00000  Uiso   1.00
C21    C     0.66242   0.41824   0.26735   0.00000  Uiso   1.00
C22    C     0.65811   0.34874   0.31179   0.00000  Uiso   1.00
C23    C     0.68647   0.37669   0.36221   0.00000  Uiso   1.00
H24    H     0.71737   0.64981   0.22356   0.00000  Uiso   1.00
H25    H     0.79556   0.60556   0.14378   0.00000  Uiso   1.00
H26    H     0.61865   0.75702   0.20066   0.00000  Uiso   1.00
H27    H     0.74666   0.61320   0.32785   0.00000  Uiso   1.00
H28    H     0.86834   0.51502   0.05279   0.00000  Uiso   1.00
H29    H     0.49532   0.83438   0.17274   0.00000  Uiso   1.00
H30    H     0.76526   0.53113   0.44095   0.00000  Uiso   1.00
H31    H     0.61030   0.33009   0.20413   0.00000  Uiso   1.00
H32    H     0.68263   0.26829   0.12328   0.00000  Uiso   1.00
H33    H     0.50572   0.41976   0.18015   0.00000  Uiso   1.00
H34    H     0.63373   0.27594   0.30735   0.00000  Uiso   1.00
H35    H     0.77668   0.24129   0.03615   0.00000  Uiso   1.00
H36    H     0.40365   0.56065   0.15610   0.00000  Uiso   1.00
H37    H     0.67359   0.25739   0.42431   0.00000  Uiso   1.00
O38    O     0.87201   0.34329   0.99162   0.00000  Uiso   1.00
O39    O     0.38261   0.76227   0.14900   0.00000  Uiso   1.00
O40    O     0.73677   0.36441   0.50089   0.00000  Uiso   1.00
N41    N     0.83685   0.45907   0.05998   0.00000  Uiso   1.00
N42    N     0.48810   0.75765   0.17211   0.00000  Uiso   1.00
N43    N     0.74045   0.47415   0.42288   0.00000  Uiso   1.00
N44    N     0.78753   0.31178   0.05102   0.00000  Uiso   1.00
N45    N     0.43878   0.61036   0.16316   0.00000  Uiso   1.00
N46    N     0.69113   0.32686   0.41392   0.00000  Uiso   1.00
C47    C     0.19284   0.07656   0.21911   0.00000  Uiso   1.00
C48    C     0.22048   0.00818   0.17307   0.00000  Uiso   1.00
C49    C     0.27119   0.03274   0.13934   0.00000  Uiso   1.00
C50    C     0.28931   0.95979   0.09964   0.00000  Uiso   1.00
C51    C     0.33700   0.86795   0.02901   0.00000  Uiso   1.00
C52    C     0.12436   0.09047   0.20397   0.00000  Uiso   1.00
C53    C     0.09426   0.18422   0.19622   0.00000  Uiso   1.00
C54    C     0.03146   0.18055   0.18254   0.00000  Uiso   1.00
C55    C     0.92991   0.21647   0.15991   0.00000  Uiso   1.00
C56    C     0.19392   0.01233   0.27307   0.00000  Uiso   1.00
C57    C     0.22229   0.04039   0.32344   0.00000  Uiso   1.00
C58    C     0.21804   0.97094   0.36794   0.00000  Uiso   1.00
C59    C     0.22449   0.88554   0.45261   0.00000  Uiso   1.00
C60    C     0.13484   0.90334   0.20858   0.00000  Uiso   1.00
C61    C     0.18897   0.91410   0.16735   0.00000  Uiso   1.00
C62    C     0.20702   0.84109   0.12769   0.00000  Uiso   1.00
C63    C     0.25775   0.86554   0.09392   0.00000  Uiso   1.00
C64    C     0.09286   0.99639   0.19825   0.00000  Uiso   1.00
C65    C     0.03008   0.99258   0.18457   0.00000  Uiso   1.00
C66    C     0.99989   0.08630   0.17681   0.00000  Uiso   1.00
C67    C     0.16242   0.91824   0.26735   0.00000  Uiso   1.00
C68    C     0.15811   0.84874   0.31179   0.00000  Uiso   1.00
C69    C     0.18647   0.87669   0.36221   0.00000  Uiso   1.00
H70    H     0.21737   0.14981   0.22356   0.00000  Uiso   1.00
H71    H     0.29556   0.10556   0.14378   0.00000  Uiso   1.00
H72    H     0.11865   0.25702   0.20066   0.00000  Uiso   1.00
H73    H     0.24666   0.11320   0.32785   0.00000  Uiso   1.00
H74    H     0.36834   0.01502   0.05279   0.00000  Uiso   1.00
H75    H     0.99532   0.33438   0.17274   0.00000  Uiso   1.00
H76    H     0.26526   0.03113   0.44095   0.00000  Uiso   1.00
H77    H     0.11030   0.83009   0.20413   0.00000  Uiso   1.00
H78    H     0.18263   0.76829   0.12328   0.00000  Uiso   1.00
H79    H     0.00572   0.91976   0.18015   0.00000  Uiso   1.00
H80    H     0.13373   0.77594   0.30735   0.00000  Uiso   1.00
H81    H     0.27668   0.74129   0.03615   0.00000  Uiso   1.00
H82    H     0.90365   0.06065   0.15610   0.00000  Uiso   1.00
H83    H     0.17359   0.75739   0.42431   0.00000  Uiso   1.00
O84    O     0.37201   0.84329   0.99162   0.00000  Uiso   1.00
O85    O     0.88261   0.26227   0.14900   0.00000  Uiso   1.00
O86    O     0.23677   0.86441   0.50089   0.00000  Uiso   1.00
N87    N     0.33685   0.95907   0.05998   0.00000  Uiso   1.00
N88    N     0.98810   0.25765   0.17211   0.00000  Uiso   1.00
N89    N     0.24045   0.97415   0.42288   0.00000  Uiso   1.00
N90    N     0.28753   0.81178   0.05102   0.00000  Uiso   1.00
N91    N     0.93878   0.11036   0.16316   0.00000  Uiso   1.00
N92    N     0.19113   0.82686   0.41392   0.00000  Uiso   1.00
C93    C     0.30716   0.42344   0.71911   0.00000  Uiso   1.00
C94    C     0.27952   0.49182   0.67307   0.00000  Uiso   1.00
C95    C     0.22881   0.46726   0.63934   0.00000  Uiso   1.00
C96    C     0.21069   0.54021   0.59964   0.00000  Uiso   1.00
C97    C     0.16300   0.63205   0.52901   0.00000  Uiso   1.00
C98    C     0.37564   0.40953   0.70397   0.00000  Uiso   1.00
C99    C     0.40574   0.31578   0.69622   0.00000  Uiso   1.00
C100   C     0.46854   0.31945   0.68254   0.00000  Uiso   1.00
C101   C     0.57009   0.28353   0.65991   0.00000  Uiso   1.00
C102   C     0.30608   0.48767   0.77307   0.00000  Uiso   1.00
C103   C     0.27771   0.45961   0.82344   0.00000  Uiso   1.00
C104   C     0.28196   0.52906   0.86794   0.00000  Uiso   1.00
C105   C     0.27551   0.61446   0.95261   0.00000  Uiso   1.00
C106   C     0.36516   0.59666   0.70858   0.00000  Uiso   1.00
C107   C     0.31103   0.58590   0.66735   0.00000  Uiso   1.00
C108   C     0.29298   0.65891   0.62769   0.00000  Uiso   1.00
C109   C     0.24225   0.63446   0.59392   0.00000  Uiso   1.00
C110   C     0.40714   0.50361   0.69825   0.00000  Uiso   1.00
C111   C     0.46992   0.50742   0.68457   0.00000  Uiso   1.00
C112   C     0.50011   0.41370   0.67681   0.00000  Uiso   1.00
C113   C     0.33758   0.58176   0.76735   0.00000  Uiso   1.00
C114   C     0.34189   0.65126   0.81179   0.00000  Uiso   1.00
C115   C     0.31353   0.62331   0.86221   0.00000  Uiso   1.00
H116   H     0.28263   0.35019   0.72356   0.00000  Uiso   1.00
H117   H     0.20444   0.39444   0.64378   0.00000  Uiso   1.00
H118   H     0.38135   0.24298   0.70066   0.00000  Uiso   1.00
H119   H     0.25334   0.38680   0.82785   0.00000  Uiso   1.00
H120   H     0.13166   0.48498   0.55279   0.00000  Uiso   1.00
H121   H     0.50468   0.16562   0.67274   0.00000  Uiso   1.00
H122   H     0.23474   0.46887   0.94095   0.00000  Uiso   1.00
H123   H     0.38970   0.66991   0.70413   0.00000  Uiso   1.00
H124   H     0.31737   0.73171   0.62328   0.00000  Uiso   1.00
H125   H     0.49428   0.58024   0.68015   0.00000  Uiso   1.00
H126   H     0.36627   0.72406   0.80735   0.00000  Uiso   1.00
H127   H     0.22332   0.75871   0.53615   0.00000  Uiso   1.00
H128   H     0.59635   0.43935   0.65610   0.00000  Uiso   1.00
H129   H     0.32641   0.74261   0.92431   0.00000  Uiso   1.00
O130   O     0.12799   0.65671   0.49162   0.00000  Uiso   1.00
O131   O     0.61739   0.23773   0.64900   0.00000  Uiso   1.00
O132   O     0.26323   0.63559   0.00089   0.00000  Uiso   1.00
N133   N     0.16315   0.54093   0.55998   0.00000  Uiso   1.00
N134   N     0.51190   0.24235   0.67211   0.00000  Uiso   1.00
N135   N     0.25955   0.52585   0.92288   0.00000  Uiso   1.00
N136   N     0.21247   0.68822   0.55102   0.00000  Uiso   1.00
N137   N     0.56122   0.38964   0.66316   0.00000  Uiso   1.00
N138   N     0.30887   0.67314   0.91392   0.00000  Uiso   1.00
C139   C     0.80716   0.92344   0.71911   0.00000  Uiso   1.00
C140   C     0.77952   0.99182   0.67307   0.00000  Uiso   1.00
C141   C     0.72881   0.96726   0.63934   0.00000  Uiso   1.00
C142   C     0.71069   0.04021   0.59964   0.00000  Uiso   1.00
C143   C     0.66300   0.13205   0.52901   0.00000  Uiso   1.00
C144   C     0.87564   0.90953   0.70397   0.00000  Uiso   1.00
C145   C     0.90574   0.81578   0.69622   0.00000  Uiso   1.00
C146   C     0.96854   0.81945   0.68254   0.00000  Uiso   1.00
C147   C     0.07009   0.78353   0.65991   0.00000  Uiso   1.00
C148   C     0.80608   0.98767   0.77307   0.00000  Uiso   1.00
C149   C     0.77771   0.95961   0.82344   0.00000  Uiso   1.00
C150   C     0.78196   0.02906   0.86794   0.00000  Uiso   1.00
C151   C     0.77551   0.11446   0.95261   0.00000  Uiso   1.00
C152   C     0.86516   0.09666   0.70858   0.00000  Uiso   1.00
C153   C     0.81103   0.08590   0.66735   0.00000  Uiso   1.00
C154   C     0.79298   0.15891   0.62769   0.00000  Uiso   1.00
C155   C     0.74225   0.13446   0.59392   0.00000  Uiso   1.00
C156   C     0.90714   0.00361   0.69825   0.00000  Uiso   1.00
C157   C     0.96992   0.00742   0.68457   0.00000  Uiso   1.00
C158   C     0.00011   0.91370   0.67681   0.00000  Uiso   1.00
C159   C     0.83758   0.08176   0.76735   0.00000  Uiso   1.00
C160   C     0.84189   0.15126   0.81179   0.00000  Uiso   1.00
C161   C     0.81353   0.12331   0.86221   0.00000  Uiso   1.00
H162   H     0.78263   0.85019   0.72356   0.00000  Uiso   1.00
H163   H     0.70444   0.89444   0.64378   0.00000  Uiso   1.00
H164   H     0.88135   0.74298   0.70066   0.00000  Uiso   1.00
H165   H     0.75334   0.88680   0.82785   0.00000  Uiso   1.00
H166   H     0.63166   0.98498   0.55279   0.00000  Uiso   1.00
H167   H     0.00468   0.66562   0.67274   0.00000  Uiso   1.00
H168   H     0.73474   0.96887   0.94095   0.00000  Uiso   1.00
H169   H     0.88970   0.16991   0.70413   0.00000  Uiso   1.00
H170   H     0.81737   0.23171   0.62328   0.00000  Uiso   1.00
H171   H     0.99428   0.08024   0.68015   0.00000  Uiso   1.00
H172   H     0.86627   0.22406   0.80735   0.00000  Uiso   1.00
H173   H     0.72332   0.25871   0.53615   0.00000  Uiso   1.00
H174   H     0.09635   0.93935   0.65610   0.00000  Uiso   1.00
H175   H     0.82641   0.24261   0.92431   0.00000  Uiso   1.00
O176   O     0.62799   0.15671   0.49162   0.00000  Uiso   1.00
O177   O     0.11739   0.73773   0.64900   0.00000  Uiso   1.00
O178   O     0.76323   0.13559   0.00089   0.00000  Uiso   1.00
N179   N     0.66315   0.04093   0.55998   0.00000  Uiso   1.00
N180   N     0.01190   0.74235   0.67211   0.00000  Uiso   1.00
N181   N     0.75955   0.02585   0.92288   0.00000  Uiso   1.00
N182   N     0.71247   0.18822   0.55102   0.00000  Uiso   1.00
N183   N     0.06122   0.88964   0.66316   0.00000  Uiso   1.00
N184   N     0.80887   0.17314   0.91392   0.00000  Uiso   1.00
C185   C     0.30716   0.57656   0.28089   0.00000  Uiso   1.00
C186   C     0.27952   0.50818   0.32693   0.00000  Uiso   1.00
C187   C     0.22881   0.53274   0.36066   0.00000  Uiso   1.00
C188   C     0.21069   0.45979   0.40036   0.00000  Uiso   1.00
C189   C     0.16300   0.36795   0.47099   0.00000  Uiso   1.00
C190   C     0.37564   0.59047   0.29603   0.00000  Uiso   1.00
C191   C     0.40574   0.68422   0.30378   0.00000  Uiso   1.00
C192   C     0.46854   0.68055   0.31746   0.00000  Uiso   1.00
C193   C     0.57009   0.71647   0.34009   0.00000  Uiso   1.00
C194   C     0.30608   0.51233   0.22693   0.00000  Uiso   1.00
C195   C     0.27771   0.54039   0.17656   0.00000  Uiso   1.00
C196   C     0.28196   0.47094   0.13206   0.00000  Uiso   1.00
C197   C     0.27551   0.38554   0.04739   0.00000  Uiso   1.00
C198   C     0.36516   0.40334   0.29142   0.00000  Uiso   1.00
C199   C     0.31103   0.41410   0.33265   0.00000  Uiso   1.00
C200   C     0.29298   0.34109   0.37231   0.00000  Uiso   1.00
C201   C     0.24225   0.36554   0.40608   0.00000  Uiso   1.00
C202   C     0.40714   0.49639   0.30175   0.00000  Uiso   1.00
C203   C     0.46992   0.49258   0.31543   0.00000  Uiso   1.00
C204   C     0.50011   0.58630   0.32319   0.00000  Uiso   1.00
C205   C     0.33758   0.41824   0.23265   0.00000  Uiso   1.00
C206   C     0.34189   0.34874   0.18821   0.00000  Uiso   1.00
C207   C     0.31353   0.37669   0.13779   0.00000  Uiso   1.00
H208   H     0.28263   0.64981   0.27644   0.00000  Uiso   1.00
H209   H     0.20444   0.60556   0.35622   0.00000  Uiso   1.00
H210   H     0.38135   0.75702   0.29934   0.00000  Uiso   1.00
H211   H     0.25334   0.61320   0.17215   0.00000  Uiso   1.00
H212   H     0.13166   0.51502   0.44721   0.00000  Uiso   1.00
H213   H     0.50468   0.83438   0.32726   0.00000  Uiso   1.00
H214   H     0.23474   0.53113   0.05905   0.00000  Uiso   1.00
H215   H     0.38970   0.33009   0.29587   0.00000  Uiso   1.00
H216   H     0.31737   0.26829   0.37672   0.00000  Uiso   1.00
H217   H     0.49428   0.41976   0.31985   0.00000  Uiso   1.00
H218   H     0.36627   0.27594   0.19265   0.00000  Uiso   1.00
H219   H     0.22332   0.24129   0.46385   0.00000  Uiso   1.00
H220   H     0.59635   0.56065   0.34390   0.00000  Uiso   1.00
H221   H     0.32641   0.25739   0.07569   0.00000  Uiso   1.00
O222   O     0.12799   0.34329   0.50838   0.00000  Uiso   1.00
O223   O     0.61739   0.76227   0.35100   0.00000  Uiso   1.00
O224   O     0.26323   0.36441   0.99911   0.00000  Uiso   1.00
N225   N     0.16315   0.45907   0.44002   0.00000  Uiso   1.00
N226   N     0.51190   0.75765   0.32789   0.00000  Uiso   1.00
N227   N     0.25955   0.47415   0.07712   0.00000  Uiso   1.00
N228   N     0.21247   0.31178   0.44898   0.00000  Uiso   1.00
N229   N     0.56122   0.61036   0.33684   0.00000  Uiso   1.00
N230   N     0.30887   0.32686   0.08608   0.00000  Uiso   1.00
C231   C     0.80716   0.07656   0.28089   0.00000  Uiso   1.00
C232   C     0.77952   0.00818   0.32693   0.00000  Uiso   1.00
C233   C     0.72881   0.03274   0.36066   0.00000  Uiso   1.00
C234   C     0.71069   0.95979   0.40036   0.00000  Uiso   1.00
C235   C     0.66300   0.86795   0.47099   0.00000  Uiso   1.00
C236   C     0.87564   0.09047   0.29603   0.00000  Uiso   1.00
C237   C     0.90574   0.18422   0.30378   0.00000  Uiso   1.00
C238   C     0.96854   0.18055   0.31746   0.00000  Uiso   1.00
C239   C     0.07009   0.21647   0.34009   0.00000  Uiso   1.00
C240   C     0.80608   0.01233   0.22693   0.00000  Uiso   1.00
C241   C     0.77771   0.04039   0.17656   0.00000  Uiso   1.00
C242   C     0.78196   0.97094   0.13206   0.00000  Uiso   1.00
C243   C     0.77551   0.88554   0.04739   0.00000  Uiso   1.00
C244   C     0.86516   0.90334   0.29142   0.00000  Uiso   1.00
C245   C     0.81103   0.91410   0.33265   0.00000  Uiso   1.00
C246   C     0.79298   0.84109   0.37231   0.00000  Uiso   1.00
C247   C     0.74225   0.86554   0.40608   0.00000  Uiso   1.00
C248   C     0.90714   0.99639   0.30175   0.00000  Uiso   1.00
C249   C     0.96992   0.99258   0.31543   0.00000  Uiso   1.00
C250   C     0.00011   0.08630   0.32319   0.00000  Uiso   1.00
C251   C     0.83758   0.91824   0.23265   0.00000  Uiso   1.00
C252   C     0.84189   0.84874   0.18821   0.00000  Uiso   1.00
C253   C     0.81353   0.87669   0.13779   0.00000  Uiso   1.00
H254   H     0.78263   0.14981   0.27644   0.00000  Uiso   1.00
H255   H     0.70444   0.10556   0.35622   0.00000  Uiso   1.00
H256   H     0.88135   0.25702   0.29934   0.00000  Uiso   1.00
H257   H     0.75334   0.11320   0.17215   0.00000  Uiso   1.00
H258   H     0.63166   0.01502   0.44721   0.00000  Uiso   1.00
H259   H     0.00468   0.33438   0.32726   0.00000  Uiso   1.00
H260   H     0.73474   0.03113   0.05905   0.00000  Uiso   1.00
H261   H     0.88970   0.83009   0.29587   0.00000  Uiso   1.00
H262   H     0.81737   0.76829   0.37672   0.00000  Uiso   1.00
H263   H     0.99428   0.91976   0.31985   0.00000  Uiso   1.00
H264   H     0.86627   0.77594   0.19265   0.00000  Uiso   1.00
H265   H     0.72332   0.74129   0.46385   0.00000  Uiso   1.00
H266   H     0.09635   0.06065   0.34390   0.00000  Uiso   1.00
H267   H     0.82641   0.75739   0.07569   0.00000  Uiso   1.00
O268   O     0.62799   0.84329   0.50838   0.00000  Uiso   1.00
O269   O     0.11739   0.26227   0.35100   0.00000  Uiso   1.00
O270   O     0.76323   0.86441   0.99911   0.00000  Uiso   1.00
N271   N     0.66315   0.95907   0.44002   0.00000  Uiso   1.00
N272   N     0.01190   0.25765   0.32789   0.00000  Uiso   1.00
N273   N     0.75955   0.97415   0.07712   0.00000  Uiso   1.00
N274   N     0.71247   0.81178   0.44898   0.00000  Uiso   1.00
N275   N     0.06122   0.11036   0.33684   0.00000  Uiso   1.00
N276   N     0.80887   0.82686   0.08608   0.00000  Uiso   1.00
C277   C     0.69284   0.42344   0.78089   0.00000  Uiso   1.00
C278   C     0.72048   0.49182   0.82693   0.00000  Uiso   1.00
C279   C     0.77119   0.46726   0.86066   0.00000  Uiso   1.00
C280   C     0.78931   0.54021   0.90036   0.00000  Uiso   1.00
C281   C     0.83700   0.63205   0.97099   0.00000  Uiso   1.00
C282   C     0.62436   0.40953   0.79603   0.00000  Uiso   1.00
C283   C     0.59426   0.31578   0.80378   0.00000  Uiso   1.00
C284   C     0.53146   0.31945   0.81746   0.00000  Uiso   1.00
C285   C     0.42991   0.28353   0.84009   0.00000  Uiso   1.00
C286   C     0.69392   0.48767   0.72693   0.00000  Uiso   1.00
C287   C     0.72229   0.45961   0.67656   0.00000  Uiso   1.00
C288   C     0.71804   0.52906   0.63206   0.00000  Uiso   1.00
C289   C     0.72449   0.61446   0.54739   0.00000  Uiso   1.00
C290   C     0.63484   0.59666   0.79142   0.00000  Uiso   1.00
C291   C     0.68897   0.58590   0.83265   0.00000  Uiso   1.00
C292   C     0.70702   0.65891   0.87231   0.00000  Uiso   1.00
C293   C     0.75775   0.63446   0.90608   0.00000  Uiso   1.00
C294   C     0.59286   0.50361   0.80175   0.00000  Uiso   1.00
C295   C     0.53008   0.50742   0.81543   0.00000  Uiso   1.00
C296   C     0.49989   0.41370   0.82319   0.00000  Uiso   1.00
C297   C     0.66242   0.58176   0.73265   0.00000  Uiso   1.00
C298   C     0.65811   0.65126   0.68821   0.00000  Uiso   1.00
C299   C     0.68647   0.62331   0.63779   0.00000  Uiso   1.00
H300   H     0.71737   0.35019   0.77644   0.00000  Uiso   1.00
H301   H     0.79556   0.39444   0.85622   0.00000  Uiso   1.00
H302   H     0.61865   0.24298   0.79934   0.00000  Uiso   1.00
H303   H     0.74666   0.38680   0.67215   0.00000  Uiso   1.00
H304   H     0.86834   0.48498   0.94721   0.00000  Uiso   1.00
H305   H     0.49532   0.16562   0.82726   0.00000  Uiso   1.00
H306   H     0.76526   0.46887   0.55905   0.00000  Uiso   1.00
H307   H     0.61030   0.66991   0.79587   0.00000  Uiso   1.00
H308   H     0.68263   0.73171   0.87672   0.00000  Uiso   1.00
H309   H     0.50572   0.58024   0.81985   0.00000  Uiso   1.00
H310   H     0.63373   0.72406   0.69265   0.00000  Uiso   1.00
H311   H     0.77668   0.75871   0.96385   0.00000  Uiso   1.00
H312   H     0.40365   0.43935   0.84390   0.00000  Uiso   1.00
H313   H     0.67359   0.74261   0.57569   0.00000  Uiso   1.00
O314   O     0.87201   0.65671   0.00838   0.00000  Uiso   1.00
O315   O     0.38261   0.23773   0.85100   0.00000  Uiso   1.00
O316   O     0.73677   0.63559   0.49911   0.00000  Uiso   1.00
N317   N     0.83685   0.54093   0.94002   0.00000  Uiso   1.00
N318   N     0.48810   0.24235   0.82789   0.00000  Uiso   1.00
N319   N     0.74045   0.52585   0.57712   0.00000  Uiso   1.00
N320   N     0.78753   0.68822   0.94898   0.00000  Uiso   1.00
N321   N     0.43878   0.38964   0.83684   0.00000  Uiso   1.00
N322   N     0.69113   0.67314   0.58608   0.00000  Uiso   1.00
C323   C     0.19284   0.92344   0.78089   0.00000  Uiso   1.00
C324   C     0.22048   0.99182   0.82693   0.00000  Uiso   1.00
C325   C     0.27119   0.96726   0.86066   0.00000  Uiso   1.00
C326   C     0.28931   0.04021   0.90036   0.00000  Uiso   1.00
C327   C     0.33700   0.13205   0.97099   0.00000  Uiso   1.00
C328   C     0.12436   0.90953   0.79603   0.00000  Uiso   1.00
C329   C     0.09426   0.81578   0.80378   0.00000  Uiso   1.00
C330   C     0.03146   0.81945   0.81746   0.00000  Uiso   1.00
C331   C     0.92991   0.78353   0.84009   0.00000  Uiso   1.00
C332   C     0.19392   0.98767   0.72693   0.00000  Uiso   1.00
C333   C     0.22229   0.95961   0.67656   0.00000  Uiso   1.00
C334   C     0.21804   0.02906   0.63206   0.00000  Uiso   1.00
C335   C     0.22449   0.11446   0.54739   0.00000  Uiso   1.00
C336   C     0.13484   0.09666   0.79142   0.00000  Uiso   1.00
C337   C     0.18897   0.08590   0.83265   0.00000  Uiso   1.00
C338   C     0.20702   0.15891   0.87231   0.00000  Uiso   1.00
C339   C     0.25775   0.13446   0.90608   0.00000  Uiso   1.00
C340   C     0.09286   0.00361   0.80175   0.00000  Uiso   1.00
C341   C     0.03008   0.00742   0.81543   0.00000  Uiso   1.00
C342   C     0.99989   0.91370   0.82319   0.00000  Uiso   1.00
C343   C     0.16242   0.08176   0.73265   0.00000  Uiso   1.00
C344   C     0.15811   0.15126   0.68821   0.00000  Uiso   1.00
C345   C     0.18647   0.12331   0.63779   0.00000  Uiso   1.00
H346   H     0.21737   0.85019   0.77644   0.00000  Uiso   1.00
H347   H     0.29556   0.89444   0.85622   0.00000  Uiso   1.00
H348   H     0.11865   0.74298   0.79934   0.00000  Uiso   1.00
H349   H     0.24666   0.88680   0.67215   0.00000  Uiso   1.00
H350   H     0.36834   0.98498   0.94721   0.00000  Uiso   1.00
H351   H     0.99532   0.66562   0.82726   0.00000  Uiso   1.00
H352   H     0.26526   0.96887   0.55905   0.00000  Uiso   1.00
H353   H     0.11030   0.16991   0.79587   0.00000  Uiso   1.00
H354   H     0.18263   0.23171   0.87672   0.00000  Uiso   1.00
H355   H     0.00572   0.08024   0.81985   0.00000  Uiso   1.00
H356   H     0.13373   0.22406   0.69265   0.00000  Uiso   1.00
H357   H     0.27668   0.25871   0.96385   0.00000  Uiso   1.00
H358   H     0.90365   0.93935   0.84390   0.00000  Uiso   1.00
H359   H     0.17359   0.24261   0.57569   0.00000  Uiso   1.00
O360   O     0.37201   0.15671   0.00838   0.00000  Uiso   1.00
O361   O     0.88261   0.73773   0.85100   0.00000  Uiso   1.00
O362   O     0.23677   0.13559   0.49911   0.00000  Uiso   1.00
N363   N     0.33685   0.04093   0.94002   0.00000  Uiso   1.00
N364   N     0.98810   0.74235   0.82789   0.00000  Uiso   1.00
N365   N     0.24045   0.02585   0.57712   0.00000  Uiso   1.00
N366   N     0.28753   0.18822   0.94898   0.00000  Uiso   1.00
N367   N     0.93878   0.88964   0.83684   0.00000  Uiso   1.00
N368   N     0.19113   0.17314   0.58608   0.00000  Uiso   1.00
