data_job_04945
_audit_creation_date              2018-12-19
_audit_creation_method            'Materials Studio'
_symmetry_space_group_name_H-M    'P1'
_symmetry_Int_Tables_number       1
_symmetry_cell_setting            triclinic
loop_
_symmetry_equiv_pos_as_xyz
  x,y,z
_cell_length_a                    24.2022
_cell_length_b                    12.7984
_cell_length_c                    16.2270
_cell_angle_alpha                 90.0000
_cell_angle_beta                  33.1092
_cell_angle_gamma                 90.0000
loop_
_atom_site_label
_atom_site_type_symbol
_atom_site_fract_x
_atom_site_fract_y
_atom_site_fract_z
_atom_site_U_iso_or_equiv
_atom_site_adp_type
_atom_site_occupancy
C1     C     0.13984   0.69058   0.19035   0.00000  Uiso   1.00
C2     C     0.17854   0.79350   0.10668   0.00000  Uiso   1.00
C3     C     0.17455   0.82306   0.02945   0.00000  Uiso   1.00
C4     C     0.21399   0.92038   0.96027   0.00000  Uiso   1.00
C5     C     0.26775   0.07023   0.82910   0.00000  Uiso   1.00
C6     C     0.22957   0.64084   0.12239   0.00000  Uiso   1.00
C7     C     0.26846   0.54203   0.05840   0.00000  Uiso   1.00
C8     C     0.35086   0.51084   0.00247   0.00000  Uiso   1.00
C9     C     0.48379   0.42364   0.89580   0.00000  Uiso   1.00
C10    C     0.06430   0.71982   0.35188   0.00000  Uiso   1.00
C11    C     0.96424   0.68740   0.48086   0.00000  Uiso   1.00
C12    C     0.90749   0.72269   0.61816   0.00000  Uiso   1.00
C13    C     0.78382   0.75813   0.86780   0.00000  Uiso   1.00
C14    C     0.21699   0.81087   0.20484   0.00000  Uiso   1.00
C15    C     0.22045   0.85884   0.11455   0.00000  Uiso   1.00
C16    C     0.25990   0.95614   0.04548   0.00000  Uiso   1.00
C17    C     0.25597   0.98584   0.96817   0.00000  Uiso   1.00
C18    C     0.27147   0.70617   0.13026   0.00000  Uiso   1.00
C19    C     0.35382   0.67511   0.07443   0.00000  Uiso   1.00
C20    C     0.39284   0.57629   0.01036   0.00000  Uiso   1.00
C21    C     0.10620   0.78516   0.35976   0.00000  Uiso   1.00
C22    C     0.04960   0.82049   0.49689   0.00000  Uiso   1.00
C23    C     0.94947   0.78814   0.62604   0.00000  Uiso   1.00
H24    H     0.10722   0.63971   0.18421   0.00000  Uiso   1.00
H25    H     0.14212   0.77247   0.02337   0.00000  Uiso   1.00
H26    H     0.23601   0.49148   0.05233   0.00000  Uiso   1.00
H27    H     0.93184   0.63684   0.47472   0.00000  Uiso   1.00
H28    H     0.19932   0.94845   0.84847   0.00000  Uiso   1.00
H29    H     0.39729   0.35596   0.90959   0.00000  Uiso   1.00
H30    H     0.75587   0.66248   0.80028   0.00000  Uiso   1.00
H31    H     0.24962   0.86173   0.21097   0.00000  Uiso   1.00
H32    H     0.29233   0.00669   0.05160   0.00000  Uiso   1.00
H33    H     0.38623   0.72569   0.08055   0.00000  Uiso   1.00
H34    H     0.08205   0.87105   0.50294   0.00000  Uiso   1.00
H35    H     0.32124   0.13855   0.87137   0.00000  Uiso   1.00
H36    H     0.51920   0.54606   0.93249   0.00000  Uiso   1.00
H37    H     0.87779   0.85258   0.82318   0.00000  Uiso   1.00
O38    O     0.28584   0.13483   0.75455   0.00000  Uiso   1.00
O39    O     0.54555   0.35750   0.83476   0.00000  Uiso   1.00
O40    O     0.70403   0.75965   0.00332   0.00000  Uiso   1.00
N41    N     0.22214   0.97331   0.87576   0.00000  Uiso   1.00
N42    N     0.40723   0.41937   0.93287   0.00000  Uiso   1.00
N43    N     0.80757   0.70592   0.76560   0.00000  Uiso   1.00
N44    N     0.28774   0.07560   0.88808   0.00000  Uiso   1.00
N45    N     0.47283   0.52166   0.94520   0.00000  Uiso   1.00
N46    N     0.87317   0.80821   0.77792   0.00000  Uiso   1.00
C47    C     0.86016   0.19058   0.30965   0.00000  Uiso   1.00
C48    C     0.82146   0.29350   0.39332   0.00000  Uiso   1.00
C49    C     0.82545   0.32306   0.47055   0.00000  Uiso   1.00
C50    C     0.78601   0.42038   0.53973   0.00000  Uiso   1.00
C51    C     0.73225   0.57023   0.67090   0.00000  Uiso   1.00
C52    C     0.77043   0.14084   0.37761   0.00000  Uiso   1.00
C53    C     0.73154   0.04203   0.44160   0.00000  Uiso   1.00
C54    C     0.64914   0.01084   0.49753   0.00000  Uiso   1.00
C55    C     0.51621   0.92364   0.60420   0.00000  Uiso   1.00
C56    C     0.93570   0.21982   0.14812   0.00000  Uiso   1.00
C57    C     0.03576   0.18740   0.01914   0.00000  Uiso   1.00
C58    C     0.09251   0.22269   0.88184   0.00000  Uiso   1.00
C59    C     0.21618   0.25813   0.63220   0.00000  Uiso   1.00
C60    C     0.78301   0.31087   0.29516   0.00000  Uiso   1.00
C61    C     0.77955   0.35884   0.38545   0.00000  Uiso   1.00
C62    C     0.74010   0.45614   0.45452   0.00000  Uiso   1.00
C63    C     0.74403   0.48584   0.53183   0.00000  Uiso   1.00
C64    C     0.72853   0.20617   0.36974   0.00000  Uiso   1.00
C65    C     0.64618   0.17511   0.42557   0.00000  Uiso   1.00
C66    C     0.60716   0.07629   0.48964   0.00000  Uiso   1.00
C67    C     0.89380   0.28516   0.14024   0.00000  Uiso   1.00
C68    C     0.95040   0.32049   0.00311   0.00000  Uiso   1.00
C69    C     0.05053   0.28814   0.87396   0.00000  Uiso   1.00
H70    H     0.89278   0.13971   0.31579   0.00000  Uiso   1.00
H71    H     0.85788   0.27247   0.47663   0.00000  Uiso   1.00
H72    H     0.76399   0.99148   0.44767   0.00000  Uiso   1.00
H73    H     0.06816   0.13684   0.02528   0.00000  Uiso   1.00
H74    H     0.80068   0.44845   0.65153   0.00000  Uiso   1.00
H75    H     0.60271   0.85596   0.59041   0.00000  Uiso   1.00
H76    H     0.24413   0.16248   0.69972   0.00000  Uiso   1.00
H77    H     0.75038   0.36173   0.28903   0.00000  Uiso   1.00
H78    H     0.70767   0.50669   0.44840   0.00000  Uiso   1.00
H79    H     0.61377   0.22569   0.41945   0.00000  Uiso   1.00
H80    H     0.91795   0.37105   0.99706   0.00000  Uiso   1.00
H81    H     0.67876   0.63855   0.62863   0.00000  Uiso   1.00
H82    H     0.48080   0.04606   0.56751   0.00000  Uiso   1.00
H83    H     0.12221   0.35258   0.67682   0.00000  Uiso   1.00
O84    O     0.71416   0.63483   0.74545   0.00000  Uiso   1.00
O85    O     0.45445   0.85750   0.66524   0.00000  Uiso   1.00
O86    O     0.29597   0.25965   0.49668   0.00000  Uiso   1.00
N87    N     0.77786   0.47331   0.62424   0.00000  Uiso   1.00
N88    N     0.59277   0.91937   0.56713   0.00000  Uiso   1.00
N89    N     0.19243   0.20592   0.73440   0.00000  Uiso   1.00
N90    N     0.71226   0.57560   0.61192   0.00000  Uiso   1.00
N91    N     0.52717   0.02166   0.55480   0.00000  Uiso   1.00
N92    N     0.12683   0.30821   0.72208   0.00000  Uiso   1.00
C93    C     0.86016   0.30942   0.80965   0.00000  Uiso   1.00
C94    C     0.82146   0.20650   0.89332   0.00000  Uiso   1.00
C95    C     0.82545   0.17694   0.97055   0.00000  Uiso   1.00
C96    C     0.78601   0.07962   0.03973   0.00000  Uiso   1.00
C97    C     0.73225   0.92977   0.17090   0.00000  Uiso   1.00
C98    C     0.77043   0.35916   0.87761   0.00000  Uiso   1.00
C99    C     0.73154   0.45797   0.94160   0.00000  Uiso   1.00
C100   C     0.64914   0.48916   0.99753   0.00000  Uiso   1.00
C101   C     0.51621   0.57636   0.10420   0.00000  Uiso   1.00
C102   C     0.93570   0.28018   0.64812   0.00000  Uiso   1.00
C103   C     0.03576   0.31260   0.51914   0.00000  Uiso   1.00
C104   C     0.09251   0.27731   0.38184   0.00000  Uiso   1.00
C105   C     0.21618   0.24187   0.13220   0.00000  Uiso   1.00
C106   C     0.78301   0.18913   0.79516   0.00000  Uiso   1.00
C107   C     0.77955   0.14116   0.88545   0.00000  Uiso   1.00
C108   C     0.74010   0.04386   0.95452   0.00000  Uiso   1.00
C109   C     0.74403   0.01416   0.03183   0.00000  Uiso   1.00
C110   C     0.72853   0.29383   0.86974   0.00000  Uiso   1.00
C111   C     0.64618   0.32489   0.92557   0.00000  Uiso   1.00
C112   C     0.60716   0.42371   0.98964   0.00000  Uiso   1.00
C113   C     0.89380   0.21484   0.64024   0.00000  Uiso   1.00
C114   C     0.95040   0.17951   0.50311   0.00000  Uiso   1.00
C115   C     0.05053   0.21186   0.37396   0.00000  Uiso   1.00
H116   H     0.89278   0.36029   0.81579   0.00000  Uiso   1.00
H117   H     0.85788   0.22753   0.97663   0.00000  Uiso   1.00
H118   H     0.76399   0.50852   0.94767   0.00000  Uiso   1.00
H119   H     0.06816   0.36316   0.52528   0.00000  Uiso   1.00
H120   H     0.80068   0.05155   0.15153   0.00000  Uiso   1.00
H121   H     0.60271   0.64404   0.09041   0.00000  Uiso   1.00
H122   H     0.24413   0.33752   0.19972   0.00000  Uiso   1.00
H123   H     0.75038   0.13827   0.78903   0.00000  Uiso   1.00
H124   H     0.70767   0.99331   0.94840   0.00000  Uiso   1.00
H125   H     0.61377   0.27431   0.91945   0.00000  Uiso   1.00
H126   H     0.91795   0.12895   0.49706   0.00000  Uiso   1.00
H127   H     0.67876   0.86145   0.12863   0.00000  Uiso   1.00
H128   H     0.48080   0.45394   0.06751   0.00000  Uiso   1.00
H129   H     0.12221   0.14742   0.17682   0.00000  Uiso   1.00
O130   O     0.71416   0.86517   0.24545   0.00000  Uiso   1.00
O131   O     0.45445   0.64250   0.16524   0.00000  Uiso   1.00
O132   O     0.29597   0.24035   0.99668   0.00000  Uiso   1.00
N133   N     0.77786   0.02669   0.12424   0.00000  Uiso   1.00
N134   N     0.59277   0.58063   0.06713   0.00000  Uiso   1.00
N135   N     0.19243   0.29408   0.23440   0.00000  Uiso   1.00
N136   N     0.71226   0.92440   0.11192   0.00000  Uiso   1.00
N137   N     0.52717   0.47834   0.05480   0.00000  Uiso   1.00
N138   N     0.12683   0.19179   0.22208   0.00000  Uiso   1.00
C139   C     0.13984   0.80942   0.69035   0.00000  Uiso   1.00
C140   C     0.17854   0.70650   0.60668   0.00000  Uiso   1.00
C141   C     0.17455   0.67694   0.52945   0.00000  Uiso   1.00
C142   C     0.21399   0.57962   0.46027   0.00000  Uiso   1.00
C143   C     0.26775   0.42977   0.32910   0.00000  Uiso   1.00
C144   C     0.22957   0.85916   0.62239   0.00000  Uiso   1.00
C145   C     0.26846   0.95797   0.55840   0.00000  Uiso   1.00
C146   C     0.35086   0.98916   0.50247   0.00000  Uiso   1.00
C147   C     0.48379   0.07636   0.39580   0.00000  Uiso   1.00
C148   C     0.06430   0.78018   0.85188   0.00000  Uiso   1.00
C149   C     0.96424   0.81260   0.98086   0.00000  Uiso   1.00
C150   C     0.90749   0.77731   0.11816   0.00000  Uiso   1.00
C151   C     0.78382   0.74187   0.36780   0.00000  Uiso   1.00
C152   C     0.21699   0.68913   0.70484   0.00000  Uiso   1.00
C153   C     0.22045   0.64116   0.61455   0.00000  Uiso   1.00
C154   C     0.25990   0.54386   0.54548   0.00000  Uiso   1.00
C155   C     0.25597   0.51416   0.46817   0.00000  Uiso   1.00
C156   C     0.27147   0.79383   0.63026   0.00000  Uiso   1.00
C157   C     0.35382   0.82489   0.57443   0.00000  Uiso   1.00
C158   C     0.39284   0.92371   0.51036   0.00000  Uiso   1.00
C159   C     0.10620   0.71484   0.85976   0.00000  Uiso   1.00
C160   C     0.04960   0.67951   0.99689   0.00000  Uiso   1.00
C161   C     0.94947   0.71186   0.12604   0.00000  Uiso   1.00
H162   H     0.10722   0.86029   0.68421   0.00000  Uiso   1.00
H163   H     0.14212   0.72753   0.52337   0.00000  Uiso   1.00
H164   H     0.23601   0.00852   0.55233   0.00000  Uiso   1.00
H165   H     0.93184   0.86316   0.97472   0.00000  Uiso   1.00
H166   H     0.19932   0.55155   0.34847   0.00000  Uiso   1.00
H167   H     0.39729   0.14404   0.40959   0.00000  Uiso   1.00
H168   H     0.75587   0.83752   0.30028   0.00000  Uiso   1.00
H169   H     0.24962   0.63827   0.71097   0.00000  Uiso   1.00
H170   H     0.29233   0.49331   0.55160   0.00000  Uiso   1.00
H171   H     0.38623   0.77431   0.58055   0.00000  Uiso   1.00
H172   H     0.08205   0.62895   0.00294   0.00000  Uiso   1.00
H173   H     0.32124   0.36145   0.37137   0.00000  Uiso   1.00
H174   H     0.51920   0.95394   0.43249   0.00000  Uiso   1.00
H175   H     0.87779   0.64742   0.32318   0.00000  Uiso   1.00
O176   O     0.28584   0.36517   0.25455   0.00000  Uiso   1.00
O177   O     0.54555   0.14250   0.33476   0.00000  Uiso   1.00
O178   O     0.70403   0.74035   0.50332   0.00000  Uiso   1.00
N179   N     0.22214   0.52669   0.37576   0.00000  Uiso   1.00
N180   N     0.40723   0.08063   0.43287   0.00000  Uiso   1.00
N181   N     0.80757   0.79408   0.26560   0.00000  Uiso   1.00
N182   N     0.28774   0.42440   0.38808   0.00000  Uiso   1.00
N183   N     0.47283   0.97834   0.44520   0.00000  Uiso   1.00
N184   N     0.87317   0.69179   0.27792   0.00000  Uiso   1.00
