data_job_02268
_audit_creation_date              2018-12-19
_audit_creation_method            'Materials Studio'
_symmetry_space_group_name_H-M    'P1'
_symmetry_Int_Tables_number       1
_symmetry_cell_setting            triclinic
loop_
_symmetry_equiv_pos_as_xyz
  x,y,z
_cell_length_a                    8.2979
_cell_length_b                    12.9566
_cell_length_c                    24.8126
_cell_angle_alpha                 90.0000
_cell_angle_beta                  109.5891
_cell_angle_gamma                 90.0000
loop_
_atom_site_label
_atom_site_type_symbol
_atom_site_fract_x
_atom_site_fract_y
_atom_site_fract_z
_atom_site_U_iso_or_equiv
_atom_site_adp_type
_atom_site_occupancy
C1     C     0.34814   0.10083   0.63220   0.00000  Uiso   1.00
C2     C     0.17584   0.05276   0.62703   0.00000  Uiso   1.00
C3     C     0.11972   0.95577   0.60492   0.00000  Uiso   1.00
C4     C     0.95801   0.92591   0.60388   0.00000  Uiso   1.00
C5     C     0.70593   0.84142   0.59273   0.00000  Uiso   1.00
C6     C     0.30789   0.20314   0.60008   0.00000  Uiso   1.00
C7     C     0.36282   0.23259   0.55532   0.00000  Uiso   1.00
C8     C     0.31229   0.32934   0.53161   0.00000  Uiso   1.00
C9     C     0.26532   0.47835   0.47865   0.00000  Uiso   1.00
C10    C     0.43227   0.12846   0.69516   0.00000  Uiso   1.00
C11    C     0.59179   0.09514   0.73035   0.00000  Uiso   1.00
C12    C     0.64600   0.12903   0.78670   0.00000  Uiso   1.00
C13    C     0.79215   0.16208   0.88137   0.00000  Uiso   1.00
C14    C     0.16076   0.22030   0.66968   0.00000  Uiso   1.00
C15    C     0.07407   0.11765   0.64738   0.00000  Uiso   1.00
C16    C     0.91241   0.08794   0.64638   0.00000  Uiso   1.00
C17    C     0.85606   0.99091   0.62428   0.00000  Uiso   1.00
C18    C     0.20612   0.26803   0.62043   0.00000  Uiso   1.00
C19    C     0.15551   0.36476   0.59679   0.00000  Uiso   1.00
C20    C     0.21033   0.39434   0.55200   0.00000  Uiso   1.00
C21    C     0.33049   0.19335   0.71552   0.00000  Uiso   1.00
C22    C     0.38448   0.22731   0.77182   0.00000  Uiso   1.00
C23    C     0.54405   0.19404   0.80709   0.00000  Uiso   1.00
H24    H     0.42737   0.05032   0.61634   0.00000  Uiso   1.00
H25    H     0.19851   0.90558   0.58916   0.00000  Uiso   1.00
H26    H     0.44159   0.18236   0.53958   0.00000  Uiso   1.00
H27    H     0.67051   0.04493   0.71458   0.00000  Uiso   1.00
H28    H     0.89987   0.77373   0.56798   0.00000  Uiso   1.00
H29    H     0.41246   0.35736   0.46344   0.00000  Uiso   1.00
H30    H     0.89521   0.06756   0.83248   0.00000  Uiso   1.00
H31    H     0.08152   0.27082   0.68553   0.00000  Uiso   1.00
H32    H     0.83368   0.13817   0.66214   0.00000  Uiso   1.00
H33    H     0.07676   0.41495   0.61255   0.00000  Uiso   1.00
H34    H     0.30569   0.27752   0.78756   0.00000  Uiso   1.00
H35    H     0.60375   0.96251   0.62721   0.00000  Uiso   1.00
H36    H     0.11635   0.54615   0.52267   0.00000  Uiso   1.00
H37    H     0.59909   0.25634   0.89171   0.00000  Uiso   1.00
O38    O     0.59499   0.77690   0.58095   0.00000  Uiso   1.00
O39    O     0.26752   0.54260   0.44380   0.00000  Uiso   1.00
O40    O     0.90086   0.16238   0.92797   0.00000  Uiso   1.00
N41    N     0.86420   0.83636   0.58514   0.00000  Uiso   1.00
N42    N     0.34342   0.38201   0.48740   0.00000  Uiso   1.00
N43    N     0.79477   0.11109   0.83241   0.00000  Uiso   1.00
N44    N     0.70487   0.93794   0.61701   0.00000  Uiso   1.00
N45    N     0.18409   0.48359   0.51927   0.00000  Uiso   1.00
N46    N     0.63544   0.21267   0.86428   0.00000  Uiso   1.00
C47    C     0.65186   0.60083   0.86780   0.00000  Uiso   1.00
C48    C     0.82416   0.55276   0.87297   0.00000  Uiso   1.00
C49    C     0.88028   0.45577   0.89508   0.00000  Uiso   1.00
C50    C     0.04199   0.42591   0.89612   0.00000  Uiso   1.00
C51    C     0.29407   0.34142   0.90727   0.00000  Uiso   1.00
C52    C     0.69211   0.70314   0.89992   0.00000  Uiso   1.00
C53    C     0.63718   0.73259   0.94468   0.00000  Uiso   1.00
C54    C     0.68771   0.82934   0.96839   0.00000  Uiso   1.00
C55    C     0.73468   0.97835   0.02135   0.00000  Uiso   1.00
C56    C     0.56773   0.62846   0.80484   0.00000  Uiso   1.00
C57    C     0.40821   0.59514   0.76965   0.00000  Uiso   1.00
C58    C     0.35400   0.62903   0.71330   0.00000  Uiso   1.00
C59    C     0.20785   0.66208   0.61863   0.00000  Uiso   1.00
C60    C     0.83924   0.72030   0.83032   0.00000  Uiso   1.00
C61    C     0.92593   0.61765   0.85262   0.00000  Uiso   1.00
C62    C     0.08759   0.58794   0.85362   0.00000  Uiso   1.00
C63    C     0.14394   0.49091   0.87572   0.00000  Uiso   1.00
C64    C     0.79388   0.76803   0.87957   0.00000  Uiso   1.00
C65    C     0.84449   0.86476   0.90321   0.00000  Uiso   1.00
C66    C     0.78967   0.89434   0.94800   0.00000  Uiso   1.00
C67    C     0.66951   0.69335   0.78448   0.00000  Uiso   1.00
C68    C     0.61552   0.72731   0.72818   0.00000  Uiso   1.00
C69    C     0.45595   0.69404   0.69291   0.00000  Uiso   1.00
H70    H     0.57263   0.55032   0.88366   0.00000  Uiso   1.00
H71    H     0.80149   0.40558   0.91084   0.00000  Uiso   1.00
H72    H     0.55841   0.68236   0.96042   0.00000  Uiso   1.00
H73    H     0.32949   0.54493   0.78542   0.00000  Uiso   1.00
H74    H     0.10013   0.27373   0.93202   0.00000  Uiso   1.00
H75    H     0.58754   0.85736   0.03656   0.00000  Uiso   1.00
H76    H     0.10479   0.56756   0.66752   0.00000  Uiso   1.00
H77    H     0.91848   0.77082   0.81447   0.00000  Uiso   1.00
H78    H     0.16632   0.63817   0.83786   0.00000  Uiso   1.00
H79    H     0.92324   0.91495   0.88745   0.00000  Uiso   1.00
H80    H     0.69431   0.77752   0.71244   0.00000  Uiso   1.00
H81    H     0.39625   0.46251   0.87279   0.00000  Uiso   1.00
H82    H     0.88365   0.04615   0.97733   0.00000  Uiso   1.00
H83    H     0.40091   0.75634   0.60829   0.00000  Uiso   1.00
O84    O     0.40501   0.27690   0.91905   0.00000  Uiso   1.00
O85    O     0.73248   0.04260   0.05620   0.00000  Uiso   1.00
O86    O     0.09914   0.66238   0.57203   0.00000  Uiso   1.00
N87    N     0.13580   0.33636   0.91486   0.00000  Uiso   1.00
N88    N     0.65658   0.88201   0.01260   0.00000  Uiso   1.00
N89    N     0.20523   0.61109   0.66759   0.00000  Uiso   1.00
N90    N     0.29513   0.43794   0.88299   0.00000  Uiso   1.00
N91    N     0.81591   0.98359   0.98073   0.00000  Uiso   1.00
N92    N     0.36456   0.71267   0.63572   0.00000  Uiso   1.00
C93    C     0.65186   0.89917   0.36780   0.00000  Uiso   1.00
C94    C     0.82416   0.94724   0.37297   0.00000  Uiso   1.00
C95    C     0.88028   0.04423   0.39508   0.00000  Uiso   1.00
C96    C     0.04199   0.07409   0.39612   0.00000  Uiso   1.00
C97    C     0.29407   0.15858   0.40727   0.00000  Uiso   1.00
C98    C     0.69211   0.79686   0.39992   0.00000  Uiso   1.00
C99    C     0.63718   0.76741   0.44468   0.00000  Uiso   1.00
C100   C     0.68771   0.67066   0.46839   0.00000  Uiso   1.00
C101   C     0.73468   0.52165   0.52135   0.00000  Uiso   1.00
C102   C     0.56773   0.87154   0.30484   0.00000  Uiso   1.00
C103   C     0.40821   0.90486   0.26965   0.00000  Uiso   1.00
C104   C     0.35400   0.87097   0.21330   0.00000  Uiso   1.00
C105   C     0.20785   0.83792   0.11863   0.00000  Uiso   1.00
C106   C     0.83924   0.77970   0.33032   0.00000  Uiso   1.00
C107   C     0.92593   0.88235   0.35262   0.00000  Uiso   1.00
C108   C     0.08759   0.91206   0.35362   0.00000  Uiso   1.00
C109   C     0.14394   0.00909   0.37572   0.00000  Uiso   1.00
C110   C     0.79388   0.73197   0.37957   0.00000  Uiso   1.00
C111   C     0.84449   0.63524   0.40321   0.00000  Uiso   1.00
C112   C     0.78967   0.60566   0.44800   0.00000  Uiso   1.00
C113   C     0.66951   0.80665   0.28448   0.00000  Uiso   1.00
C114   C     0.61552   0.77269   0.22818   0.00000  Uiso   1.00
C115   C     0.45595   0.80596   0.19291   0.00000  Uiso   1.00
H116   H     0.57263   0.94968   0.38366   0.00000  Uiso   1.00
H117   H     0.80149   0.09442   0.41084   0.00000  Uiso   1.00
H118   H     0.55841   0.81764   0.46042   0.00000  Uiso   1.00
H119   H     0.32949   0.95507   0.28542   0.00000  Uiso   1.00
H120   H     0.10013   0.22627   0.43202   0.00000  Uiso   1.00
H121   H     0.58754   0.64264   0.53656   0.00000  Uiso   1.00
H122   H     0.10479   0.93244   0.16752   0.00000  Uiso   1.00
H123   H     0.91848   0.72918   0.31447   0.00000  Uiso   1.00
H124   H     0.16632   0.86183   0.33786   0.00000  Uiso   1.00
H125   H     0.92324   0.58505   0.38745   0.00000  Uiso   1.00
H126   H     0.69431   0.72248   0.21244   0.00000  Uiso   1.00
H127   H     0.39625   0.03749   0.37279   0.00000  Uiso   1.00
H128   H     0.88365   0.45385   0.47733   0.00000  Uiso   1.00
H129   H     0.40091   0.74366   0.10829   0.00000  Uiso   1.00
O130   O     0.40501   0.22310   0.41905   0.00000  Uiso   1.00
O131   O     0.73248   0.45740   0.55620   0.00000  Uiso   1.00
O132   O     0.09914   0.83762   0.07203   0.00000  Uiso   1.00
N133   N     0.13580   0.16364   0.41486   0.00000  Uiso   1.00
N134   N     0.65658   0.61799   0.51260   0.00000  Uiso   1.00
N135   N     0.20523   0.88891   0.16759   0.00000  Uiso   1.00
N136   N     0.29513   0.06206   0.38299   0.00000  Uiso   1.00
N137   N     0.81591   0.51641   0.48073   0.00000  Uiso   1.00
N138   N     0.36456   0.78733   0.13572   0.00000  Uiso   1.00
C139   C     0.34814   0.39917   0.13220   0.00000  Uiso   1.00
C140   C     0.17584   0.44724   0.12703   0.00000  Uiso   1.00
C141   C     0.11972   0.54423   0.10492   0.00000  Uiso   1.00
C142   C     0.95801   0.57409   0.10388   0.00000  Uiso   1.00
C143   C     0.70593   0.65858   0.09273   0.00000  Uiso   1.00
C144   C     0.30789   0.29686   0.10008   0.00000  Uiso   1.00
C145   C     0.36282   0.26741   0.05532   0.00000  Uiso   1.00
C146   C     0.31229   0.17066   0.03161   0.00000  Uiso   1.00
C147   C     0.26532   0.02165   0.97865   0.00000  Uiso   1.00
C148   C     0.43227   0.37154   0.19516   0.00000  Uiso   1.00
C149   C     0.59179   0.40486   0.23035   0.00000  Uiso   1.00
C150   C     0.64600   0.37097   0.28670   0.00000  Uiso   1.00
C151   C     0.79215   0.33792   0.38137   0.00000  Uiso   1.00
C152   C     0.16076   0.27970   0.16968   0.00000  Uiso   1.00
C153   C     0.07407   0.38235   0.14738   0.00000  Uiso   1.00
C154   C     0.91241   0.41206   0.14638   0.00000  Uiso   1.00
C155   C     0.85606   0.50909   0.12428   0.00000  Uiso   1.00
C156   C     0.20612   0.23197   0.12043   0.00000  Uiso   1.00
C157   C     0.15551   0.13524   0.09679   0.00000  Uiso   1.00
C158   C     0.21033   0.10566   0.05200   0.00000  Uiso   1.00
C159   C     0.33049   0.30665   0.21552   0.00000  Uiso   1.00
C160   C     0.38448   0.27269   0.27182   0.00000  Uiso   1.00
C161   C     0.54405   0.30596   0.30709   0.00000  Uiso   1.00
H162   H     0.42737   0.44968   0.11634   0.00000  Uiso   1.00
H163   H     0.19851   0.59442   0.08916   0.00000  Uiso   1.00
H164   H     0.44159   0.31764   0.03958   0.00000  Uiso   1.00
H165   H     0.67051   0.45507   0.21458   0.00000  Uiso   1.00
H166   H     0.89987   0.72627   0.06798   0.00000  Uiso   1.00
H167   H     0.41246   0.14264   0.96344   0.00000  Uiso   1.00
H168   H     0.89521   0.43244   0.33248   0.00000  Uiso   1.00
H169   H     0.08152   0.22918   0.18553   0.00000  Uiso   1.00
H170   H     0.83368   0.36183   0.16214   0.00000  Uiso   1.00
H171   H     0.07676   0.08505   0.11255   0.00000  Uiso   1.00
H172   H     0.30569   0.22248   0.28756   0.00000  Uiso   1.00
H173   H     0.60375   0.53749   0.12721   0.00000  Uiso   1.00
H174   H     0.11635   0.95385   0.02267   0.00000  Uiso   1.00
H175   H     0.59909   0.24366   0.39171   0.00000  Uiso   1.00
O176   O     0.59499   0.72310   0.08095   0.00000  Uiso   1.00
O177   O     0.26752   0.95740   0.94380   0.00000  Uiso   1.00
O178   O     0.90086   0.33762   0.42797   0.00000  Uiso   1.00
N179   N     0.86420   0.66364   0.08514   0.00000  Uiso   1.00
N180   N     0.34342   0.11799   0.98740   0.00000  Uiso   1.00
N181   N     0.79477   0.38891   0.33241   0.00000  Uiso   1.00
N182   N     0.70487   0.56206   0.11701   0.00000  Uiso   1.00
N183   N     0.18409   0.01641   0.01927   0.00000  Uiso   1.00
N184   N     0.63544   0.28733   0.36428   0.00000  Uiso   1.00
