data_job_05298
_audit_creation_date              2018-12-19
_audit_creation_method            'Materials Studio'
_symmetry_space_group_name_H-M    'P1'
_symmetry_Int_Tables_number       1
_symmetry_cell_setting            triclinic
loop_
_symmetry_equiv_pos_as_xyz
  x,y,z
_cell_length_a                    39.9494
_cell_length_b                    19.4537
_cell_length_c                    8.7952
_cell_angle_alpha                 90.0000
_cell_angle_beta                  80.5352
_cell_angle_gamma                 90.0000
loop_
_atom_site_label
_atom_site_type_symbol
_atom_site_fract_x
_atom_site_fract_y
_atom_site_fract_z
_atom_site_U_iso_or_equiv
_atom_site_adp_type
_atom_site_occupancy
C1     C     0.63619   0.81930   0.26071   0.00000  Uiso   1.00
C2     C     0.64361   0.74580   0.30545   0.00000  Uiso   1.00
C3     C     0.63282   0.68661   0.23994   0.00000  Uiso   1.00
C4     C     0.64226   0.62424   0.29695   0.00000  Uiso   1.00
C5     C     0.65080   0.51058   0.34848   0.00000  Uiso   1.00
C6     C     0.61898   0.85412   0.40842   0.00000  Uiso   1.00
C7     C     0.58748   0.88600   0.42948   0.00000  Uiso   1.00
C8     C     0.57619   0.91482   0.57318   0.00000  Uiso   1.00
C9     C     0.54650   0.96936   0.78454   0.00000  Uiso   1.00
C10    C     0.67061   0.85422   0.21749   0.00000  Uiso   1.00
C11    C     0.68252   0.88621   0.07803   0.00000  Uiso   1.00
C12    C     0.71469   0.91514   0.06099   0.00000  Uiso   1.00
C13    C     0.76517   0.96984   0.97590   0.00000  Uiso   1.00
C14    C     0.67215   0.81382   0.47845   0.00000  Uiso   1.00
C15    C     0.66315   0.74283   0.42372   0.00000  Uiso   1.00
C16    C     0.67261   0.68054   0.48084   0.00000  Uiso   1.00
C17    C     0.66183   0.62126   0.41543   0.00000  Uiso   1.00
C18    C     0.63851   0.85114   0.52669   0.00000  Uiso   1.00
C19    C     0.62727   0.87993   0.67038   0.00000  Uiso   1.00
C20    C     0.59575   0.91184   0.69166   0.00000  Uiso   1.00
C21    C     0.69015   0.85125   0.33576   0.00000  Uiso   1.00
C22    C     0.72231   0.88014   0.31893   0.00000  Uiso   1.00
C23    C     0.73426   0.91216   0.17947   0.00000  Uiso   1.00
H24    H     0.62098   0.82162   0.16864   0.00000  Uiso   1.00
H25    H     0.61770   0.68893   0.14842   0.00000  Uiso   1.00
H26    H     0.57237   0.88830   0.33793   0.00000  Uiso   1.00
H27    H     0.66740   0.88850   0.98653   0.00000  Uiso   1.00
H28    H     0.62267   0.54051   0.17821   0.00000  Uiso   1.00
H29    H     0.52709   0.96090   0.57778   0.00000  Uiso   1.00
H30    H     0.72747   0.96134   0.83678   0.00000  Uiso   1.00
H31    H     0.68736   0.81150   0.57053   0.00000  Uiso   1.00
H32    H     0.68772   0.67825   0.57237   0.00000  Uiso   1.00
H33    H     0.64239   0.87762   0.76188   0.00000  Uiso   1.00
H34    H     0.73741   0.87783   0.41048   0.00000  Uiso   1.00
H35    H     0.67950   0.53184   0.52230   0.00000  Uiso   1.00
H36    H     0.58392   0.95224   0.92187   0.00000  Uiso   1.00
H37    H     0.78430   0.95267   0.18088   0.00000  Uiso   1.00
O38    O     0.65012   0.44870   0.34424   0.00000  Uiso   1.00
O39    O     0.52472   0.00026   0.86845   0.00000  Uiso   1.00
O40    O     0.78762   0.00082   0.89628   0.00000  Uiso   1.00
N41    N     0.63600   0.55675   0.25892   0.00000  Uiso   1.00
N42    N     0.54664   0.94979   0.63250   0.00000  Uiso   1.00
N43    N     0.73397   0.95021   0.93975   0.00000  Uiso   1.00
N44    N     0.66658   0.55209   0.44407   0.00000  Uiso   1.00
N45    N     0.57722   0.94513   0.81765   0.00000  Uiso   1.00
N46    N     0.76455   0.94555   0.12490   0.00000  Uiso   1.00
C47    C     0.13619   0.31930   0.26071   0.00000  Uiso   1.00
C48    C     0.14361   0.24580   0.30545   0.00000  Uiso   1.00
C49    C     0.13282   0.18661   0.23994   0.00000  Uiso   1.00
C50    C     0.14226   0.12424   0.29695   0.00000  Uiso   1.00
C51    C     0.15080   0.01058   0.34848   0.00000  Uiso   1.00
C52    C     0.11898   0.35412   0.40842   0.00000  Uiso   1.00
C53    C     0.08748   0.38600   0.42948   0.00000  Uiso   1.00
C54    C     0.07619   0.41482   0.57318   0.00000  Uiso   1.00
C55    C     0.04650   0.46936   0.78454   0.00000  Uiso   1.00
C56    C     0.17061   0.35422   0.21749   0.00000  Uiso   1.00
C57    C     0.18252   0.38621   0.07803   0.00000  Uiso   1.00
C58    C     0.21469   0.41514   0.06099   0.00000  Uiso   1.00
C59    C     0.26517   0.46984   0.97590   0.00000  Uiso   1.00
C60    C     0.17215   0.31382   0.47845   0.00000  Uiso   1.00
C61    C     0.16315   0.24283   0.42372   0.00000  Uiso   1.00
C62    C     0.17261   0.18054   0.48084   0.00000  Uiso   1.00
C63    C     0.16183   0.12126   0.41543   0.00000  Uiso   1.00
C64    C     0.13851   0.35114   0.52669   0.00000  Uiso   1.00
C65    C     0.12727   0.37993   0.67038   0.00000  Uiso   1.00
C66    C     0.09575   0.41184   0.69166   0.00000  Uiso   1.00
C67    C     0.19015   0.35125   0.33576   0.00000  Uiso   1.00
C68    C     0.22231   0.38014   0.31893   0.00000  Uiso   1.00
C69    C     0.23426   0.41216   0.17947   0.00000  Uiso   1.00
H70    H     0.12098   0.32162   0.16864   0.00000  Uiso   1.00
H71    H     0.11770   0.18893   0.14842   0.00000  Uiso   1.00
H72    H     0.07237   0.38830   0.33793   0.00000  Uiso   1.00
H73    H     0.16740   0.38850   0.98653   0.00000  Uiso   1.00
H74    H     0.12267   0.04051   0.17821   0.00000  Uiso   1.00
H75    H     0.02709   0.46090   0.57778   0.00000  Uiso   1.00
H76    H     0.22747   0.46134   0.83678   0.00000  Uiso   1.00
H77    H     0.18736   0.31150   0.57053   0.00000  Uiso   1.00
H78    H     0.18772   0.17825   0.57237   0.00000  Uiso   1.00
H79    H     0.14239   0.37762   0.76188   0.00000  Uiso   1.00
H80    H     0.23741   0.37783   0.41048   0.00000  Uiso   1.00
H81    H     0.17950   0.03184   0.52230   0.00000  Uiso   1.00
H82    H     0.08392   0.45224   0.92187   0.00000  Uiso   1.00
H83    H     0.28430   0.45267   0.18088   0.00000  Uiso   1.00
O84    O     0.15012   0.94870   0.34424   0.00000  Uiso   1.00
O85    O     0.02472   0.50026   0.86845   0.00000  Uiso   1.00
O86    O     0.28762   0.50082   0.89628   0.00000  Uiso   1.00
N87    N     0.13600   0.05675   0.25892   0.00000  Uiso   1.00
N88    N     0.04664   0.44979   0.63250   0.00000  Uiso   1.00
N89    N     0.23397   0.45021   0.93975   0.00000  Uiso   1.00
N90    N     0.16658   0.05209   0.44407   0.00000  Uiso   1.00
N91    N     0.07722   0.44513   0.81765   0.00000  Uiso   1.00
N92    N     0.26455   0.44555   0.12490   0.00000  Uiso   1.00
C93    C     0.36381   0.81930   0.23929   0.00000  Uiso   1.00
C94    C     0.35639   0.74580   0.19455   0.00000  Uiso   1.00
C95    C     0.36718   0.68661   0.26006   0.00000  Uiso   1.00
C96    C     0.35774   0.62424   0.20305   0.00000  Uiso   1.00
C97    C     0.34920   0.51058   0.15152   0.00000  Uiso   1.00
C98    C     0.38102   0.85412   0.09158   0.00000  Uiso   1.00
C99    C     0.41252   0.88600   0.07052   0.00000  Uiso   1.00
C100   C     0.42381   0.91482   0.92682   0.00000  Uiso   1.00
C101   C     0.45350   0.96936   0.71546   0.00000  Uiso   1.00
C102   C     0.32939   0.85422   0.28251   0.00000  Uiso   1.00
C103   C     0.31748   0.88621   0.42197   0.00000  Uiso   1.00
C104   C     0.28531   0.91514   0.43901   0.00000  Uiso   1.00
C105   C     0.23483   0.96984   0.52410   0.00000  Uiso   1.00
C106   C     0.32785   0.81382   0.02155   0.00000  Uiso   1.00
C107   C     0.33685   0.74283   0.07628   0.00000  Uiso   1.00
C108   C     0.32739   0.68054   0.01916   0.00000  Uiso   1.00
C109   C     0.33817   0.62126   0.08457   0.00000  Uiso   1.00
C110   C     0.36149   0.85114   0.97331   0.00000  Uiso   1.00
C111   C     0.37273   0.87993   0.82962   0.00000  Uiso   1.00
C112   C     0.40425   0.91184   0.80834   0.00000  Uiso   1.00
C113   C     0.30985   0.85125   0.16424   0.00000  Uiso   1.00
C114   C     0.27769   0.88014   0.18107   0.00000  Uiso   1.00
C115   C     0.26574   0.91216   0.32053   0.00000  Uiso   1.00
H116   H     0.37902   0.82162   0.33136   0.00000  Uiso   1.00
H117   H     0.38230   0.68893   0.35158   0.00000  Uiso   1.00
H118   H     0.42763   0.88830   0.16207   0.00000  Uiso   1.00
H119   H     0.33260   0.88850   0.51347   0.00000  Uiso   1.00
H120   H     0.37733   0.54051   0.32179   0.00000  Uiso   1.00
H121   H     0.47291   0.96090   0.92222   0.00000  Uiso   1.00
H122   H     0.27253   0.96134   0.66322   0.00000  Uiso   1.00
H123   H     0.31264   0.81150   0.92947   0.00000  Uiso   1.00
H124   H     0.31228   0.67825   0.92763   0.00000  Uiso   1.00
H125   H     0.35761   0.87762   0.73812   0.00000  Uiso   1.00
H126   H     0.26259   0.87783   0.08952   0.00000  Uiso   1.00
H127   H     0.32050   0.53184   0.97770   0.00000  Uiso   1.00
H128   H     0.41608   0.95224   0.57813   0.00000  Uiso   1.00
H129   H     0.21570   0.95267   0.31912   0.00000  Uiso   1.00
O130   O     0.34988   0.44870   0.15576   0.00000  Uiso   1.00
O131   O     0.47528   0.00026   0.63155   0.00000  Uiso   1.00
O132   O     0.21238   0.00082   0.60372   0.00000  Uiso   1.00
N133   N     0.36400   0.55675   0.24108   0.00000  Uiso   1.00
N134   N     0.45336   0.94979   0.86750   0.00000  Uiso   1.00
N135   N     0.26603   0.95021   0.56025   0.00000  Uiso   1.00
N136   N     0.33342   0.55209   0.05593   0.00000  Uiso   1.00
N137   N     0.42278   0.94513   0.68235   0.00000  Uiso   1.00
N138   N     0.23545   0.94555   0.37510   0.00000  Uiso   1.00
C139   C     0.86381   0.31930   0.23929   0.00000  Uiso   1.00
C140   C     0.85639   0.24580   0.19455   0.00000  Uiso   1.00
C141   C     0.86718   0.18661   0.26006   0.00000  Uiso   1.00
C142   C     0.85774   0.12424   0.20305   0.00000  Uiso   1.00
C143   C     0.84920   0.01058   0.15152   0.00000  Uiso   1.00
C144   C     0.88102   0.35412   0.09158   0.00000  Uiso   1.00
C145   C     0.91252   0.38600   0.07052   0.00000  Uiso   1.00
C146   C     0.92381   0.41482   0.92682   0.00000  Uiso   1.00
C147   C     0.95350   0.46936   0.71546   0.00000  Uiso   1.00
C148   C     0.82939   0.35422   0.28251   0.00000  Uiso   1.00
C149   C     0.81748   0.38621   0.42197   0.00000  Uiso   1.00
C150   C     0.78531   0.41514   0.43901   0.00000  Uiso   1.00
C151   C     0.73483   0.46984   0.52410   0.00000  Uiso   1.00
C152   C     0.82785   0.31382   0.02155   0.00000  Uiso   1.00
C153   C     0.83685   0.24283   0.07628   0.00000  Uiso   1.00
C154   C     0.82739   0.18054   0.01916   0.00000  Uiso   1.00
C155   C     0.83817   0.12126   0.08457   0.00000  Uiso   1.00
C156   C     0.86149   0.35114   0.97331   0.00000  Uiso   1.00
C157   C     0.87273   0.37993   0.82962   0.00000  Uiso   1.00
C158   C     0.90425   0.41184   0.80834   0.00000  Uiso   1.00
C159   C     0.80985   0.35125   0.16424   0.00000  Uiso   1.00
C160   C     0.77769   0.38014   0.18107   0.00000  Uiso   1.00
C161   C     0.76574   0.41216   0.32053   0.00000  Uiso   1.00
H162   H     0.87902   0.32162   0.33136   0.00000  Uiso   1.00
H163   H     0.88230   0.18893   0.35158   0.00000  Uiso   1.00
H164   H     0.92763   0.38830   0.16207   0.00000  Uiso   1.00
H165   H     0.83260   0.38850   0.51347   0.00000  Uiso   1.00
H166   H     0.87733   0.04051   0.32179   0.00000  Uiso   1.00
H167   H     0.97291   0.46090   0.92222   0.00000  Uiso   1.00
H168   H     0.77253   0.46134   0.66322   0.00000  Uiso   1.00
H169   H     0.81264   0.31150   0.92947   0.00000  Uiso   1.00
H170   H     0.81228   0.17825   0.92763   0.00000  Uiso   1.00
H171   H     0.85761   0.37762   0.73812   0.00000  Uiso   1.00
H172   H     0.76259   0.37783   0.08952   0.00000  Uiso   1.00
H173   H     0.82050   0.03184   0.97770   0.00000  Uiso   1.00
H174   H     0.91608   0.45224   0.57813   0.00000  Uiso   1.00
H175   H     0.71570   0.45267   0.31912   0.00000  Uiso   1.00
O176   O     0.84988   0.94870   0.15576   0.00000  Uiso   1.00
O177   O     0.97528   0.50026   0.63155   0.00000  Uiso   1.00
O178   O     0.71238   0.50082   0.60372   0.00000  Uiso   1.00
N179   N     0.86400   0.05675   0.24108   0.00000  Uiso   1.00
N180   N     0.95336   0.44979   0.86750   0.00000  Uiso   1.00
N181   N     0.76603   0.45021   0.56025   0.00000  Uiso   1.00
N182   N     0.83342   0.05209   0.05593   0.00000  Uiso   1.00
N183   N     0.92278   0.44513   0.68235   0.00000  Uiso   1.00
N184   N     0.73545   0.44555   0.37510   0.00000  Uiso   1.00
C185   C     0.36381   0.18070   0.73929   0.00000  Uiso   1.00
C186   C     0.35639   0.25420   0.69455   0.00000  Uiso   1.00
C187   C     0.36718   0.31339   0.76006   0.00000  Uiso   1.00
C188   C     0.35774   0.37576   0.70305   0.00000  Uiso   1.00
C189   C     0.34920   0.48942   0.65152   0.00000  Uiso   1.00
C190   C     0.38102   0.14588   0.59158   0.00000  Uiso   1.00
C191   C     0.41252   0.11400   0.57052   0.00000  Uiso   1.00
C192   C     0.42381   0.08518   0.42682   0.00000  Uiso   1.00
C193   C     0.45350   0.03064   0.21546   0.00000  Uiso   1.00
C194   C     0.32939   0.14578   0.78251   0.00000  Uiso   1.00
C195   C     0.31748   0.11379   0.92197   0.00000  Uiso   1.00
C196   C     0.28531   0.08486   0.93901   0.00000  Uiso   1.00
C197   C     0.23483   0.03016   0.02410   0.00000  Uiso   1.00
C198   C     0.32785   0.18618   0.52155   0.00000  Uiso   1.00
C199   C     0.33685   0.25717   0.57628   0.00000  Uiso   1.00
C200   C     0.32739   0.31946   0.51916   0.00000  Uiso   1.00
C201   C     0.33817   0.37874   0.58457   0.00000  Uiso   1.00
C202   C     0.36149   0.14886   0.47331   0.00000  Uiso   1.00
C203   C     0.37273   0.12007   0.32962   0.00000  Uiso   1.00
C204   C     0.40425   0.08816   0.30834   0.00000  Uiso   1.00
C205   C     0.30985   0.14875   0.66424   0.00000  Uiso   1.00
C206   C     0.27769   0.11986   0.68107   0.00000  Uiso   1.00
C207   C     0.26574   0.08784   0.82053   0.00000  Uiso   1.00
H208   H     0.37902   0.17838   0.83136   0.00000  Uiso   1.00
H209   H     0.38230   0.31107   0.85158   0.00000  Uiso   1.00
H210   H     0.42763   0.11170   0.66207   0.00000  Uiso   1.00
H211   H     0.33260   0.11150   0.01347   0.00000  Uiso   1.00
H212   H     0.37733   0.45949   0.82179   0.00000  Uiso   1.00
H213   H     0.47291   0.03910   0.42222   0.00000  Uiso   1.00
H214   H     0.27253   0.03866   0.16322   0.00000  Uiso   1.00
H215   H     0.31264   0.18850   0.42947   0.00000  Uiso   1.00
H216   H     0.31228   0.32175   0.42763   0.00000  Uiso   1.00
H217   H     0.35761   0.12238   0.23812   0.00000  Uiso   1.00
H218   H     0.26259   0.12217   0.58952   0.00000  Uiso   1.00
H219   H     0.32050   0.46816   0.47770   0.00000  Uiso   1.00
H220   H     0.41608   0.04776   0.07813   0.00000  Uiso   1.00
H221   H     0.21570   0.04733   0.81912   0.00000  Uiso   1.00
O222   O     0.34988   0.55130   0.65576   0.00000  Uiso   1.00
O223   O     0.47528   0.99974   0.13155   0.00000  Uiso   1.00
O224   O     0.21238   0.99918   0.10372   0.00000  Uiso   1.00
N225   N     0.36400   0.44325   0.74108   0.00000  Uiso   1.00
N226   N     0.45336   0.05021   0.36750   0.00000  Uiso   1.00
N227   N     0.26603   0.04979   0.06025   0.00000  Uiso   1.00
N228   N     0.33342   0.44791   0.55593   0.00000  Uiso   1.00
N229   N     0.42278   0.05487   0.18235   0.00000  Uiso   1.00
N230   N     0.23545   0.05445   0.87510   0.00000  Uiso   1.00
C231   C     0.86381   0.68070   0.73929   0.00000  Uiso   1.00
C232   C     0.85639   0.75420   0.69455   0.00000  Uiso   1.00
C233   C     0.86718   0.81339   0.76006   0.00000  Uiso   1.00
C234   C     0.85774   0.87576   0.70305   0.00000  Uiso   1.00
C235   C     0.84920   0.98942   0.65152   0.00000  Uiso   1.00
C236   C     0.88102   0.64588   0.59158   0.00000  Uiso   1.00
C237   C     0.91252   0.61400   0.57052   0.00000  Uiso   1.00
C238   C     0.92381   0.58518   0.42682   0.00000  Uiso   1.00
C239   C     0.95350   0.53064   0.21546   0.00000  Uiso   1.00
C240   C     0.82939   0.64578   0.78251   0.00000  Uiso   1.00
C241   C     0.81748   0.61379   0.92197   0.00000  Uiso   1.00
C242   C     0.78531   0.58486   0.93901   0.00000  Uiso   1.00
C243   C     0.73483   0.53016   0.02410   0.00000  Uiso   1.00
C244   C     0.82785   0.68618   0.52155   0.00000  Uiso   1.00
C245   C     0.83685   0.75717   0.57628   0.00000  Uiso   1.00
C246   C     0.82739   0.81946   0.51916   0.00000  Uiso   1.00
C247   C     0.83817   0.87874   0.58457   0.00000  Uiso   1.00
C248   C     0.86149   0.64886   0.47331   0.00000  Uiso   1.00
C249   C     0.87273   0.62007   0.32962   0.00000  Uiso   1.00
C250   C     0.90425   0.58816   0.30834   0.00000  Uiso   1.00
C251   C     0.80985   0.64875   0.66424   0.00000  Uiso   1.00
C252   C     0.77769   0.61986   0.68107   0.00000  Uiso   1.00
C253   C     0.76574   0.58784   0.82053   0.00000  Uiso   1.00
H254   H     0.87902   0.67838   0.83136   0.00000  Uiso   1.00
H255   H     0.88230   0.81107   0.85158   0.00000  Uiso   1.00
H256   H     0.92763   0.61170   0.66207   0.00000  Uiso   1.00
H257   H     0.83260   0.61150   0.01347   0.00000  Uiso   1.00
H258   H     0.87733   0.95949   0.82179   0.00000  Uiso   1.00
H259   H     0.97291   0.53910   0.42222   0.00000  Uiso   1.00
H260   H     0.77253   0.53866   0.16322   0.00000  Uiso   1.00
H261   H     0.81264   0.68850   0.42947   0.00000  Uiso   1.00
H262   H     0.81228   0.82175   0.42763   0.00000  Uiso   1.00
H263   H     0.85761   0.62238   0.23812   0.00000  Uiso   1.00
H264   H     0.76259   0.62217   0.58952   0.00000  Uiso   1.00
H265   H     0.82050   0.96816   0.47770   0.00000  Uiso   1.00
H266   H     0.91608   0.54776   0.07813   0.00000  Uiso   1.00
H267   H     0.71570   0.54733   0.81912   0.00000  Uiso   1.00
O268   O     0.84988   0.05130   0.65576   0.00000  Uiso   1.00
O269   O     0.97528   0.49974   0.13155   0.00000  Uiso   1.00
O270   O     0.71238   0.49918   0.10372   0.00000  Uiso   1.00
N271   N     0.86400   0.94325   0.74108   0.00000  Uiso   1.00
N272   N     0.95336   0.55021   0.36750   0.00000  Uiso   1.00
N273   N     0.76603   0.54979   0.06025   0.00000  Uiso   1.00
N274   N     0.83342   0.94791   0.55593   0.00000  Uiso   1.00
N275   N     0.92278   0.55487   0.18235   0.00000  Uiso   1.00
N276   N     0.73545   0.55445   0.87510   0.00000  Uiso   1.00
C277   C     0.63619   0.18070   0.76071   0.00000  Uiso   1.00
C278   C     0.64361   0.25420   0.80545   0.00000  Uiso   1.00
C279   C     0.63282   0.31339   0.73994   0.00000  Uiso   1.00
C280   C     0.64226   0.37576   0.79695   0.00000  Uiso   1.00
C281   C     0.65080   0.48942   0.84848   0.00000  Uiso   1.00
C282   C     0.61898   0.14588   0.90842   0.00000  Uiso   1.00
C283   C     0.58748   0.11400   0.92948   0.00000  Uiso   1.00
C284   C     0.57619   0.08518   0.07318   0.00000  Uiso   1.00
C285   C     0.54650   0.03064   0.28454   0.00000  Uiso   1.00
C286   C     0.67061   0.14578   0.71749   0.00000  Uiso   1.00
C287   C     0.68252   0.11379   0.57803   0.00000  Uiso   1.00
C288   C     0.71469   0.08486   0.56099   0.00000  Uiso   1.00
C289   C     0.76517   0.03016   0.47590   0.00000  Uiso   1.00
C290   C     0.67215   0.18618   0.97845   0.00000  Uiso   1.00
C291   C     0.66315   0.25717   0.92372   0.00000  Uiso   1.00
C292   C     0.67261   0.31946   0.98084   0.00000  Uiso   1.00
C293   C     0.66183   0.37874   0.91543   0.00000  Uiso   1.00
C294   C     0.63851   0.14886   0.02669   0.00000  Uiso   1.00
C295   C     0.62727   0.12007   0.17038   0.00000  Uiso   1.00
C296   C     0.59575   0.08816   0.19166   0.00000  Uiso   1.00
C297   C     0.69015   0.14875   0.83576   0.00000  Uiso   1.00
C298   C     0.72231   0.11986   0.81893   0.00000  Uiso   1.00
C299   C     0.73426   0.08784   0.67947   0.00000  Uiso   1.00
H300   H     0.62098   0.17838   0.66864   0.00000  Uiso   1.00
H301   H     0.61770   0.31107   0.64842   0.00000  Uiso   1.00
H302   H     0.57237   0.11170   0.83793   0.00000  Uiso   1.00
H303   H     0.66740   0.11150   0.48653   0.00000  Uiso   1.00
H304   H     0.62267   0.45949   0.67821   0.00000  Uiso   1.00
H305   H     0.52709   0.03910   0.07778   0.00000  Uiso   1.00
H306   H     0.72747   0.03866   0.33678   0.00000  Uiso   1.00
H307   H     0.68736   0.18850   0.07053   0.00000  Uiso   1.00
H308   H     0.68772   0.32175   0.07237   0.00000  Uiso   1.00
H309   H     0.64239   0.12238   0.26188   0.00000  Uiso   1.00
H310   H     0.73741   0.12217   0.91048   0.00000  Uiso   1.00
H311   H     0.67950   0.46816   0.02230   0.00000  Uiso   1.00
H312   H     0.58392   0.04776   0.42187   0.00000  Uiso   1.00
H313   H     0.78430   0.04733   0.68088   0.00000  Uiso   1.00
O314   O     0.65012   0.55130   0.84424   0.00000  Uiso   1.00
O315   O     0.52472   0.99974   0.36845   0.00000  Uiso   1.00
O316   O     0.78762   0.99918   0.39628   0.00000  Uiso   1.00
N317   N     0.63600   0.44325   0.75892   0.00000  Uiso   1.00
N318   N     0.54664   0.05021   0.13250   0.00000  Uiso   1.00
N319   N     0.73397   0.04979   0.43975   0.00000  Uiso   1.00
N320   N     0.66658   0.44791   0.94407   0.00000  Uiso   1.00
N321   N     0.57722   0.05487   0.31765   0.00000  Uiso   1.00
N322   N     0.76455   0.05445   0.62490   0.00000  Uiso   1.00
C323   C     0.13619   0.68070   0.76071   0.00000  Uiso   1.00
C324   C     0.14361   0.75420   0.80545   0.00000  Uiso   1.00
C325   C     0.13282   0.81339   0.73994   0.00000  Uiso   1.00
C326   C     0.14226   0.87576   0.79695   0.00000  Uiso   1.00
C327   C     0.15080   0.98942   0.84848   0.00000  Uiso   1.00
C328   C     0.11898   0.64588   0.90842   0.00000  Uiso   1.00
C329   C     0.08748   0.61400   0.92948   0.00000  Uiso   1.00
C330   C     0.07619   0.58518   0.07318   0.00000  Uiso   1.00
C331   C     0.04650   0.53064   0.28454   0.00000  Uiso   1.00
C332   C     0.17061   0.64578   0.71749   0.00000  Uiso   1.00
C333   C     0.18252   0.61379   0.57803   0.00000  Uiso   1.00
C334   C     0.21469   0.58486   0.56099   0.00000  Uiso   1.00
C335   C     0.26517   0.53016   0.47590   0.00000  Uiso   1.00
C336   C     0.17215   0.68618   0.97845   0.00000  Uiso   1.00
C337   C     0.16315   0.75717   0.92372   0.00000  Uiso   1.00
C338   C     0.17261   0.81946   0.98084   0.00000  Uiso   1.00
C339   C     0.16183   0.87874   0.91543   0.00000  Uiso   1.00
C340   C     0.13851   0.64886   0.02669   0.00000  Uiso   1.00
C341   C     0.12727   0.62007   0.17038   0.00000  Uiso   1.00
C342   C     0.09575   0.58816   0.19166   0.00000  Uiso   1.00
C343   C     0.19015   0.64875   0.83576   0.00000  Uiso   1.00
C344   C     0.22231   0.61986   0.81893   0.00000  Uiso   1.00
C345   C     0.23426   0.58784   0.67947   0.00000  Uiso   1.00
H346   H     0.12098   0.67838   0.66864   0.00000  Uiso   1.00
H347   H     0.11770   0.81107   0.64842   0.00000  Uiso   1.00
H348   H     0.07237   0.61170   0.83793   0.00000  Uiso   1.00
H349   H     0.16740   0.61150   0.48653   0.00000  Uiso   1.00
H350   H     0.12267   0.95949   0.67821   0.00000  Uiso   1.00
H351   H     0.02709   0.53910   0.07778   0.00000  Uiso   1.00
H352   H     0.22747   0.53866   0.33678   0.00000  Uiso   1.00
H353   H     0.18736   0.68850   0.07053   0.00000  Uiso   1.00
H354   H     0.18772   0.82175   0.07237   0.00000  Uiso   1.00
H355   H     0.14239   0.62238   0.26188   0.00000  Uiso   1.00
H356   H     0.23741   0.62217   0.91048   0.00000  Uiso   1.00
H357   H     0.17950   0.96816   0.02230   0.00000  Uiso   1.00
H358   H     0.08392   0.54776   0.42187   0.00000  Uiso   1.00
H359   H     0.28430   0.54733   0.68088   0.00000  Uiso   1.00
O360   O     0.15012   0.05130   0.84424   0.00000  Uiso   1.00
O361   O     0.02472   0.49974   0.36845   0.00000  Uiso   1.00
O362   O     0.28762   0.49918   0.39628   0.00000  Uiso   1.00
N363   N     0.13600   0.94325   0.75892   0.00000  Uiso   1.00
N364   N     0.04664   0.55021   0.13250   0.00000  Uiso   1.00
N365   N     0.23397   0.54979   0.43975   0.00000  Uiso   1.00
N366   N     0.16658   0.94791   0.94407   0.00000  Uiso   1.00
N367   N     0.07722   0.55487   0.31765   0.00000  Uiso   1.00
N368   N     0.26455   0.55445   0.62490   0.00000  Uiso   1.00
