data_job_06158
_audit_creation_date              2018-12-19
_audit_creation_method            'Materials Studio'
_symmetry_space_group_name_H-M    'P1'
_symmetry_Int_Tables_number       1
_symmetry_cell_setting            triclinic
loop_
_symmetry_equiv_pos_as_xyz
  x,y,z
_cell_length_a                    15.2891
_cell_length_b                    19.7326
_cell_length_c                    19.7542
_cell_angle_alpha                 66.3830
_cell_angle_beta                  75.2139
_cell_angle_gamma                 104.7573
loop_
_atom_site_label
_atom_site_type_symbol
_atom_site_fract_x
_atom_site_fract_y
_atom_site_fract_z
_atom_site_U_iso_or_equiv
_atom_site_adp_type
_atom_site_occupancy
C1     C     0.85300   0.05386   0.37756   0.00000  Uiso   1.00
C2     C     0.76479   0.06342   0.35861   0.00000  Uiso   1.00
C3     C     0.72814   0.03759   0.31179   0.00000  Uiso   1.00
C4     C     0.64685   0.05200   0.30162   0.00000  Uiso   1.00
C5     C     0.51646   0.06097   0.26677   0.00000  Uiso   1.00
C6     C     0.92491   0.13873   0.34935   0.00000  Uiso   1.00
C7     C     0.02290   0.17620   0.29475   0.00000  Uiso   1.00
C8     C     0.07641   0.25400   0.27679   0.00000  Uiso   1.00
C9     C     0.19463   0.37987   0.22762   0.00000  Uiso   1.00
C10    C     0.81504   0.00846   0.46938   0.00000  Uiso   1.00
C11    C     0.82066   0.93641   0.51571   0.00000  Uiso   1.00
C12    C     0.78169   0.90455   0.59881   0.00000  Uiso   1.00
C13    C     0.72932   0.82815   0.73600   0.00000  Uiso   1.00
C14    C     0.77382   0.12539   0.44274   0.00000  Uiso   1.00
C15    C     0.72178   0.10228   0.39401   0.00000  Uiso   1.00
C16    C     0.64053   0.11673   0.38391   0.00000  Uiso   1.00
C17    C     0.60376   0.09092   0.33709   0.00000  Uiso   1.00
C18    C     0.88191   0.17758   0.38475   0.00000  Uiso   1.00
C19    C     0.93529   0.25535   0.36687   0.00000  Uiso   1.00
C20    C     0.03332   0.29293   0.31226   0.00000  Uiso   1.00
C21    C     0.77203   0.04731   0.50479   0.00000  Uiso   1.00
C22    C     0.73305   0.01556   0.58782   0.00000  Uiso   1.00
C23    C     0.73860   0.94348   0.63427   0.00000  Uiso   1.00
H24    H     0.88649   0.02361   0.34999   0.00000  Uiso   1.00
H25    H     0.76145   0.00753   0.28440   0.00000  Uiso   1.00
H26    H     0.05616   0.14611   0.26737   0.00000  Uiso   1.00
H27    H     0.85395   0.90636   0.48829   0.00000  Uiso   1.00
H28    H     0.60387   0.00685   0.22726   0.00000  Uiso   1.00
H29    H     0.22530   0.29906   0.19138   0.00000  Uiso   1.00
H30    H     0.79891   0.79350   0.65723   0.00000  Uiso   1.00
H31    H     0.74033   0.15565   0.47031   0.00000  Uiso   1.00
H32    H     0.60726   0.14680   0.41131   0.00000  Uiso   1.00
H33    H     0.90198   0.28539   0.39428   0.00000  Uiso   1.00
H34    H     0.69977   0.04564   0.61520   0.00000  Uiso   1.00
H35    H     0.47873   0.11990   0.33027   0.00000  Uiso   1.00
H36    H     0.10016   0.41211   0.29439   0.00000  Uiso   1.00
H37    H     0.67377   0.90655   0.76024   0.00000  Uiso   1.00
O38    O     0.45643   0.05520   0.23777   0.00000  Uiso   1.00
O39    O     0.27172   0.43856   0.19070   0.00000  Uiso   1.00
O40    O     0.71230   0.77527   0.80189   0.00000  Uiso   1.00
N41    N     0.59267   0.03466   0.25961   0.00000  Uiso   1.00
N42    N     0.17366   0.30786   0.22606   0.00000  Uiso   1.00
N43    N     0.77505   0.83521   0.66159   0.00000  Uiso   1.00
N44    N     0.52533   0.09548   0.31504   0.00000  Uiso   1.00
N45    N     0.10632   0.36869   0.28149   0.00000  Uiso   1.00
N46    N     0.70771   0.89604   0.71702   0.00000  Uiso   1.00
C47    C     0.79899   0.56798   0.05516   0.00000  Uiso   1.00
C48    C     0.70153   0.57767   0.06425   0.00000  Uiso   1.00
C49    C     0.69055   0.65036   0.03837   0.00000  Uiso   1.00
C50    C     0.59519   0.64641   0.05232   0.00000  Uiso   1.00
C51    C     0.45622   0.67270   0.06063   0.00000  Uiso   1.00
C52    C     0.78659   0.51144   0.14008   0.00000  Uiso   1.00
C53    C     0.84715   0.52844   0.17796   0.00000  Uiso   1.00
C54    C     0.82340   0.46874   0.25575   0.00000  Uiso   1.00
C55    C     0.81654   0.39219   0.38176   0.00000  Uiso   1.00
C56    C     0.80618   0.52145   0.00965   0.00000  Uiso   1.00
C57    C     0.88322   0.54686   0.93788   0.00000  Uiso   1.00
C58    C     0.87598   0.49558   0.90586   0.00000  Uiso   1.00
C59    C     0.89954   0.43458   0.82937   0.00000  Uiso   1.00
C60    C     0.64917   0.43171   0.12594   0.00000  Uiso   1.00
C61    C     0.62015   0.50365   0.10270   0.00000  Uiso   1.00
C62    C     0.52478   0.49959   0.11668   0.00000  Uiso   1.00
C63    C     0.51366   0.57226   0.09083   0.00000  Uiso   1.00
C64    C     0.70522   0.43742   0.17853   0.00000  Uiso   1.00
C65    C     0.68138   0.37768   0.25627   0.00000  Uiso   1.00
C66    C     0.74187   0.39459   0.29427   0.00000  Uiso   1.00
C67    C     0.72481   0.44743   0.04810   0.00000  Uiso   1.00
C68    C     0.71745   0.39610   0.01619   0.00000  Uiso   1.00
C69    C     0.79445   0.42143   0.94438   0.00000  Uiso   1.00
H70    H     0.86235   0.62560   0.02523   0.00000  Uiso   1.00
H71    H     0.75354   0.70762   0.00863   0.00000  Uiso   1.00
H72    H     0.91012   0.58573   0.14819   0.00000  Uiso   1.00
H73    H     0.94618   0.60414   0.90815   0.00000  Uiso   1.00
H74    H     0.59702   0.76591   0.00721   0.00000  Uiso   1.00
H75    H     0.92719   0.50888   0.30147   0.00000  Uiso   1.00
H76    H     0.00324   0.54771   0.79529   0.00000  Uiso   1.00
H77    H     0.58581   0.37408   0.15587   0.00000  Uiso   1.00
H78    H     0.46182   0.44230   0.14644   0.00000  Uiso   1.00
H79    H     0.61840   0.32040   0.28601   0.00000  Uiso   1.00
H80    H     0.65446   0.33882   0.04596   0.00000  Uiso   1.00
H81    H     0.36024   0.55057   0.11906   0.00000  Uiso   1.00
H82    H     0.69042   0.29353   0.41333   0.00000  Uiso   1.00
H83    H     0.76646   0.33237   0.90715   0.00000  Uiso   1.00
O84    O     0.40205   0.70765   0.05460   0.00000  Uiso   1.00
O85    O     0.83524   0.37043   0.44065   0.00000  Uiso   1.00
O86    O     0.93501   0.42138   0.77655   0.00000  Uiso   1.00
N87    N     0.55831   0.70587   0.03481   0.00000  Uiso   1.00
N88    N     0.86699   0.46556   0.30994   0.00000  Uiso   1.00
N89    N     0.93810   0.50186   0.83671   0.00000  Uiso   1.00
N90    N     0.43090   0.58999   0.09500   0.00000  Uiso   1.00
N91    N     0.73959   0.34969   0.37012   0.00000  Uiso   1.00
N92    N     0.81070   0.38598   0.89690   0.00000  Uiso   1.00
C93    C     0.23025   0.37621   0.56910   0.00000  Uiso   1.00
C94    C     0.12345   0.35774   0.57824   0.00000  Uiso   1.00
C95    C     0.04044   0.31124   0.65061   0.00000  Uiso   1.00
C96    C     0.94926   0.30148   0.64617   0.00000  Uiso   1.00
C97    C     0.78461   0.26738   0.67164   0.00000  Uiso   1.00
C98    C     0.27397   0.34761   0.51264   0.00000  Uiso   1.00
C99    C     0.31753   0.29259   0.52985   0.00000  Uiso   1.00
C100   C     0.35306   0.27431   0.47019   0.00000  Uiso   1.00
C101   C     0.42216   0.22451   0.39379   0.00000  Uiso   1.00
C102   C     0.28350   0.46808   0.52284   0.00000  Uiso   1.00
C103   C     0.33510   0.51435   0.54861   0.00000  Uiso   1.00
C104   C     0.37869   0.59751   0.49752   0.00000  Uiso   1.00
C105   C     0.46259   0.73476   0.43696   0.00000  Uiso   1.00
C106   C     0.21591   0.44159   0.43253   0.00000  Uiso   1.00
C107   C     0.11566   0.39326   0.50406   0.00000  Uiso   1.00
C108   C     0.02458   0.38358   0.49951   0.00000  Uiso   1.00
C109   C     0.94145   0.33707   0.57186   0.00000  Uiso   1.00
C110   C     0.26618   0.38312   0.43846   0.00000  Uiso   1.00
C111   C     0.30166   0.36493   0.37876   0.00000  Uiso   1.00
C112   C     0.34526   0.30989   0.39588   0.00000  Uiso   1.00
C113   C     0.27571   0.50359   0.44866   0.00000  Uiso   1.00
C114   C     0.31923   0.58669   0.39752   0.00000  Uiso   1.00
C115   C     0.37088   0.63309   0.42321   0.00000  Uiso   1.00
H116   H     0.23631   0.34856   0.62685   0.00000  Uiso   1.00
H117   H     0.04650   0.28375   0.70800   0.00000  Uiso   1.00
H118   H     0.32355   0.26512   0.58725   0.00000  Uiso   1.00
H119   H     0.34111   0.48685   0.60601   0.00000  Uiso   1.00
H120   H     0.83262   0.22755   0.76525   0.00000  Uiso   1.00
H121   H     0.41683   0.18827   0.51065   0.00000  Uiso   1.00
H122   H     0.45387   0.65583   0.55021   0.00000  Uiso   1.00
H123   H     0.20985   0.46925   0.37478   0.00000  Uiso   1.00
H124   H     0.01857   0.41107   0.44210   0.00000  Uiso   1.00
H125   H     0.29563   0.39243   0.32136   0.00000  Uiso   1.00
H126   H     0.31319   0.61416   0.34012   0.00000  Uiso   1.00
H127   H     0.80995   0.33088   0.54944   0.00000  Uiso   1.00
H128   H     0.39417   0.29160   0.29484   0.00000  Uiso   1.00
H129   H     0.43120   0.75916   0.33440   0.00000  Uiso   1.00
O130   O     0.69594   0.23874   0.70618   0.00000  Uiso   1.00
O131   O     0.46242   0.18722   0.37215   0.00000  Uiso   1.00
O132   O     0.51101   0.80065   0.42405   0.00000  Uiso   1.00
N133   N     0.85354   0.25986   0.70523   0.00000  Uiso   1.00
N134   N     0.39972   0.22313   0.46719   0.00000  Uiso   1.00
N135   N     0.43438   0.66026   0.50417   0.00000  Uiso   1.00
N136   N     0.84134   0.31547   0.58910   0.00000  Uiso   1.00
N137   N     0.38753   0.27873   0.35107   0.00000  Uiso   1.00
N138   N     0.42218   0.71586   0.38804   0.00000  Uiso   1.00
C139   C     0.14700   0.94614   0.62244   0.00000  Uiso   1.00
C140   C     0.23521   0.93658   0.64139   0.00000  Uiso   1.00
C141   C     0.27186   0.96241   0.68821   0.00000  Uiso   1.00
C142   C     0.35315   0.94800   0.69838   0.00000  Uiso   1.00
C143   C     0.48354   0.93903   0.73323   0.00000  Uiso   1.00
C144   C     0.07509   0.86127   0.65065   0.00000  Uiso   1.00
C145   C     0.97710   0.82380   0.70525   0.00000  Uiso   1.00
C146   C     0.92359   0.74600   0.72321   0.00000  Uiso   1.00
C147   C     0.80537   0.62013   0.77238   0.00000  Uiso   1.00
C148   C     0.18496   0.99154   0.53062   0.00000  Uiso   1.00
C149   C     0.17934   0.06359   0.48429   0.00000  Uiso   1.00
C150   C     0.21831   0.09545   0.40119   0.00000  Uiso   1.00
C151   C     0.27068   0.17185   0.26400   0.00000  Uiso   1.00
C152   C     0.22618   0.87461   0.55726   0.00000  Uiso   1.00
C153   C     0.27822   0.89772   0.60599   0.00000  Uiso   1.00
C154   C     0.35947   0.88327   0.61609   0.00000  Uiso   1.00
C155   C     0.39624   0.90908   0.66291   0.00000  Uiso   1.00
C156   C     0.11809   0.82242   0.61525   0.00000  Uiso   1.00
C157   C     0.06471   0.74465   0.63313   0.00000  Uiso   1.00
C158   C     0.96668   0.70707   0.68774   0.00000  Uiso   1.00
C159   C     0.22797   0.95269   0.49521   0.00000  Uiso   1.00
C160   C     0.26695   0.98444   0.41217   0.00000  Uiso   1.00
C161   C     0.26140   0.05652   0.36573   0.00000  Uiso   1.00
H162   H     0.11351   0.97639   0.65001   0.00000  Uiso   1.00
H163   H     0.23855   0.99247   0.71560   0.00000  Uiso   1.00
H164   H     0.94384   0.85389   0.73263   0.00000  Uiso   1.00
H165   H     0.14605   0.09364   0.51171   0.00000  Uiso   1.00
H166   H     0.39613   0.99315   0.77274   0.00000  Uiso   1.00
H167   H     0.77470   0.70094   0.80862   0.00000  Uiso   1.00
H168   H     0.20109   0.20650   0.34276   0.00000  Uiso   1.00
H169   H     0.25967   0.84435   0.52969   0.00000  Uiso   1.00
H170   H     0.39274   0.85320   0.58869   0.00000  Uiso   1.00
H171   H     0.09802   0.71461   0.60572   0.00000  Uiso   1.00
H172   H     0.30023   0.95436   0.38480   0.00000  Uiso   1.00
H173   H     0.52127   0.88010   0.66973   0.00000  Uiso   1.00
H174   H     0.89984   0.58789   0.70561   0.00000  Uiso   1.00
H175   H     0.32623   0.09345   0.23976   0.00000  Uiso   1.00
O176   O     0.54357   0.94480   0.76223   0.00000  Uiso   1.00
O177   O     0.72828   0.56144   0.80930   0.00000  Uiso   1.00
O178   O     0.28770   0.22473   0.19811   0.00000  Uiso   1.00
N179   N     0.40733   0.96534   0.74039   0.00000  Uiso   1.00
N180   N     0.82634   0.69214   0.77394   0.00000  Uiso   1.00
N181   N     0.22495   0.16479   0.33841   0.00000  Uiso   1.00
N182   N     0.47467   0.90452   0.68496   0.00000  Uiso   1.00
N183   N     0.89368   0.63131   0.71851   0.00000  Uiso   1.00
N184   N     0.29229   0.10396   0.28298   0.00000  Uiso   1.00
C185   C     0.20100   0.43202   0.94484   0.00000  Uiso   1.00
C186   C     0.29847   0.42233   0.93575   0.00000  Uiso   1.00
C187   C     0.30945   0.34964   0.96163   0.00000  Uiso   1.00
C188   C     0.40481   0.35359   0.94768   0.00000  Uiso   1.00
C189   C     0.54378   0.32730   0.93937   0.00000  Uiso   1.00
C190   C     0.21341   0.48856   0.85992   0.00000  Uiso   1.00
C191   C     0.15285   0.47156   0.82204   0.00000  Uiso   1.00
C192   C     0.17660   0.53126   0.74425   0.00000  Uiso   1.00
C193   C     0.18346   0.60781   0.61824   0.00000  Uiso   1.00
C194   C     0.19382   0.47855   0.99035   0.00000  Uiso   1.00
C195   C     0.11678   0.45314   0.06212   0.00000  Uiso   1.00
C196   C     0.12402   0.50442   0.09414   0.00000  Uiso   1.00
C197   C     0.10046   0.56542   0.17063   0.00000  Uiso   1.00
C198   C     0.35083   0.56829   0.87406   0.00000  Uiso   1.00
C199   C     0.37985   0.49635   0.89730   0.00000  Uiso   1.00
C200   C     0.47522   0.50041   0.88332   0.00000  Uiso   1.00
C201   C     0.48634   0.42774   0.90917   0.00000  Uiso   1.00
C202   C     0.29478   0.56258   0.82147   0.00000  Uiso   1.00
C203   C     0.31862   0.62232   0.74372   0.00000  Uiso   1.00
C204   C     0.25813   0.60541   0.70573   0.00000  Uiso   1.00
C205   C     0.27519   0.55257   0.95190   0.00000  Uiso   1.00
C206   C     0.28255   0.60390   0.98381   0.00000  Uiso   1.00
C207   C     0.20555   0.57857   0.05562   0.00000  Uiso   1.00
H208   H     0.13765   0.37440   0.97477   0.00000  Uiso   1.00
H209   H     0.24646   0.29238   0.99137   0.00000  Uiso   1.00
H210   H     0.08988   0.41427   0.85181   0.00000  Uiso   1.00
H211   H     0.05382   0.39586   0.09185   0.00000  Uiso   1.00
H212   H     0.40298   0.23409   0.99279   0.00000  Uiso   1.00
H213   H     0.07281   0.49112   0.69853   0.00000  Uiso   1.00
H214   H     0.99676   0.45229   0.20471   0.00000  Uiso   1.00
H215   H     0.41419   0.62592   0.84413   0.00000  Uiso   1.00
H216   H     0.53818   0.55770   0.85356   0.00000  Uiso   1.00
H217   H     0.38160   0.67960   0.71399   0.00000  Uiso   1.00
H218   H     0.34554   0.66118   0.95404   0.00000  Uiso   1.00
H219   H     0.63976   0.44943   0.88094   0.00000  Uiso   1.00
H220   H     0.30958   0.70647   0.58667   0.00000  Uiso   1.00
H221   H     0.23354   0.66763   0.09285   0.00000  Uiso   1.00
O222   O     0.59795   0.29235   0.94540   0.00000  Uiso   1.00
O223   O     0.16476   0.62957   0.55935   0.00000  Uiso   1.00
O224   O     0.06499   0.57862   0.22345   0.00000  Uiso   1.00
N225   N     0.44169   0.29413   0.96519   0.00000  Uiso   1.00
N226   N     0.13301   0.53444   0.69006   0.00000  Uiso   1.00
N227   N     0.06190   0.49814   0.16329   0.00000  Uiso   1.00
N228   N     0.56910   0.41001   0.90500   0.00000  Uiso   1.00
N229   N     0.26041   0.65031   0.62987   0.00000  Uiso   1.00
N230   N     0.18930   0.61401   0.10310   0.00000  Uiso   1.00
C231   C     0.76975   0.62379   0.43090   0.00000  Uiso   1.00
C232   C     0.87655   0.64226   0.42176   0.00000  Uiso   1.00
C233   C     0.95956   0.68876   0.34939   0.00000  Uiso   1.00
C234   C     0.05074   0.69852   0.35383   0.00000  Uiso   1.00
C235   C     0.21539   0.73262   0.32836   0.00000  Uiso   1.00
C236   C     0.72603   0.65239   0.48736   0.00000  Uiso   1.00
C237   C     0.68247   0.70741   0.47015   0.00000  Uiso   1.00
C238   C     0.64694   0.72569   0.52981   0.00000  Uiso   1.00
C239   C     0.57784   0.77549   0.60621   0.00000  Uiso   1.00
C240   C     0.71650   0.53192   0.47716   0.00000  Uiso   1.00
C241   C     0.66489   0.48565   0.45139   0.00000  Uiso   1.00
C242   C     0.62131   0.40249   0.50248   0.00000  Uiso   1.00
C243   C     0.53741   0.26524   0.56304   0.00000  Uiso   1.00
C244   C     0.78409   0.55841   0.56746   0.00000  Uiso   1.00
C245   C     0.88434   0.60674   0.49594   0.00000  Uiso   1.00
C246   C     0.97542   0.61642   0.50049   0.00000  Uiso   1.00
C247   C     0.05855   0.66293   0.42814   0.00000  Uiso   1.00
C248   C     0.73382   0.61688   0.56154   0.00000  Uiso   1.00
C249   C     0.69834   0.63507   0.62124   0.00000  Uiso   1.00
C250   C     0.65474   0.69011   0.60412   0.00000  Uiso   1.00
C251   C     0.72429   0.49641   0.55134   0.00000  Uiso   1.00
C252   C     0.68077   0.41331   0.60248   0.00000  Uiso   1.00
C253   C     0.62911   0.36691   0.57679   0.00000  Uiso   1.00
H254   H     0.76369   0.65144   0.37315   0.00000  Uiso   1.00
H255   H     0.95350   0.71625   0.29200   0.00000  Uiso   1.00
H256   H     0.67645   0.73488   0.41275   0.00000  Uiso   1.00
H257   H     0.65889   0.51315   0.39399   0.00000  Uiso   1.00
H258   H     0.16738   0.77245   0.23475   0.00000  Uiso   1.00
H259   H     0.58317   0.81173   0.48935   0.00000  Uiso   1.00
H260   H     0.54613   0.34417   0.44979   0.00000  Uiso   1.00
H261   H     0.79015   0.53075   0.62522   0.00000  Uiso   1.00
H262   H     0.98142   0.58893   0.55790   0.00000  Uiso   1.00
H263   H     0.70437   0.60757   0.67864   0.00000  Uiso   1.00
H264   H     0.68681   0.38584   0.65988   0.00000  Uiso   1.00
H265   H     0.19005   0.66912   0.45056   0.00000  Uiso   1.00
H266   H     0.60583   0.70840   0.70516   0.00000  Uiso   1.00
H267   H     0.56880   0.24084   0.66560   0.00000  Uiso   1.00
O268   O     0.30406   0.76126   0.29382   0.00000  Uiso   1.00
O269   O     0.53758   0.81278   0.62785   0.00000  Uiso   1.00
O270   O     0.48899   0.19935   0.57595   0.00000  Uiso   1.00
N271   N     0.14646   0.74014   0.29477   0.00000  Uiso   1.00
N272   N     0.60028   0.77687   0.53281   0.00000  Uiso   1.00
N273   N     0.56562   0.33974   0.49583   0.00000  Uiso   1.00
N274   N     0.15866   0.68453   0.41090   0.00000  Uiso   1.00
N275   N     0.61247   0.72127   0.64893   0.00000  Uiso   1.00
N276   N     0.57782   0.28414   0.61196   0.00000  Uiso   1.00
