data_job_02113
_audit_creation_date              2018-12-19
_audit_creation_method            'Materials Studio'
_symmetry_space_group_name_H-M    'P1'
_symmetry_Int_Tables_number       1
_symmetry_cell_setting            triclinic
loop_
_symmetry_equiv_pos_as_xyz
  x,y,z
_cell_length_a                    22.3845
_cell_length_b                    20.4680
_cell_length_c                    14.3507
_cell_angle_alpha                 90.0000
_cell_angle_beta                  149.4207
_cell_angle_gamma                 90.0000
loop_
_atom_site_label
_atom_site_type_symbol
_atom_site_fract_x
_atom_site_fract_y
_atom_site_fract_z
_atom_site_U_iso_or_equiv
_atom_site_adp_type
_atom_site_occupancy
C1     C     0.04620   0.32454   0.10755   0.00000  Uiso   1.00
C2     C     0.93422   0.36184   0.98094   0.00000  Uiso   1.00
C3     C     0.86203   0.39368   0.82069   0.00000  Uiso   1.00
C4     C     0.76365   0.42500   0.72420   0.00000  Uiso   1.00
C5     C     0.59363   0.48303   0.51826   0.00000  Uiso   1.00
C6     C     0.14334   0.35540   0.29641   0.00000  Uiso   1.00
C7     C     0.24698   0.38183   0.40141   0.00000  Uiso   1.00
C8     C     0.32464   0.40773   0.57049   0.00000  Uiso   1.00
C9     C     0.47932   0.45572   0.85438   0.00000  Uiso   1.00
C10    C     0.02928   0.25569   0.12317   0.00000  Uiso   1.00
C11    C     0.03706   0.19827   0.08256   0.00000  Uiso   1.00
C12    C     0.01873   0.14022   0.10583   0.00000  Uiso   1.00
C13    C     0.99632   0.03340   0.12073   0.00000  Uiso   1.00
C14    C     0.99984   0.32355   0.22114   0.00000  Uiso   1.00
C15    C     0.90904   0.36130   0.04264   0.00000  Uiso   1.00
C16    C     0.81074   0.39258   0.94636   0.00000  Uiso   1.00
C17    C     0.73842   0.42446   0.78600   0.00000  Uiso   1.00
C18    C     0.11816   0.35487   0.35811   0.00000  Uiso   1.00
C19    C     0.19568   0.38073   0.52708   0.00000  Uiso   1.00
C20    C     0.29941   0.40719   0.63230   0.00000  Uiso   1.00
C21    C     0.00410   0.25515   0.18486   0.00000  Uiso   1.00
C22    C     0.98576   0.19718   0.20822   0.00000  Uiso   1.00
C23    C     0.99350   0.13968   0.16764   0.00000  Uiso   1.00
H24    H     0.06581   0.32496   0.05953   0.00000  Uiso   1.00
H25    H     0.88156   0.39409   0.77300   0.00000  Uiso   1.00
H26    H     0.26645   0.38223   0.35363   0.00000  Uiso   1.00
H27    H     0.05655   0.19871   0.03481   0.00000  Uiso   1.00
H28    H     0.66620   0.47052   0.48257   0.00000  Uiso   1.00
H29    H     0.47777   0.44549   0.70689   0.00000  Uiso   1.00
H30    H     0.03518   0.05850   0.03461   0.00000  Uiso   1.00
H31    H     0.98023   0.32313   0.26918   0.00000  Uiso   1.00
H32    H     0.79127   0.39216   0.99414   0.00000  Uiso   1.00
H33    H     0.17617   0.38030   0.57478   0.00000  Uiso   1.00
H34    H     0.96627   0.19678   0.25597   0.00000  Uiso   1.00
H35    H     0.59292   0.46896   0.66207   0.00000  Uiso   1.00
H36    H     0.40451   0.44393   0.88640   0.00000  Uiso   1.00
H37    H     0.96190   0.05694   0.21411   0.00000  Uiso   1.00
O38    O     0.50682   0.51520   0.38764   0.00000  Uiso   1.00
O39    O     0.57159   0.48235   0.99391   0.00000  Uiso   1.00
O40    O     0.99090   0.97463   0.11189   0.00000  Uiso   1.00
N41    N     0.67487   0.46067   0.56254   0.00000  Uiso   1.00
N42    N     0.43364   0.43728   0.70720   0.00000  Uiso   1.00
N43    N     0.01988   0.07547   0.07872   0.00000  Uiso   1.00
N44    N     0.63544   0.45982   0.65912   0.00000  Uiso   1.00
N45    N     0.39421   0.43644   0.80378   0.00000  Uiso   1.00
N46    N     0.98045   0.07463   0.17530   0.00000  Uiso   1.00
C47    C     0.95380   0.82454   0.39245   0.00000  Uiso   1.00
C48    C     0.06578   0.86184   0.51906   0.00000  Uiso   1.00
C49    C     0.13797   0.89368   0.67931   0.00000  Uiso   1.00
C50    C     0.23635   0.92500   0.77580   0.00000  Uiso   1.00
C51    C     0.40637   0.98303   0.98174   0.00000  Uiso   1.00
C52    C     0.85666   0.85540   0.20359   0.00000  Uiso   1.00
C53    C     0.75302   0.88183   0.09859   0.00000  Uiso   1.00
C54    C     0.67536   0.90773   0.92951   0.00000  Uiso   1.00
C55    C     0.52068   0.95572   0.64562   0.00000  Uiso   1.00
C56    C     0.97072   0.75569   0.37683   0.00000  Uiso   1.00
C57    C     0.96294   0.69827   0.41744   0.00000  Uiso   1.00
C58    C     0.98127   0.64022   0.39417   0.00000  Uiso   1.00
C59    C     0.00368   0.53340   0.37927   0.00000  Uiso   1.00
C60    C     0.00016   0.82355   0.27886   0.00000  Uiso   1.00
C61    C     0.09096   0.86130   0.45736   0.00000  Uiso   1.00
C62    C     0.18926   0.89258   0.55364   0.00000  Uiso   1.00
C63    C     0.26158   0.92446   0.71400   0.00000  Uiso   1.00
C64    C     0.88184   0.85487   0.14189   0.00000  Uiso   1.00
C65    C     0.80432   0.88073   0.97292   0.00000  Uiso   1.00
C66    C     0.70059   0.90719   0.86770   0.00000  Uiso   1.00
C67    C     0.99590   0.75515   0.31514   0.00000  Uiso   1.00
C68    C     0.01424   0.69718   0.29178   0.00000  Uiso   1.00
C69    C     0.00650   0.63968   0.33236   0.00000  Uiso   1.00
H70    H     0.93419   0.82496   0.44047   0.00000  Uiso   1.00
H71    H     0.11844   0.89409   0.72700   0.00000  Uiso   1.00
H72    H     0.73355   0.88223   0.14637   0.00000  Uiso   1.00
H73    H     0.94345   0.69871   0.46519   0.00000  Uiso   1.00
H74    H     0.33380   0.97052   0.01743   0.00000  Uiso   1.00
H75    H     0.52223   0.94549   0.79311   0.00000  Uiso   1.00
H76    H     0.96482   0.55850   0.46539   0.00000  Uiso   1.00
H77    H     0.01977   0.82313   0.23082   0.00000  Uiso   1.00
H78    H     0.20873   0.89216   0.50586   0.00000  Uiso   1.00
H79    H     0.82383   0.88030   0.92522   0.00000  Uiso   1.00
H80    H     0.03373   0.69678   0.24403   0.00000  Uiso   1.00
H81    H     0.40708   0.96896   0.83793   0.00000  Uiso   1.00
H82    H     0.59549   0.94393   0.61360   0.00000  Uiso   1.00
H83    H     0.03810   0.55694   0.28589   0.00000  Uiso   1.00
O84    O     0.49318   0.01520   0.11236   0.00000  Uiso   1.00
O85    O     0.42841   0.98235   0.50609   0.00000  Uiso   1.00
O86    O     0.00910   0.47463   0.38811   0.00000  Uiso   1.00
N87    N     0.32513   0.96067   0.93746   0.00000  Uiso   1.00
N88    N     0.56636   0.93728   0.79280   0.00000  Uiso   1.00
N89    N     0.98012   0.57547   0.42128   0.00000  Uiso   1.00
N90    N     0.36456   0.95982   0.84088   0.00000  Uiso   1.00
N91    N     0.60579   0.93644   0.69622   0.00000  Uiso   1.00
N92    N     0.01955   0.57463   0.32470   0.00000  Uiso   1.00
C93    C     0.95380   0.67546   0.89245   0.00000  Uiso   1.00
C94    C     0.06578   0.63816   0.01906   0.00000  Uiso   1.00
C95    C     0.13797   0.60632   0.17931   0.00000  Uiso   1.00
C96    C     0.23635   0.57500   0.27580   0.00000  Uiso   1.00
C97    C     0.40637   0.51697   0.48174   0.00000  Uiso   1.00
C98    C     0.85666   0.64460   0.70359   0.00000  Uiso   1.00
C99    C     0.75302   0.61817   0.59859   0.00000  Uiso   1.00
C100   C     0.67536   0.59227   0.42951   0.00000  Uiso   1.00
C101   C     0.52068   0.54428   0.14562   0.00000  Uiso   1.00
C102   C     0.97072   0.74431   0.87683   0.00000  Uiso   1.00
C103   C     0.96294   0.80173   0.91744   0.00000  Uiso   1.00
C104   C     0.98127   0.85978   0.89417   0.00000  Uiso   1.00
C105   C     0.00368   0.96660   0.87927   0.00000  Uiso   1.00
C106   C     0.00016   0.67645   0.77886   0.00000  Uiso   1.00
C107   C     0.09096   0.63870   0.95736   0.00000  Uiso   1.00
C108   C     0.18926   0.60742   0.05364   0.00000  Uiso   1.00
C109   C     0.26158   0.57554   0.21400   0.00000  Uiso   1.00
C110   C     0.88184   0.64513   0.64189   0.00000  Uiso   1.00
C111   C     0.80432   0.61927   0.47292   0.00000  Uiso   1.00
C112   C     0.70059   0.59281   0.36770   0.00000  Uiso   1.00
C113   C     0.99590   0.74485   0.81514   0.00000  Uiso   1.00
C114   C     0.01424   0.80282   0.79178   0.00000  Uiso   1.00
C115   C     0.00650   0.86032   0.83236   0.00000  Uiso   1.00
H116   H     0.93419   0.67504   0.94047   0.00000  Uiso   1.00
H117   H     0.11844   0.60591   0.22700   0.00000  Uiso   1.00
H118   H     0.73355   0.61777   0.64637   0.00000  Uiso   1.00
H119   H     0.94345   0.80129   0.96519   0.00000  Uiso   1.00
H120   H     0.33380   0.52948   0.51743   0.00000  Uiso   1.00
H121   H     0.52223   0.55451   0.29311   0.00000  Uiso   1.00
H122   H     0.96482   0.94150   0.96539   0.00000  Uiso   1.00
H123   H     0.01977   0.67687   0.73082   0.00000  Uiso   1.00
H124   H     0.20873   0.60784   0.00586   0.00000  Uiso   1.00
H125   H     0.82383   0.61970   0.42522   0.00000  Uiso   1.00
H126   H     0.03373   0.80322   0.74403   0.00000  Uiso   1.00
H127   H     0.40708   0.53104   0.33793   0.00000  Uiso   1.00
H128   H     0.59549   0.55607   0.11360   0.00000  Uiso   1.00
H129   H     0.03810   0.94306   0.78589   0.00000  Uiso   1.00
O130   O     0.49318   0.48480   0.61236   0.00000  Uiso   1.00
O131   O     0.42841   0.51765   0.00609   0.00000  Uiso   1.00
O132   O     0.00910   0.02537   0.88811   0.00000  Uiso   1.00
N133   N     0.32513   0.53933   0.43746   0.00000  Uiso   1.00
N134   N     0.56636   0.56272   0.29280   0.00000  Uiso   1.00
N135   N     0.98012   0.92453   0.92128   0.00000  Uiso   1.00
N136   N     0.36456   0.54018   0.34088   0.00000  Uiso   1.00
N137   N     0.60579   0.56356   0.19622   0.00000  Uiso   1.00
N138   N     0.01955   0.92537   0.82470   0.00000  Uiso   1.00
C139   C     0.04620   0.17546   0.60755   0.00000  Uiso   1.00
C140   C     0.93422   0.13816   0.48094   0.00000  Uiso   1.00
C141   C     0.86203   0.10632   0.32069   0.00000  Uiso   1.00
C142   C     0.76365   0.07500   0.22420   0.00000  Uiso   1.00
C143   C     0.59363   0.01697   0.01826   0.00000  Uiso   1.00
C144   C     0.14334   0.14460   0.79641   0.00000  Uiso   1.00
C145   C     0.24698   0.11817   0.90141   0.00000  Uiso   1.00
C146   C     0.32464   0.09227   0.07049   0.00000  Uiso   1.00
C147   C     0.47932   0.04428   0.35438   0.00000  Uiso   1.00
C148   C     0.02928   0.24431   0.62317   0.00000  Uiso   1.00
C149   C     0.03706   0.30173   0.58256   0.00000  Uiso   1.00
C150   C     0.01873   0.35978   0.60583   0.00000  Uiso   1.00
C151   C     0.99632   0.46660   0.62073   0.00000  Uiso   1.00
C152   C     0.99984   0.17645   0.72114   0.00000  Uiso   1.00
C153   C     0.90904   0.13870   0.54264   0.00000  Uiso   1.00
C154   C     0.81074   0.10742   0.44636   0.00000  Uiso   1.00
C155   C     0.73842   0.07554   0.28600   0.00000  Uiso   1.00
C156   C     0.11816   0.14513   0.85811   0.00000  Uiso   1.00
C157   C     0.19568   0.11927   0.02708   0.00000  Uiso   1.00
C158   C     0.29941   0.09281   0.13230   0.00000  Uiso   1.00
C159   C     0.00410   0.24485   0.68486   0.00000  Uiso   1.00
C160   C     0.98576   0.30282   0.70822   0.00000  Uiso   1.00
C161   C     0.99350   0.36032   0.66764   0.00000  Uiso   1.00
H162   H     0.06581   0.17504   0.55953   0.00000  Uiso   1.00
H163   H     0.88156   0.10591   0.27300   0.00000  Uiso   1.00
H164   H     0.26645   0.11777   0.85363   0.00000  Uiso   1.00
H165   H     0.05655   0.30129   0.53481   0.00000  Uiso   1.00
H166   H     0.66620   0.02948   0.98257   0.00000  Uiso   1.00
H167   H     0.47777   0.05451   0.20689   0.00000  Uiso   1.00
H168   H     0.03518   0.44150   0.53461   0.00000  Uiso   1.00
H169   H     0.98023   0.17687   0.76918   0.00000  Uiso   1.00
H170   H     0.79127   0.10784   0.49414   0.00000  Uiso   1.00
H171   H     0.17617   0.11970   0.07478   0.00000  Uiso   1.00
H172   H     0.96627   0.30322   0.75597   0.00000  Uiso   1.00
H173   H     0.59292   0.03104   0.16207   0.00000  Uiso   1.00
H174   H     0.40451   0.05607   0.38640   0.00000  Uiso   1.00
H175   H     0.96190   0.44306   0.71411   0.00000  Uiso   1.00
O176   O     0.50682   0.98480   0.88764   0.00000  Uiso   1.00
O177   O     0.57159   0.01765   0.49391   0.00000  Uiso   1.00
O178   O     0.99090   0.52537   0.61189   0.00000  Uiso   1.00
N179   N     0.67487   0.03933   0.06254   0.00000  Uiso   1.00
N180   N     0.43364   0.06272   0.20720   0.00000  Uiso   1.00
N181   N     0.01988   0.42453   0.57872   0.00000  Uiso   1.00
N182   N     0.63544   0.04018   0.15912   0.00000  Uiso   1.00
N183   N     0.39421   0.06356   0.30378   0.00000  Uiso   1.00
N184   N     0.98045   0.42537   0.67530   0.00000  Uiso   1.00
