data_job_02080
_audit_creation_date              2018-12-19
_audit_creation_method            'Materials Studio'
_symmetry_space_group_name_H-M    'P1'
_symmetry_Int_Tables_number       1
_symmetry_cell_setting            triclinic
loop_
_symmetry_equiv_pos_as_xyz
  x,y,z
_cell_length_a                    12.6312
_cell_length_b                    12.6312
_cell_length_c                    41.7307
_cell_angle_alpha                 90.0000
_cell_angle_beta                  90.0000
_cell_angle_gamma                 90.0000
loop_
_atom_site_label
_atom_site_type_symbol
_atom_site_fract_x
_atom_site_fract_y
_atom_site_fract_z
_atom_site_U_iso_or_equiv
_atom_site_adp_type
_atom_site_occupancy
C1     C     0.46638   0.26255   0.33566   0.00000  Uiso   1.00
C2     C     0.49445   0.15309   0.32279   0.00000  Uiso   1.00
C3     C     0.42715   0.08690   0.30577   0.00000  Uiso   1.00
C4     C     0.46781   0.98990   0.29611   0.00000  Uiso   1.00
C5     C     0.49552   0.82443   0.27506   0.00000  Uiso   1.00
C6     C     0.48816   0.25882   0.37158   0.00000  Uiso   1.00
C7     C     0.41559   0.28153   0.39559   0.00000  Uiso   1.00
C8     C     0.45096   0.27354   0.42700   0.00000  Uiso   1.00
C9     C     0.46894   0.27229   0.48170   0.00000  Uiso   1.00
C10    C     0.54802   0.33834   0.32158   0.00000  Uiso   1.00
C11    C     0.52578   0.42794   0.30355   0.00000  Uiso   1.00
C12    C     0.61156   0.48692   0.29286   0.00000  Uiso   1.00
C13    C     0.72247   0.60915   0.26992   0.00000  Uiso   1.00
C14    C     0.65826   0.20799   0.34876   0.00000  Uiso   1.00
C15    C     0.59867   0.12346   0.32991   0.00000  Uiso   1.00
C16    C     0.63944   0.02654   0.32026   0.00000  Uiso   1.00
C17    C     0.57222   0.96021   0.30323   0.00000  Uiso   1.00
C18    C     0.59238   0.22918   0.37870   0.00000  Uiso   1.00
C19    C     0.62788   0.22117   0.41008   0.00000  Uiso   1.00
C20    C     0.55537   0.24386   0.43412   0.00000  Uiso   1.00
C21    C     0.65224   0.30871   0.32869   0.00000  Uiso   1.00
C22    C     0.73807   0.36757   0.31803   0.00000  Uiso   1.00
C23    C     0.71596   0.45724   0.29999   0.00000  Uiso   1.00
H24    H     0.38524   0.28562   0.33012   0.00000  Uiso   1.00
H25    H     0.34650   0.10985   0.30028   0.00000  Uiso   1.00
H26    H     0.33494   0.30447   0.39008   0.00000  Uiso   1.00
H27    H     0.44512   0.45085   0.29805   0.00000  Uiso   1.00
H28    H     0.34950   0.90190   0.27033   0.00000  Uiso   1.00
H29    H     0.32514   0.31229   0.45968   0.00000  Uiso   1.00
H30    H     0.55746   0.62097   0.26562   0.00000  Uiso   1.00
H31    H     0.73940   0.18492   0.35429   0.00000  Uiso   1.00
H32    H     0.72010   0.00363   0.32577   0.00000  Uiso   1.00
H33    H     0.70854   0.19824   0.41557   0.00000  Uiso   1.00
H34    H     0.81871   0.34462   0.32354   0.00000  Uiso   1.00
H35    H     0.65272   0.81569   0.29103   0.00000  Uiso   1.00
H36    H     0.62836   0.22608   0.48038   0.00000  Uiso   1.00
H37    H     0.86069   0.53475   0.28631   0.00000  Uiso   1.00
O38    O     0.48201   0.74134   0.26149   0.00000  Uiso   1.00
O39    O     0.45005   0.27977   0.50991   0.00000  Uiso   1.00
O40    O     0.75486   0.68474   0.25530   0.00000  Uiso   1.00
N41    N     0.42352   0.90650   0.27911   0.00000  Uiso   1.00
N42    N     0.40074   0.29017   0.45614   0.00000  Uiso   1.00
N43    N     0.61794   0.57877   0.27472   0.00000  Uiso   1.00
N44    N     0.58668   0.86011   0.29025   0.00000  Uiso   1.00
N45    N     0.56390   0.24378   0.46728   0.00000  Uiso   1.00
N46    N     0.78110   0.53238   0.28585   0.00000  Uiso   1.00
C47    C     0.53362   0.73745   0.83566   0.00000  Uiso   1.00
C48    C     0.50555   0.84691   0.82279   0.00000  Uiso   1.00
C49    C     0.57285   0.91310   0.80577   0.00000  Uiso   1.00
C50    C     0.53219   0.01010   0.79611   0.00000  Uiso   1.00
C51    C     0.50448   0.17557   0.77506   0.00000  Uiso   1.00
C52    C     0.51184   0.74118   0.87158   0.00000  Uiso   1.00
C53    C     0.58441   0.71847   0.89559   0.00000  Uiso   1.00
C54    C     0.54904   0.72646   0.92700   0.00000  Uiso   1.00
C55    C     0.53106   0.72771   0.98170   0.00000  Uiso   1.00
C56    C     0.45198   0.66166   0.82158   0.00000  Uiso   1.00
C57    C     0.47422   0.57206   0.80355   0.00000  Uiso   1.00
C58    C     0.38844   0.51308   0.79286   0.00000  Uiso   1.00
C59    C     0.27753   0.39085   0.76992   0.00000  Uiso   1.00
C60    C     0.34174   0.79201   0.84876   0.00000  Uiso   1.00
C61    C     0.40133   0.87654   0.82991   0.00000  Uiso   1.00
C62    C     0.36056   0.97346   0.82026   0.00000  Uiso   1.00
C63    C     0.42778   0.03979   0.80323   0.00000  Uiso   1.00
C64    C     0.40762   0.77082   0.87870   0.00000  Uiso   1.00
C65    C     0.37212   0.77883   0.91008   0.00000  Uiso   1.00
C66    C     0.44463   0.75614   0.93412   0.00000  Uiso   1.00
C67    C     0.34776   0.69129   0.82869   0.00000  Uiso   1.00
C68    C     0.26193   0.63243   0.81803   0.00000  Uiso   1.00
C69    C     0.28404   0.54276   0.79999   0.00000  Uiso   1.00
H70    H     0.61476   0.71438   0.83012   0.00000  Uiso   1.00
H71    H     0.65350   0.89015   0.80028   0.00000  Uiso   1.00
H72    H     0.66506   0.69553   0.89008   0.00000  Uiso   1.00
H73    H     0.55488   0.54915   0.79805   0.00000  Uiso   1.00
H74    H     0.65050   0.09810   0.77033   0.00000  Uiso   1.00
H75    H     0.67486   0.68771   0.95968   0.00000  Uiso   1.00
H76    H     0.44254   0.37903   0.76562   0.00000  Uiso   1.00
H77    H     0.26060   0.81508   0.85429   0.00000  Uiso   1.00
H78    H     0.27990   0.99637   0.82577   0.00000  Uiso   1.00
H79    H     0.29146   0.80176   0.91557   0.00000  Uiso   1.00
H80    H     0.18129   0.65538   0.82354   0.00000  Uiso   1.00
H81    H     0.34728   0.18431   0.79103   0.00000  Uiso   1.00
H82    H     0.37164   0.77392   0.98038   0.00000  Uiso   1.00
H83    H     0.13931   0.46525   0.78631   0.00000  Uiso   1.00
O84    O     0.51799   0.25866   0.76149   0.00000  Uiso   1.00
O85    O     0.54995   0.72023   0.00991   0.00000  Uiso   1.00
O86    O     0.24514   0.31526   0.75530   0.00000  Uiso   1.00
N87    N     0.57648   0.09350   0.77911   0.00000  Uiso   1.00
N88    N     0.59926   0.70983   0.95614   0.00000  Uiso   1.00
N89    N     0.38206   0.42123   0.77472   0.00000  Uiso   1.00
N90    N     0.41332   0.13989   0.79025   0.00000  Uiso   1.00
N91    N     0.43610   0.75622   0.96728   0.00000  Uiso   1.00
N92    N     0.21890   0.46762   0.78585   0.00000  Uiso   1.00
C93    C     0.23745   0.96638   0.08566   0.00000  Uiso   1.00
C94    C     0.34691   0.99445   0.07279   0.00000  Uiso   1.00
C95    C     0.41310   0.92715   0.05577   0.00000  Uiso   1.00
C96    C     0.51010   0.96781   0.04611   0.00000  Uiso   1.00
C97    C     0.67557   0.99552   0.02506   0.00000  Uiso   1.00
C98    C     0.24118   0.98816   0.12158   0.00000  Uiso   1.00
C99    C     0.21847   0.91559   0.14559   0.00000  Uiso   1.00
C100   C     0.22646   0.95096   0.17700   0.00000  Uiso   1.00
C101   C     0.22771   0.96894   0.23170   0.00000  Uiso   1.00
C102   C     0.16166   0.04802   0.07158   0.00000  Uiso   1.00
C103   C     0.07206   0.02578   0.05355   0.00000  Uiso   1.00
C104   C     0.01308   0.11156   0.04286   0.00000  Uiso   1.00
C105   C     0.89085   0.22247   0.01992   0.00000  Uiso   1.00
C106   C     0.29201   0.15826   0.09876   0.00000  Uiso   1.00
C107   C     0.37654   0.09867   0.07991   0.00000  Uiso   1.00
C108   C     0.47346   0.13944   0.07026   0.00000  Uiso   1.00
C109   C     0.53979   0.07222   0.05323   0.00000  Uiso   1.00
C110   C     0.27082   0.09238   0.12870   0.00000  Uiso   1.00
C111   C     0.27883   0.12788   0.16008   0.00000  Uiso   1.00
C112   C     0.25614   0.05537   0.18412   0.00000  Uiso   1.00
C113   C     0.19129   0.15224   0.07869   0.00000  Uiso   1.00
C114   C     0.13243   0.23807   0.06803   0.00000  Uiso   1.00
C115   C     0.04276   0.21596   0.04999   0.00000  Uiso   1.00
H116   H     0.21438   0.88524   0.08012   0.00000  Uiso   1.00
H117   H     0.39015   0.84650   0.05028   0.00000  Uiso   1.00
H118   H     0.19553   0.83494   0.14008   0.00000  Uiso   1.00
H119   H     0.04915   0.94512   0.04805   0.00000  Uiso   1.00
H120   H     0.59810   0.84950   0.02033   0.00000  Uiso   1.00
H121   H     0.18771   0.82514   0.20968   0.00000  Uiso   1.00
H122   H     0.87903   0.05746   0.01562   0.00000  Uiso   1.00
H123   H     0.31508   0.23940   0.10429   0.00000  Uiso   1.00
H124   H     0.49637   0.22010   0.07577   0.00000  Uiso   1.00
H125   H     0.30176   0.20854   0.16557   0.00000  Uiso   1.00
H126   H     0.15538   0.31871   0.07354   0.00000  Uiso   1.00
H127   H     0.68431   0.15272   0.04103   0.00000  Uiso   1.00
H128   H     0.27392   0.12836   0.23038   0.00000  Uiso   1.00
H129   H     0.96525   0.36069   0.03631   0.00000  Uiso   1.00
O130   O     0.75866   0.98201   0.01149   0.00000  Uiso   1.00
O131   O     0.22023   0.95005   0.25991   0.00000  Uiso   1.00
O132   O     0.81526   0.25486   0.00530   0.00000  Uiso   1.00
N133   N     0.59350   0.92352   0.02911   0.00000  Uiso   1.00
N134   N     0.20983   0.90074   0.20614   0.00000  Uiso   1.00
N135   N     0.92123   0.11794   0.02472   0.00000  Uiso   1.00
N136   N     0.63989   0.08668   0.04025   0.00000  Uiso   1.00
N137   N     0.25622   0.06390   0.21728   0.00000  Uiso   1.00
N138   N     0.96762   0.28110   0.03585   0.00000  Uiso   1.00
C139   C     0.76255   0.03362   0.58566   0.00000  Uiso   1.00
C140   C     0.65309   0.00555   0.57279   0.00000  Uiso   1.00
C141   C     0.58690   0.07285   0.55577   0.00000  Uiso   1.00
C142   C     0.48990   0.03219   0.54611   0.00000  Uiso   1.00
C143   C     0.32443   0.00448   0.52506   0.00000  Uiso   1.00
C144   C     0.75882   0.01184   0.62158   0.00000  Uiso   1.00
C145   C     0.78153   0.08441   0.64559   0.00000  Uiso   1.00
C146   C     0.77354   0.04904   0.67700   0.00000  Uiso   1.00
C147   C     0.77229   0.03106   0.73170   0.00000  Uiso   1.00
C148   C     0.83834   0.95198   0.57158   0.00000  Uiso   1.00
C149   C     0.92794   0.97422   0.55355   0.00000  Uiso   1.00
C150   C     0.98692   0.88844   0.54286   0.00000  Uiso   1.00
C151   C     0.10915   0.77753   0.51992   0.00000  Uiso   1.00
C152   C     0.70799   0.84174   0.59876   0.00000  Uiso   1.00
C153   C     0.62346   0.90133   0.57991   0.00000  Uiso   1.00
C154   C     0.52654   0.86056   0.57026   0.00000  Uiso   1.00
C155   C     0.46021   0.92778   0.55323   0.00000  Uiso   1.00
C156   C     0.72918   0.90762   0.62870   0.00000  Uiso   1.00
C157   C     0.72117   0.87212   0.66008   0.00000  Uiso   1.00
C158   C     0.74386   0.94463   0.68412   0.00000  Uiso   1.00
C159   C     0.80871   0.84776   0.57869   0.00000  Uiso   1.00
C160   C     0.86757   0.76193   0.56803   0.00000  Uiso   1.00
C161   C     0.95724   0.78404   0.54999   0.00000  Uiso   1.00
H162   H     0.78562   0.11476   0.58012   0.00000  Uiso   1.00
H163   H     0.60985   0.15350   0.55028   0.00000  Uiso   1.00
H164   H     0.80447   0.16506   0.64008   0.00000  Uiso   1.00
H165   H     0.95085   0.05488   0.54805   0.00000  Uiso   1.00
H166   H     0.40190   0.15050   0.52033   0.00000  Uiso   1.00
H167   H     0.81229   0.17486   0.70968   0.00000  Uiso   1.00
H168   H     0.12097   0.94254   0.51562   0.00000  Uiso   1.00
H169   H     0.68492   0.76060   0.60429   0.00000  Uiso   1.00
H170   H     0.50363   0.77990   0.57577   0.00000  Uiso   1.00
H171   H     0.69824   0.79146   0.66557   0.00000  Uiso   1.00
H172   H     0.84462   0.68129   0.57354   0.00000  Uiso   1.00
H173   H     0.31569   0.84728   0.54103   0.00000  Uiso   1.00
H174   H     0.72608   0.87164   0.73038   0.00000  Uiso   1.00
H175   H     0.03475   0.63931   0.53631   0.00000  Uiso   1.00
O176   O     0.24134   0.01799   0.51149   0.00000  Uiso   1.00
O177   O     0.77977   0.04995   0.75991   0.00000  Uiso   1.00
O178   O     0.18474   0.74514   0.50530   0.00000  Uiso   1.00
N179   N     0.40650   0.07648   0.52911   0.00000  Uiso   1.00
N180   N     0.79017   0.09926   0.70614   0.00000  Uiso   1.00
N181   N     0.07877   0.88206   0.52472   0.00000  Uiso   1.00
N182   N     0.36011   0.91332   0.54025   0.00000  Uiso   1.00
N183   N     0.74378   0.93610   0.71728   0.00000  Uiso   1.00
N184   N     0.03238   0.71890   0.53585   0.00000  Uiso   1.00
C185   C     0.03362   0.76255   0.41434   0.00000  Uiso   1.00
C186   C     0.00555   0.65309   0.42721   0.00000  Uiso   1.00
C187   C     0.07285   0.58690   0.44423   0.00000  Uiso   1.00
C188   C     0.03219   0.48990   0.45389   0.00000  Uiso   1.00
C189   C     0.00448   0.32443   0.47494   0.00000  Uiso   1.00
C190   C     0.01184   0.75882   0.37842   0.00000  Uiso   1.00
C191   C     0.08441   0.78153   0.35441   0.00000  Uiso   1.00
C192   C     0.04904   0.77354   0.32300   0.00000  Uiso   1.00
C193   C     0.03106   0.77229   0.26830   0.00000  Uiso   1.00
C194   C     0.95198   0.83834   0.42842   0.00000  Uiso   1.00
C195   C     0.97422   0.92794   0.44645   0.00000  Uiso   1.00
C196   C     0.88844   0.98692   0.45714   0.00000  Uiso   1.00
C197   C     0.77753   0.10915   0.48008   0.00000  Uiso   1.00
C198   C     0.84174   0.70799   0.40124   0.00000  Uiso   1.00
C199   C     0.90133   0.62346   0.42009   0.00000  Uiso   1.00
C200   C     0.86056   0.52654   0.42974   0.00000  Uiso   1.00
C201   C     0.92778   0.46021   0.44677   0.00000  Uiso   1.00
C202   C     0.90762   0.72918   0.37130   0.00000  Uiso   1.00
C203   C     0.87212   0.72117   0.33992   0.00000  Uiso   1.00
C204   C     0.94463   0.74386   0.31588   0.00000  Uiso   1.00
C205   C     0.84776   0.80871   0.42131   0.00000  Uiso   1.00
C206   C     0.76193   0.86757   0.43197   0.00000  Uiso   1.00
C207   C     0.78404   0.95724   0.45001   0.00000  Uiso   1.00
H208   H     0.11476   0.78562   0.41988   0.00000  Uiso   1.00
H209   H     0.15350   0.60985   0.44972   0.00000  Uiso   1.00
H210   H     0.16506   0.80447   0.35992   0.00000  Uiso   1.00
H211   H     0.05488   0.95085   0.45195   0.00000  Uiso   1.00
H212   H     0.15050   0.40190   0.47967   0.00000  Uiso   1.00
H213   H     0.17486   0.81229   0.29032   0.00000  Uiso   1.00
H214   H     0.94254   0.12097   0.48438   0.00000  Uiso   1.00
H215   H     0.76060   0.68492   0.39571   0.00000  Uiso   1.00
H216   H     0.77990   0.50363   0.42423   0.00000  Uiso   1.00
H217   H     0.79146   0.69824   0.33443   0.00000  Uiso   1.00
H218   H     0.68129   0.84462   0.42646   0.00000  Uiso   1.00
H219   H     0.84728   0.31569   0.45897   0.00000  Uiso   1.00
H220   H     0.87164   0.72608   0.26962   0.00000  Uiso   1.00
H221   H     0.63931   0.03475   0.46369   0.00000  Uiso   1.00
O222   O     0.01799   0.24134   0.48851   0.00000  Uiso   1.00
O223   O     0.04995   0.77977   0.24009   0.00000  Uiso   1.00
O224   O     0.74514   0.18474   0.49470   0.00000  Uiso   1.00
N225   N     0.07648   0.40650   0.47089   0.00000  Uiso   1.00
N226   N     0.09926   0.79017   0.29386   0.00000  Uiso   1.00
N227   N     0.88206   0.07877   0.47528   0.00000  Uiso   1.00
N228   N     0.91332   0.36011   0.45975   0.00000  Uiso   1.00
N229   N     0.93610   0.74378   0.28272   0.00000  Uiso   1.00
N230   N     0.71890   0.03238   0.46415   0.00000  Uiso   1.00
C231   C     0.96638   0.23745   0.91434   0.00000  Uiso   1.00
C232   C     0.99445   0.34691   0.92721   0.00000  Uiso   1.00
C233   C     0.92715   0.41310   0.94423   0.00000  Uiso   1.00
C234   C     0.96781   0.51010   0.95389   0.00000  Uiso   1.00
C235   C     0.99552   0.67557   0.97494   0.00000  Uiso   1.00
C236   C     0.98816   0.24118   0.87842   0.00000  Uiso   1.00
C237   C     0.91559   0.21847   0.85441   0.00000  Uiso   1.00
C238   C     0.95096   0.22646   0.82300   0.00000  Uiso   1.00
C239   C     0.96894   0.22771   0.76830   0.00000  Uiso   1.00
C240   C     0.04802   0.16166   0.92842   0.00000  Uiso   1.00
C241   C     0.02578   0.07206   0.94645   0.00000  Uiso   1.00
C242   C     0.11156   0.01308   0.95714   0.00000  Uiso   1.00
C243   C     0.22247   0.89085   0.98008   0.00000  Uiso   1.00
C244   C     0.15826   0.29201   0.90124   0.00000  Uiso   1.00
C245   C     0.09867   0.37654   0.92009   0.00000  Uiso   1.00
C246   C     0.13944   0.47346   0.92974   0.00000  Uiso   1.00
C247   C     0.07222   0.53979   0.94677   0.00000  Uiso   1.00
C248   C     0.09238   0.27082   0.87130   0.00000  Uiso   1.00
C249   C     0.12788   0.27883   0.83992   0.00000  Uiso   1.00
C250   C     0.05537   0.25614   0.81588   0.00000  Uiso   1.00
C251   C     0.15224   0.19129   0.92131   0.00000  Uiso   1.00
C252   C     0.23807   0.13243   0.93197   0.00000  Uiso   1.00
C253   C     0.21596   0.04276   0.95001   0.00000  Uiso   1.00
H254   H     0.88524   0.21438   0.91988   0.00000  Uiso   1.00
H255   H     0.84650   0.39015   0.94972   0.00000  Uiso   1.00
H256   H     0.83494   0.19553   0.85992   0.00000  Uiso   1.00
H257   H     0.94512   0.04915   0.95195   0.00000  Uiso   1.00
H258   H     0.84950   0.59810   0.97967   0.00000  Uiso   1.00
H259   H     0.82514   0.18771   0.79032   0.00000  Uiso   1.00
H260   H     0.05746   0.87903   0.98438   0.00000  Uiso   1.00
H261   H     0.23940   0.31508   0.89571   0.00000  Uiso   1.00
H262   H     0.22010   0.49637   0.92423   0.00000  Uiso   1.00
H263   H     0.20854   0.30176   0.83443   0.00000  Uiso   1.00
H264   H     0.31871   0.15538   0.92646   0.00000  Uiso   1.00
H265   H     0.15272   0.68431   0.95897   0.00000  Uiso   1.00
H266   H     0.12836   0.27392   0.76962   0.00000  Uiso   1.00
H267   H     0.36069   0.96525   0.96369   0.00000  Uiso   1.00
O268   O     0.98201   0.75866   0.98851   0.00000  Uiso   1.00
O269   O     0.95005   0.22023   0.74009   0.00000  Uiso   1.00
O270   O     0.25486   0.81526   0.99470   0.00000  Uiso   1.00
N271   N     0.92352   0.59350   0.97089   0.00000  Uiso   1.00
N272   N     0.90074   0.20983   0.79386   0.00000  Uiso   1.00
N273   N     0.11794   0.92123   0.97528   0.00000  Uiso   1.00
N274   N     0.08668   0.63989   0.95975   0.00000  Uiso   1.00
N275   N     0.06390   0.25622   0.78272   0.00000  Uiso   1.00
N276   N     0.28110   0.96762   0.96415   0.00000  Uiso   1.00
C277   C     0.26255   0.46638   0.66434   0.00000  Uiso   1.00
C278   C     0.15309   0.49445   0.67721   0.00000  Uiso   1.00
C279   C     0.08690   0.42715   0.69423   0.00000  Uiso   1.00
C280   C     0.98990   0.46781   0.70389   0.00000  Uiso   1.00
C281   C     0.82443   0.49552   0.72494   0.00000  Uiso   1.00
C282   C     0.25882   0.48816   0.62842   0.00000  Uiso   1.00
C283   C     0.28153   0.41559   0.60441   0.00000  Uiso   1.00
C284   C     0.27354   0.45096   0.57300   0.00000  Uiso   1.00
C285   C     0.27229   0.46894   0.51830   0.00000  Uiso   1.00
C286   C     0.33834   0.54802   0.67842   0.00000  Uiso   1.00
C287   C     0.42794   0.52578   0.69645   0.00000  Uiso   1.00
C288   C     0.48692   0.61156   0.70714   0.00000  Uiso   1.00
C289   C     0.60915   0.72247   0.73008   0.00000  Uiso   1.00
C290   C     0.20799   0.65826   0.65124   0.00000  Uiso   1.00
C291   C     0.12346   0.59867   0.67009   0.00000  Uiso   1.00
C292   C     0.02654   0.63944   0.67974   0.00000  Uiso   1.00
C293   C     0.96021   0.57222   0.69677   0.00000  Uiso   1.00
C294   C     0.22918   0.59238   0.62130   0.00000  Uiso   1.00
C295   C     0.22117   0.62788   0.58992   0.00000  Uiso   1.00
C296   C     0.24386   0.55537   0.56588   0.00000  Uiso   1.00
C297   C     0.30871   0.65224   0.67131   0.00000  Uiso   1.00
C298   C     0.36757   0.73807   0.68197   0.00000  Uiso   1.00
C299   C     0.45724   0.71596   0.70001   0.00000  Uiso   1.00
H300   H     0.28562   0.38524   0.66988   0.00000  Uiso   1.00
H301   H     0.10985   0.34650   0.69972   0.00000  Uiso   1.00
H302   H     0.30447   0.33494   0.60992   0.00000  Uiso   1.00
H303   H     0.45085   0.44512   0.70195   0.00000  Uiso   1.00
H304   H     0.90190   0.34950   0.72967   0.00000  Uiso   1.00
H305   H     0.31229   0.32514   0.54032   0.00000  Uiso   1.00
H306   H     0.62097   0.55746   0.73438   0.00000  Uiso   1.00
H307   H     0.18492   0.73940   0.64571   0.00000  Uiso   1.00
H308   H     0.00363   0.72010   0.67423   0.00000  Uiso   1.00
H309   H     0.19824   0.70854   0.58443   0.00000  Uiso   1.00
H310   H     0.34462   0.81871   0.67646   0.00000  Uiso   1.00
H311   H     0.81569   0.65272   0.70897   0.00000  Uiso   1.00
H312   H     0.22608   0.62836   0.51962   0.00000  Uiso   1.00
H313   H     0.53475   0.86069   0.71369   0.00000  Uiso   1.00
O314   O     0.74134   0.48201   0.73851   0.00000  Uiso   1.00
O315   O     0.27977   0.45005   0.49009   0.00000  Uiso   1.00
O316   O     0.68474   0.75486   0.74470   0.00000  Uiso   1.00
N317   N     0.90650   0.42352   0.72089   0.00000  Uiso   1.00
N318   N     0.29017   0.40074   0.54386   0.00000  Uiso   1.00
N319   N     0.57877   0.61794   0.72528   0.00000  Uiso   1.00
N320   N     0.86011   0.58668   0.70975   0.00000  Uiso   1.00
N321   N     0.24378   0.56390   0.53272   0.00000  Uiso   1.00
N322   N     0.53238   0.78110   0.71415   0.00000  Uiso   1.00
C323   C     0.73745   0.53362   0.16434   0.00000  Uiso   1.00
C324   C     0.84691   0.50555   0.17721   0.00000  Uiso   1.00
C325   C     0.91310   0.57285   0.19423   0.00000  Uiso   1.00
C326   C     0.01010   0.53219   0.20389   0.00000  Uiso   1.00
C327   C     0.17557   0.50448   0.22494   0.00000  Uiso   1.00
C328   C     0.74118   0.51184   0.12842   0.00000  Uiso   1.00
C329   C     0.71847   0.58441   0.10441   0.00000  Uiso   1.00
C330   C     0.72646   0.54904   0.07300   0.00000  Uiso   1.00
C331   C     0.72771   0.53106   0.01830   0.00000  Uiso   1.00
C332   C     0.66166   0.45198   0.17842   0.00000  Uiso   1.00
C333   C     0.57206   0.47422   0.19645   0.00000  Uiso   1.00
C334   C     0.51308   0.38844   0.20714   0.00000  Uiso   1.00
C335   C     0.39085   0.27753   0.23008   0.00000  Uiso   1.00
C336   C     0.79201   0.34174   0.15124   0.00000  Uiso   1.00
C337   C     0.87654   0.40133   0.17009   0.00000  Uiso   1.00
C338   C     0.97346   0.36056   0.17974   0.00000  Uiso   1.00
C339   C     0.03979   0.42778   0.19677   0.00000  Uiso   1.00
C340   C     0.77082   0.40762   0.12130   0.00000  Uiso   1.00
C341   C     0.77883   0.37212   0.08992   0.00000  Uiso   1.00
C342   C     0.75614   0.44463   0.06588   0.00000  Uiso   1.00
C343   C     0.69129   0.34776   0.17131   0.00000  Uiso   1.00
C344   C     0.63243   0.26193   0.18197   0.00000  Uiso   1.00
C345   C     0.54276   0.28404   0.20001   0.00000  Uiso   1.00
H346   H     0.71438   0.61476   0.16988   0.00000  Uiso   1.00
H347   H     0.89015   0.65350   0.19972   0.00000  Uiso   1.00
H348   H     0.69553   0.66506   0.10992   0.00000  Uiso   1.00
H349   H     0.54915   0.55488   0.20195   0.00000  Uiso   1.00
H350   H     0.09810   0.65050   0.22967   0.00000  Uiso   1.00
H351   H     0.68771   0.67486   0.04032   0.00000  Uiso   1.00
H352   H     0.37903   0.44254   0.23438   0.00000  Uiso   1.00
H353   H     0.81508   0.26060   0.14571   0.00000  Uiso   1.00
H354   H     0.99637   0.27990   0.17423   0.00000  Uiso   1.00
H355   H     0.80176   0.29146   0.08443   0.00000  Uiso   1.00
H356   H     0.65538   0.18129   0.17646   0.00000  Uiso   1.00
H357   H     0.18431   0.34728   0.20897   0.00000  Uiso   1.00
H358   H     0.77392   0.37164   0.01962   0.00000  Uiso   1.00
H359   H     0.46525   0.13931   0.21369   0.00000  Uiso   1.00
O360   O     0.25866   0.51799   0.23851   0.00000  Uiso   1.00
O361   O     0.72023   0.54995   0.99009   0.00000  Uiso   1.00
O362   O     0.31526   0.24514   0.24470   0.00000  Uiso   1.00
N363   N     0.09350   0.57648   0.22089   0.00000  Uiso   1.00
N364   N     0.70983   0.59926   0.04386   0.00000  Uiso   1.00
N365   N     0.42123   0.38206   0.22528   0.00000  Uiso   1.00
N366   N     0.13989   0.41332   0.20975   0.00000  Uiso   1.00
N367   N     0.75622   0.43610   0.03272   0.00000  Uiso   1.00
N368   N     0.46762   0.21890   0.21415   0.00000  Uiso   1.00
