data_job_04144
_audit_creation_date              2018-12-19
_audit_creation_method            'Materials Studio'
_symmetry_space_group_name_H-M    'P1'
_symmetry_Int_Tables_number       1
_symmetry_cell_setting            triclinic
loop_
_symmetry_equiv_pos_as_xyz
  x,y,z
_cell_length_a                    10.3949
_cell_length_b                    17.3008
_cell_length_c                    16.4584
_cell_angle_alpha                 90.0000
_cell_angle_beta                  104.8430
_cell_angle_gamma                 90.0000
loop_
_atom_site_label
_atom_site_type_symbol
_atom_site_fract_x
_atom_site_fract_y
_atom_site_fract_z
_atom_site_U_iso_or_equiv
_atom_site_adp_type
_atom_site_occupancy
C1     C     0.76935   0.73702   0.58622   0.00000  Uiso   1.00
C2     C     0.82635   0.77277   0.67265   0.00000  Uiso   1.00
C3     C     0.95989   0.78769   0.70897   0.00000  Uiso   1.00
C4     C     0.99183   0.82062   0.78856   0.00000  Uiso   1.00
C5     C     0.09528   0.87346   0.91644   0.00000  Uiso   1.00
C6     C     0.69152   0.66588   0.60074   0.00000  Uiso   1.00
C7     C     0.71169   0.59093   0.57658   0.00000  Uiso   1.00
C8     C     0.63011   0.53388   0.59562   0.00000  Uiso   1.00
C9     C     0.52416   0.42078   0.61180   0.00000  Uiso   1.00
C10    C     0.66632   0.79428   0.53787   0.00000  Uiso   1.00
C11    C     0.66527   0.82728   0.46085   0.00000  Uiso   1.00
C12    C     0.56245   0.87832   0.42695   0.00000  Uiso   1.00
C13    C     0.41738   0.96458   0.34552   0.00000  Uiso   1.00
C14    C     0.58859   0.76896   0.66297   0.00000  Uiso   1.00
C15    C     0.72816   0.79012   0.71434   0.00000  Uiso   1.00
C16    C     0.75990   0.82304   0.79389   0.00000  Uiso   1.00
C17    C     0.89347   0.83801   0.83032   0.00000  Uiso   1.00
C18    C     0.59334   0.68323   0.64242   0.00000  Uiso   1.00
C19    C     0.51170   0.62627   0.66150   0.00000  Uiso   1.00
C20    C     0.53175   0.55126   0.63738   0.00000  Uiso   1.00
C21    C     0.56813   0.81163   0.57956   0.00000  Uiso   1.00
C22    C     0.46529   0.86263   0.54577   0.00000  Uiso   1.00
C23    C     0.46409   0.89570   0.46871   0.00000  Uiso   1.00
H24    H     0.84579   0.72350   0.55377   0.00000  Uiso   1.00
H25    H     0.03585   0.77425   0.67669   0.00000  Uiso   1.00
H26    H     0.78767   0.57752   0.54432   0.00000  Uiso   1.00
H27    H     0.74127   0.81384   0.42861   0.00000  Uiso   1.00
H28    H     0.20327   0.83814   0.83138   0.00000  Uiso   1.00
H29    H     0.67995   0.42333   0.55223   0.00000  Uiso   1.00
H30    H     0.58210   0.92164   0.30823   0.00000  Uiso   1.00
H31    H     0.51215   0.78247   0.69542   0.00000  Uiso   1.00
H32    H     0.68390   0.83646   0.82613   0.00000  Uiso   1.00
H33    H     0.43573   0.63972   0.69375   0.00000  Uiso   1.00
H34    H     0.38933   0.87604   0.57804   0.00000  Uiso   1.00
H35    H     0.91762   0.88863   0.95267   0.00000  Uiso   1.00
H36    H     0.39429   0.47381   0.67352   0.00000  Uiso   1.00
H37    H     0.29645   0.97213   0.42952   0.00000  Uiso   1.00
O38    O     0.17946   0.89781   0.97546   0.00000  Uiso   1.00
O39    O     0.49286   0.35360   0.60921   0.00000  Uiso   1.00
O40    O     0.36449   0.00738   0.28909   0.00000  Uiso   1.00
N41    N     0.11247   0.84263   0.84198   0.00000  Uiso   1.00
N42    N     0.62321   0.45480   0.58100   0.00000  Uiso   1.00
N43    N     0.53171   0.92067   0.35287   0.00000  Uiso   1.00
N44    N     0.95876   0.86979   0.90725   0.00000  Uiso   1.00
N45    N     0.46950   0.48197   0.64627   0.00000  Uiso   1.00
N46    N     0.37800   0.94784   0.41814   0.00000  Uiso   1.00
C47    C     0.23065   0.23702   0.91378   0.00000  Uiso   1.00
C48    C     0.17365   0.27277   0.82735   0.00000  Uiso   1.00
C49    C     0.04011   0.28769   0.79103   0.00000  Uiso   1.00
C50    C     0.00817   0.32062   0.71144   0.00000  Uiso   1.00
C51    C     0.90472   0.37346   0.58356   0.00000  Uiso   1.00
C52    C     0.30848   0.16588   0.89926   0.00000  Uiso   1.00
C53    C     0.28831   0.09093   0.92342   0.00000  Uiso   1.00
C54    C     0.36989   0.03388   0.90438   0.00000  Uiso   1.00
C55    C     0.47584   0.92078   0.88820   0.00000  Uiso   1.00
C56    C     0.33368   0.29428   0.96213   0.00000  Uiso   1.00
C57    C     0.33473   0.32728   0.03915   0.00000  Uiso   1.00
C58    C     0.43755   0.37832   0.07305   0.00000  Uiso   1.00
C59    C     0.58262   0.46458   0.15448   0.00000  Uiso   1.00
C60    C     0.41141   0.26896   0.83703   0.00000  Uiso   1.00
C61    C     0.27184   0.29012   0.78566   0.00000  Uiso   1.00
C62    C     0.24010   0.32304   0.70611   0.00000  Uiso   1.00
C63    C     0.10653   0.33801   0.66968   0.00000  Uiso   1.00
C64    C     0.40666   0.18323   0.85758   0.00000  Uiso   1.00
C65    C     0.48830   0.12627   0.83850   0.00000  Uiso   1.00
C66    C     0.46825   0.05126   0.86262   0.00000  Uiso   1.00
C67    C     0.43187   0.31163   0.92044   0.00000  Uiso   1.00
C68    C     0.53471   0.36263   0.95423   0.00000  Uiso   1.00
C69    C     0.53591   0.39570   0.03129   0.00000  Uiso   1.00
H70    H     0.15421   0.22350   0.94623   0.00000  Uiso   1.00
H71    H     0.96415   0.27425   0.82331   0.00000  Uiso   1.00
H72    H     0.21233   0.07752   0.95568   0.00000  Uiso   1.00
H73    H     0.25873   0.31384   0.07139   0.00000  Uiso   1.00
H74    H     0.79673   0.33814   0.66862   0.00000  Uiso   1.00
H75    H     0.32005   0.92333   0.94777   0.00000  Uiso   1.00
H76    H     0.41790   0.42164   0.19177   0.00000  Uiso   1.00
H77    H     0.48785   0.28247   0.80458   0.00000  Uiso   1.00
H78    H     0.31610   0.33646   0.67387   0.00000  Uiso   1.00
H79    H     0.56427   0.13972   0.80625   0.00000  Uiso   1.00
H80    H     0.61067   0.37604   0.92196   0.00000  Uiso   1.00
H81    H     0.08238   0.38863   0.54733   0.00000  Uiso   1.00
H82    H     0.60571   0.97381   0.82648   0.00000  Uiso   1.00
H83    H     0.70355   0.47213   0.07048   0.00000  Uiso   1.00
O84    O     0.82054   0.39781   0.52454   0.00000  Uiso   1.00
O85    O     0.50714   0.85360   0.89079   0.00000  Uiso   1.00
O86    O     0.63551   0.50738   0.21091   0.00000  Uiso   1.00
N87    N     0.88753   0.34263   0.65802   0.00000  Uiso   1.00
N88    N     0.37679   0.95480   0.91900   0.00000  Uiso   1.00
N89    N     0.46829   0.42067   0.14713   0.00000  Uiso   1.00
N90    N     0.04124   0.36979   0.59275   0.00000  Uiso   1.00
N91    N     0.53050   0.98197   0.85373   0.00000  Uiso   1.00
N92    N     0.62200   0.44784   0.08186   0.00000  Uiso   1.00
C93    C     0.23065   0.26298   0.41378   0.00000  Uiso   1.00
C94    C     0.17365   0.22723   0.32735   0.00000  Uiso   1.00
C95    C     0.04011   0.21231   0.29103   0.00000  Uiso   1.00
C96    C     0.00817   0.17938   0.21144   0.00000  Uiso   1.00
C97    C     0.90472   0.12654   0.08356   0.00000  Uiso   1.00
C98    C     0.30848   0.33412   0.39926   0.00000  Uiso   1.00
C99    C     0.28831   0.40907   0.42342   0.00000  Uiso   1.00
C100   C     0.36989   0.46612   0.40438   0.00000  Uiso   1.00
C101   C     0.47584   0.57922   0.38820   0.00000  Uiso   1.00
C102   C     0.33368   0.20572   0.46213   0.00000  Uiso   1.00
C103   C     0.33473   0.17272   0.53915   0.00000  Uiso   1.00
C104   C     0.43755   0.12168   0.57305   0.00000  Uiso   1.00
C105   C     0.58262   0.03542   0.65448   0.00000  Uiso   1.00
C106   C     0.41141   0.23104   0.33703   0.00000  Uiso   1.00
C107   C     0.27184   0.20988   0.28566   0.00000  Uiso   1.00
C108   C     0.24010   0.17696   0.20611   0.00000  Uiso   1.00
C109   C     0.10653   0.16199   0.16968   0.00000  Uiso   1.00
C110   C     0.40666   0.31677   0.35758   0.00000  Uiso   1.00
C111   C     0.48830   0.37373   0.33850   0.00000  Uiso   1.00
C112   C     0.46825   0.44874   0.36262   0.00000  Uiso   1.00
C113   C     0.43187   0.18837   0.42044   0.00000  Uiso   1.00
C114   C     0.53471   0.13737   0.45423   0.00000  Uiso   1.00
C115   C     0.53591   0.10430   0.53129   0.00000  Uiso   1.00
H116   H     0.15421   0.27650   0.44623   0.00000  Uiso   1.00
H117   H     0.96415   0.22575   0.32331   0.00000  Uiso   1.00
H118   H     0.21233   0.42248   0.45568   0.00000  Uiso   1.00
H119   H     0.25873   0.18616   0.57139   0.00000  Uiso   1.00
H120   H     0.79673   0.16186   0.16862   0.00000  Uiso   1.00
H121   H     0.32005   0.57667   0.44777   0.00000  Uiso   1.00
H122   H     0.41790   0.07836   0.69177   0.00000  Uiso   1.00
H123   H     0.48785   0.21753   0.30458   0.00000  Uiso   1.00
H124   H     0.31610   0.16354   0.17387   0.00000  Uiso   1.00
H125   H     0.56427   0.36028   0.30625   0.00000  Uiso   1.00
H126   H     0.61067   0.12396   0.42196   0.00000  Uiso   1.00
H127   H     0.08238   0.11137   0.04733   0.00000  Uiso   1.00
H128   H     0.60571   0.52619   0.32648   0.00000  Uiso   1.00
H129   H     0.70355   0.02787   0.57048   0.00000  Uiso   1.00
O130   O     0.82054   0.10219   0.02454   0.00000  Uiso   1.00
O131   O     0.50714   0.64640   0.39079   0.00000  Uiso   1.00
O132   O     0.63551   0.99262   0.71091   0.00000  Uiso   1.00
N133   N     0.88753   0.15737   0.15802   0.00000  Uiso   1.00
N134   N     0.37679   0.54520   0.41900   0.00000  Uiso   1.00
N135   N     0.46829   0.07933   0.64713   0.00000  Uiso   1.00
N136   N     0.04124   0.13021   0.09275   0.00000  Uiso   1.00
N137   N     0.53050   0.51803   0.35373   0.00000  Uiso   1.00
N138   N     0.62200   0.05216   0.58186   0.00000  Uiso   1.00
C139   C     0.76935   0.76298   0.08622   0.00000  Uiso   1.00
C140   C     0.82635   0.72723   0.17265   0.00000  Uiso   1.00
C141   C     0.95989   0.71231   0.20897   0.00000  Uiso   1.00
C142   C     0.99183   0.67938   0.28856   0.00000  Uiso   1.00
C143   C     0.09528   0.62654   0.41644   0.00000  Uiso   1.00
C144   C     0.69152   0.83412   0.10074   0.00000  Uiso   1.00
C145   C     0.71169   0.90907   0.07658   0.00000  Uiso   1.00
C146   C     0.63011   0.96612   0.09562   0.00000  Uiso   1.00
C147   C     0.52416   0.07922   0.11180   0.00000  Uiso   1.00
C148   C     0.66632   0.70572   0.03787   0.00000  Uiso   1.00
C149   C     0.66527   0.67272   0.96085   0.00000  Uiso   1.00
C150   C     0.56245   0.62168   0.92695   0.00000  Uiso   1.00
C151   C     0.41738   0.53542   0.84552   0.00000  Uiso   1.00
C152   C     0.58859   0.73104   0.16297   0.00000  Uiso   1.00
C153   C     0.72816   0.70988   0.21434   0.00000  Uiso   1.00
C154   C     0.75990   0.67696   0.29389   0.00000  Uiso   1.00
C155   C     0.89347   0.66199   0.33032   0.00000  Uiso   1.00
C156   C     0.59334   0.81677   0.14242   0.00000  Uiso   1.00
C157   C     0.51170   0.87373   0.16150   0.00000  Uiso   1.00
C158   C     0.53175   0.94874   0.13738   0.00000  Uiso   1.00
C159   C     0.56813   0.68837   0.07956   0.00000  Uiso   1.00
C160   C     0.46529   0.63737   0.04577   0.00000  Uiso   1.00
C161   C     0.46409   0.60430   0.96871   0.00000  Uiso   1.00
H162   H     0.84579   0.77650   0.05377   0.00000  Uiso   1.00
H163   H     0.03585   0.72575   0.17669   0.00000  Uiso   1.00
H164   H     0.78767   0.92248   0.04432   0.00000  Uiso   1.00
H165   H     0.74127   0.68616   0.92861   0.00000  Uiso   1.00
H166   H     0.20327   0.66186   0.33138   0.00000  Uiso   1.00
H167   H     0.67995   0.07667   0.05223   0.00000  Uiso   1.00
H168   H     0.58210   0.57836   0.80823   0.00000  Uiso   1.00
H169   H     0.51215   0.71753   0.19542   0.00000  Uiso   1.00
H170   H     0.68390   0.66354   0.32613   0.00000  Uiso   1.00
H171   H     0.43573   0.86028   0.19375   0.00000  Uiso   1.00
H172   H     0.38933   0.62396   0.07804   0.00000  Uiso   1.00
H173   H     0.91762   0.61137   0.45267   0.00000  Uiso   1.00
H174   H     0.39429   0.02619   0.17352   0.00000  Uiso   1.00
H175   H     0.29645   0.52787   0.92952   0.00000  Uiso   1.00
O176   O     0.17946   0.60219   0.47546   0.00000  Uiso   1.00
O177   O     0.49286   0.14640   0.10921   0.00000  Uiso   1.00
O178   O     0.36449   0.49262   0.78909   0.00000  Uiso   1.00
N179   N     0.11247   0.65737   0.34198   0.00000  Uiso   1.00
N180   N     0.62321   0.04520   0.08100   0.00000  Uiso   1.00
N181   N     0.53171   0.57933   0.85287   0.00000  Uiso   1.00
N182   N     0.95876   0.63021   0.40725   0.00000  Uiso   1.00
N183   N     0.46950   0.01803   0.14627   0.00000  Uiso   1.00
N184   N     0.37800   0.55216   0.91814   0.00000  Uiso   1.00
