data_job_04040
_audit_creation_date              2018-12-19
_audit_creation_method            'Materials Studio'
_symmetry_space_group_name_H-M    'P1'
_symmetry_Int_Tables_number       1
_symmetry_cell_setting            triclinic
loop_
_symmetry_equiv_pos_as_xyz
  x,y,z
_cell_length_a                    7.3727
_cell_length_b                    38.7487
_cell_length_c                    14.6213
_cell_angle_alpha                 90.0000
_cell_angle_beta                  138.1369
_cell_angle_gamma                 90.0000
loop_
_atom_site_label
_atom_site_type_symbol
_atom_site_fract_x
_atom_site_fract_y
_atom_site_fract_z
_atom_site_U_iso_or_equiv
_atom_site_adp_type
_atom_site_occupancy
C1     C     0.28348   0.64992   0.12723   0.00000  Uiso   1.00
C2     C     0.33628   0.61728   0.20256   0.00000  Uiso   1.00
C3     C     0.55335   0.59485   0.27223   0.00000  Uiso   1.00
C4     C     0.56541   0.56643   0.33444   0.00000  Uiso   1.00
C5     C     0.67744   0.51662   0.45245   0.00000  Uiso   1.00
C6     C     0.99899   0.64592   0.98040   0.00000  Uiso   1.00
C7     C     0.93248   0.64758   0.86328   0.00000  Uiso   1.00
C8     C     0.66059   0.64327   0.73847   0.00000  Uiso   1.00
C9     C     0.24895   0.63795   0.51156   0.00000  Uiso   1.00
C10    C     0.26528   0.67929   0.18953   0.00000  Uiso   1.00
C11    C     0.42262   0.70902   0.24823   0.00000  Uiso   1.00
C12    C     0.37489   0.73281   0.29946   0.00000  Uiso   1.00
C13    C     0.37672   0.77931   0.39727   0.00000  Uiso   1.00
C14    C     0.91886   0.63932   0.11381   0.00000  Uiso   1.00
C15    C     0.13822   0.61152   0.19526   0.00000  Uiso   1.00
C16    C     0.14996   0.58313   0.25738   0.00000  Uiso   1.00
C17    C     0.36702   0.56067   0.32714   0.00000  Uiso   1.00
C18    C     0.80095   0.64016   0.97310   0.00000  Uiso   1.00
C19    C     0.52908   0.63586   0.84843   0.00000  Uiso   1.00
C20    C     0.46218   0.63751   0.73116   0.00000  Uiso   1.00
C21    C     0.06724   0.67354   0.18224   0.00000  Uiso   1.00
C22    C     0.01924   0.69729   0.23338   0.00000  Uiso   1.00
C23    C     0.17649   0.72705   0.29216   0.00000  Uiso   1.00
H24    H     0.43764   0.65440   0.13290   0.00000  Uiso   1.00
H25    H     0.70656   0.59931   0.27784   0.00000  Uiso   1.00
H26    H     0.08578   0.65204   0.86896   0.00000  Uiso   1.00
H27    H     0.57586   0.71346   0.25385   0.00000  Uiso   1.00
H28    H     0.91731   0.53570   0.43528   0.00000  Uiso   1.00
H29    H     0.60835   0.64687   0.57312   0.00000  Uiso   1.00
H30    H     0.64177   0.77641   0.38474   0.00000  Uiso   1.00
H31    H     0.76467   0.63484   0.10813   0.00000  Uiso   1.00
H32    H     0.99667   0.57868   0.25172   0.00000  Uiso   1.00
H33    H     0.37588   0.63140   0.84283   0.00000  Uiso   1.00
H34    H     0.86596   0.69283   0.22772   0.00000  Uiso   1.00
H35    H     0.34113   0.51895   0.41407   0.00000  Uiso   1.00
H36    H     0.03216   0.63013   0.55191   0.00000  Uiso   1.00
H37    H     0.06559   0.75966   0.36353   0.00000  Uiso   1.00
O38    O     0.79393   0.49073   0.51954   0.00000  Uiso   1.00
O39    O     0.07662   0.63660   0.38842   0.00000  Uiso   1.00
O40    O     0.43246   0.80654   0.45325   0.00000  Uiso   1.00
N41    N     0.74990   0.53947   0.41061   0.00000  Uiso   1.00
N42    N     0.52610   0.64341   0.60454   0.00000  Uiso   1.00
N43    N     0.49222   0.76451   0.36330   0.00000  Uiso   1.00
N44    N     0.43986   0.53046   0.39920   0.00000  Uiso   1.00
N45    N     0.21607   0.63440   0.59313   0.00000  Uiso   1.00
N46    N     0.18218   0.75550   0.35189   0.00000  Uiso   1.00
C47    C     0.71652   0.14992   0.37277   0.00000  Uiso   1.00
C48    C     0.66372   0.11728   0.29744   0.00000  Uiso   1.00
C49    C     0.44665   0.09485   0.22777   0.00000  Uiso   1.00
C50    C     0.43459   0.06643   0.16556   0.00000  Uiso   1.00
C51    C     0.32256   0.01662   0.04755   0.00000  Uiso   1.00
C52    C     0.00101   0.14592   0.51960   0.00000  Uiso   1.00
C53    C     0.06752   0.14758   0.63672   0.00000  Uiso   1.00
C54    C     0.33941   0.14327   0.76153   0.00000  Uiso   1.00
C55    C     0.75105   0.13795   0.98844   0.00000  Uiso   1.00
C56    C     0.73472   0.17929   0.31047   0.00000  Uiso   1.00
C57    C     0.57738   0.20902   0.25177   0.00000  Uiso   1.00
C58    C     0.62511   0.23281   0.20054   0.00000  Uiso   1.00
C59    C     0.62328   0.27931   0.10273   0.00000  Uiso   1.00
C60    C     0.08114   0.13932   0.38619   0.00000  Uiso   1.00
C61    C     0.86178   0.11152   0.30474   0.00000  Uiso   1.00
C62    C     0.85004   0.08313   0.24262   0.00000  Uiso   1.00
C63    C     0.63298   0.06067   0.17286   0.00000  Uiso   1.00
C64    C     0.19905   0.14016   0.52690   0.00000  Uiso   1.00
C65    C     0.47092   0.13586   0.65157   0.00000  Uiso   1.00
C66    C     0.53782   0.13751   0.76884   0.00000  Uiso   1.00
C67    C     0.93276   0.17354   0.31776   0.00000  Uiso   1.00
C68    C     0.98076   0.19729   0.26662   0.00000  Uiso   1.00
C69    C     0.82351   0.22705   0.20784   0.00000  Uiso   1.00
H70    H     0.56236   0.15440   0.36710   0.00000  Uiso   1.00
H71    H     0.29344   0.09931   0.22216   0.00000  Uiso   1.00
H72    H     0.91422   0.15204   0.63104   0.00000  Uiso   1.00
H73    H     0.42414   0.21346   0.24615   0.00000  Uiso   1.00
H74    H     0.08269   0.03570   0.06472   0.00000  Uiso   1.00
H75    H     0.39165   0.14687   0.92688   0.00000  Uiso   1.00
H76    H     0.35823   0.27641   0.11526   0.00000  Uiso   1.00
H77    H     0.23533   0.13484   0.39187   0.00000  Uiso   1.00
H78    H     0.00333   0.07868   0.24828   0.00000  Uiso   1.00
H79    H     0.62412   0.13140   0.65717   0.00000  Uiso   1.00
H80    H     0.13404   0.19283   0.27228   0.00000  Uiso   1.00
H81    H     0.65887   0.01895   0.08593   0.00000  Uiso   1.00
H82    H     0.96784   0.13013   0.94809   0.00000  Uiso   1.00
H83    H     0.93441   0.25966   0.13647   0.00000  Uiso   1.00
O84    O     0.20607   0.99073   0.98046   0.00000  Uiso   1.00
O85    O     0.92338   0.13660   0.11158   0.00000  Uiso   1.00
O86    O     0.56754   0.30654   0.04675   0.00000  Uiso   1.00
N87    N     0.25010   0.03947   0.08939   0.00000  Uiso   1.00
N88    N     0.47390   0.14341   0.89546   0.00000  Uiso   1.00
N89    N     0.50778   0.26451   0.13670   0.00000  Uiso   1.00
N90    N     0.56014   0.03046   0.10080   0.00000  Uiso   1.00
N91    N     0.78393   0.13440   0.90687   0.00000  Uiso   1.00
N92    N     0.81782   0.25550   0.14811   0.00000  Uiso   1.00
C93    C     0.71652   0.35008   0.87277   0.00000  Uiso   1.00
C94    C     0.66372   0.38272   0.79744   0.00000  Uiso   1.00
C95    C     0.44665   0.40515   0.72777   0.00000  Uiso   1.00
C96    C     0.43459   0.43357   0.66556   0.00000  Uiso   1.00
C97    C     0.32256   0.48338   0.54755   0.00000  Uiso   1.00
C98    C     0.00101   0.35408   0.01960   0.00000  Uiso   1.00
C99    C     0.06752   0.35242   0.13672   0.00000  Uiso   1.00
C100   C     0.33941   0.35673   0.26153   0.00000  Uiso   1.00
C101   C     0.75105   0.36205   0.48844   0.00000  Uiso   1.00
C102   C     0.73472   0.32071   0.81047   0.00000  Uiso   1.00
C103   C     0.57738   0.29098   0.75177   0.00000  Uiso   1.00
C104   C     0.62511   0.26719   0.70054   0.00000  Uiso   1.00
C105   C     0.62328   0.22069   0.60273   0.00000  Uiso   1.00
C106   C     0.08114   0.36068   0.88619   0.00000  Uiso   1.00
C107   C     0.86178   0.38848   0.80474   0.00000  Uiso   1.00
C108   C     0.85004   0.41687   0.74262   0.00000  Uiso   1.00
C109   C     0.63298   0.43933   0.67286   0.00000  Uiso   1.00
C110   C     0.19905   0.35984   0.02690   0.00000  Uiso   1.00
C111   C     0.47092   0.36414   0.15157   0.00000  Uiso   1.00
C112   C     0.53782   0.36249   0.26884   0.00000  Uiso   1.00
C113   C     0.93276   0.32646   0.81776   0.00000  Uiso   1.00
C114   C     0.98076   0.30271   0.76662   0.00000  Uiso   1.00
C115   C     0.82351   0.27295   0.70784   0.00000  Uiso   1.00
H116   H     0.56236   0.34560   0.86710   0.00000  Uiso   1.00
H117   H     0.29344   0.40069   0.72216   0.00000  Uiso   1.00
H118   H     0.91422   0.34796   0.13104   0.00000  Uiso   1.00
H119   H     0.42414   0.28654   0.74615   0.00000  Uiso   1.00
H120   H     0.08269   0.46430   0.56472   0.00000  Uiso   1.00
H121   H     0.39165   0.35313   0.42688   0.00000  Uiso   1.00
H122   H     0.35823   0.22359   0.61526   0.00000  Uiso   1.00
H123   H     0.23533   0.36516   0.89187   0.00000  Uiso   1.00
H124   H     0.00333   0.42132   0.74828   0.00000  Uiso   1.00
H125   H     0.62412   0.36860   0.15717   0.00000  Uiso   1.00
H126   H     0.13404   0.30717   0.77228   0.00000  Uiso   1.00
H127   H     0.65887   0.48105   0.58593   0.00000  Uiso   1.00
H128   H     0.96784   0.36987   0.44809   0.00000  Uiso   1.00
H129   H     0.93441   0.24034   0.63647   0.00000  Uiso   1.00
O130   O     0.20607   0.50927   0.48046   0.00000  Uiso   1.00
O131   O     0.92338   0.36340   0.61158   0.00000  Uiso   1.00
O132   O     0.56754   0.19346   0.54675   0.00000  Uiso   1.00
N133   N     0.25010   0.46053   0.58939   0.00000  Uiso   1.00
N134   N     0.47390   0.35659   0.39546   0.00000  Uiso   1.00
N135   N     0.50778   0.23549   0.63670   0.00000  Uiso   1.00
N136   N     0.56014   0.46954   0.60080   0.00000  Uiso   1.00
N137   N     0.78393   0.36560   0.40687   0.00000  Uiso   1.00
N138   N     0.81782   0.24450   0.64811   0.00000  Uiso   1.00
C139   C     0.28348   0.85008   0.62723   0.00000  Uiso   1.00
C140   C     0.33628   0.88272   0.70256   0.00000  Uiso   1.00
C141   C     0.55335   0.90515   0.77223   0.00000  Uiso   1.00
C142   C     0.56541   0.93357   0.83444   0.00000  Uiso   1.00
C143   C     0.67744   0.98338   0.95245   0.00000  Uiso   1.00
C144   C     0.99899   0.85408   0.48040   0.00000  Uiso   1.00
C145   C     0.93248   0.85242   0.36328   0.00000  Uiso   1.00
C146   C     0.66059   0.85673   0.23847   0.00000  Uiso   1.00
C147   C     0.24895   0.86205   0.01156   0.00000  Uiso   1.00
C148   C     0.26528   0.82071   0.68953   0.00000  Uiso   1.00
C149   C     0.42262   0.79098   0.74823   0.00000  Uiso   1.00
C150   C     0.37489   0.76719   0.79946   0.00000  Uiso   1.00
C151   C     0.37672   0.72069   0.89727   0.00000  Uiso   1.00
C152   C     0.91886   0.86068   0.61381   0.00000  Uiso   1.00
C153   C     0.13822   0.88848   0.69526   0.00000  Uiso   1.00
C154   C     0.14996   0.91687   0.75738   0.00000  Uiso   1.00
C155   C     0.36702   0.93933   0.82714   0.00000  Uiso   1.00
C156   C     0.80095   0.85984   0.47310   0.00000  Uiso   1.00
C157   C     0.52908   0.86414   0.34843   0.00000  Uiso   1.00
C158   C     0.46218   0.86249   0.23116   0.00000  Uiso   1.00
C159   C     0.06724   0.82646   0.68224   0.00000  Uiso   1.00
C160   C     0.01924   0.80271   0.73338   0.00000  Uiso   1.00
C161   C     0.17649   0.77295   0.79216   0.00000  Uiso   1.00
H162   H     0.43764   0.84560   0.63290   0.00000  Uiso   1.00
H163   H     0.70656   0.90069   0.77784   0.00000  Uiso   1.00
H164   H     0.08578   0.84796   0.36896   0.00000  Uiso   1.00
H165   H     0.57586   0.78654   0.75385   0.00000  Uiso   1.00
H166   H     0.91731   0.96430   0.93528   0.00000  Uiso   1.00
H167   H     0.60835   0.85313   0.07312   0.00000  Uiso   1.00
H168   H     0.64177   0.72359   0.88474   0.00000  Uiso   1.00
H169   H     0.76467   0.86516   0.60813   0.00000  Uiso   1.00
H170   H     0.99667   0.92132   0.75172   0.00000  Uiso   1.00
H171   H     0.37588   0.86860   0.34283   0.00000  Uiso   1.00
H172   H     0.86596   0.80717   0.72772   0.00000  Uiso   1.00
H173   H     0.34113   0.98105   0.91407   0.00000  Uiso   1.00
H174   H     0.03216   0.86987   0.05191   0.00000  Uiso   1.00
H175   H     0.06559   0.74034   0.86353   0.00000  Uiso   1.00
O176   O     0.79393   0.00927   0.01954   0.00000  Uiso   1.00
O177   O     0.07662   0.86340   0.88842   0.00000  Uiso   1.00
O178   O     0.43246   0.69346   0.95325   0.00000  Uiso   1.00
N179   N     0.74990   0.96053   0.91061   0.00000  Uiso   1.00
N180   N     0.52610   0.85659   0.10454   0.00000  Uiso   1.00
N181   N     0.49222   0.73549   0.86330   0.00000  Uiso   1.00
N182   N     0.43986   0.96954   0.89920   0.00000  Uiso   1.00
N183   N     0.21607   0.86560   0.09313   0.00000  Uiso   1.00
N184   N     0.18218   0.74450   0.85189   0.00000  Uiso   1.00
