data_job_05330
_audit_creation_date              2018-12-19
_audit_creation_method            'Materials Studio'
_symmetry_space_group_name_H-M    'P1'
_symmetry_Int_Tables_number       1
_symmetry_cell_setting            triclinic
loop_
_symmetry_equiv_pos_as_xyz
  x,y,z
_cell_length_a                    8.0325
_cell_length_b                    29.9697
_cell_length_c                    10.0579
_cell_angle_alpha                 90.0000
_cell_angle_beta                  89.2729
_cell_angle_gamma                 90.0000
loop_
_atom_site_label
_atom_site_type_symbol
_atom_site_fract_x
_atom_site_fract_y
_atom_site_fract_z
_atom_site_U_iso_or_equiv
_atom_site_adp_type
_atom_site_occupancy
C1     C     0.30148   0.16296   0.70767   0.00000  Uiso   1.00
C2     C     0.18574   0.19227   0.62629   0.00000  Uiso   1.00
C3     C     0.21032   0.23708   0.59732   0.00000  Uiso   1.00
C4     C     0.09001   0.25798   0.52144   0.00000  Uiso   1.00
C5     C     0.93151   0.30701   0.40201   0.00000  Uiso   1.00
C6     C     0.19512   0.14395   0.82085   0.00000  Uiso   1.00
C7     C     0.22762   0.14814   0.95547   0.00000  Uiso   1.00
C8     C     0.11521   0.12836   0.04336   0.00000  Uiso   1.00
C9     C     0.97135   0.10236   0.22599   0.00000  Uiso   1.00
C10    C     0.34719   0.12347   0.61882   0.00000  Uiso   1.00
C11    C     0.50755   0.11043   0.58359   0.00000  Uiso   1.00
C12    C     0.52318   0.07340   0.50140   0.00000  Uiso   1.00
C13    C     0.61543   0.01560   0.37035   0.00000  Uiso   1.00
C14    C     0.04409   0.12039   0.62440   0.00000  Uiso   1.00
C15    C     0.04593   0.16914   0.58106   0.00000  Uiso   1.00
C16    C     0.92555   0.18998   0.50519   0.00000  Uiso   1.00
C17    C     0.94996   0.23481   0.47612   0.00000  Uiso   1.00
C18    C     0.05532   0.12083   0.77563   0.00000  Uiso   1.00
C19    C     0.94285   0.10104   0.86334   0.00000  Uiso   1.00
C20    C     0.97516   0.10520   0.99805   0.00000  Uiso   1.00
C21    C     0.20739   0.10035   0.57358   0.00000  Uiso   1.00
C22    C     0.22278   0.06333   0.49145   0.00000  Uiso   1.00
C23    C     0.38313   0.05024   0.45610   0.00000  Uiso   1.00
H24    H     0.41032   0.18096   0.74289   0.00000  Uiso   1.00
H25    H     0.31853   0.25496   0.63236   0.00000  Uiso   1.00
H26    H     0.33582   0.16603   0.99044   0.00000  Uiso   1.00
H27    H     0.61571   0.12833   0.61861   0.00000  Uiso   1.00
H28    H     0.15507   0.32682   0.48990   0.00000  Uiso   1.00
H29    H     0.19157   0.13929   0.24494   0.00000  Uiso   1.00
H30    H     0.78177   0.05979   0.46087   0.00000  Uiso   1.00
H31    H     0.93524   0.10238   0.58918   0.00000  Uiso   1.00
H32    H     0.81738   0.17208   0.47020   0.00000  Uiso   1.00
H33    H     0.83468   0.08315   0.82830   0.00000  Uiso   1.00
H34    H     0.11456   0.04545   0.45647   0.00000  Uiso   1.00
H35    H     0.74831   0.25955   0.35830   0.00000  Uiso   1.00
H36    H     0.78482   0.07202   0.11335   0.00000  Uiso   1.00
H37    H     0.37502   0.99252   0.32927   0.00000  Uiso   1.00
O38    O     0.88270   0.34045   0.34864   0.00000  Uiso   1.00
O39    O     0.93062   0.09442   0.33923   0.00000  Uiso   1.00
O40    O     0.70494   0.99012   0.31054   0.00000  Uiso   1.00
N41    N     0.07553   0.30142   0.47523   0.00000  Uiso   1.00
N42    N     0.10965   0.12610   0.18116   0.00000  Uiso   1.00
N43    N     0.66144   0.05176   0.44814   0.00000  Uiso   1.00
N44    N     0.85666   0.26522   0.40442   0.00000  Uiso   1.00
N45    N     0.89078   0.08990   0.11034   0.00000  Uiso   1.00
N46    N     0.44257   0.01557   0.37732   0.00000  Uiso   1.00
C47    C     0.20885   0.83967   0.06966   0.00000  Uiso   1.00
C48    C     0.31985   0.80918   0.98563   0.00000  Uiso   1.00
C49    C     0.28881   0.76464   0.95752   0.00000  Uiso   1.00
C50    C     0.40559   0.74251   0.87882   0.00000  Uiso   1.00
C51    C     0.55630   0.69186   0.75581   0.00000  Uiso   1.00
C52    C     0.31853   0.85764   0.18013   0.00000  Uiso   1.00
C53    C     0.28636   0.85384   0.31555   0.00000  Uiso   1.00
C54    C     0.40203   0.87250   0.40058   0.00000  Uiso   1.00
C55    C     0.55063   0.89711   0.57953   0.00000  Uiso   1.00
C56    C     0.16813   0.87955   0.98170   0.00000  Uiso   1.00
C57    C     0.00949   0.89419   0.95032   0.00000  Uiso   1.00
C58    C     0.99853   0.93131   0.86831   0.00000  Uiso   1.00
C59    C     0.91360   0.98994   0.73919   0.00000  Uiso   1.00
C60    C     0.47146   0.87958   0.97987   0.00000  Uiso   1.00
C61    C     0.46250   0.83086   0.93686   0.00000  Uiso   1.00
C62    C     0.57936   0.80879   0.85817   0.00000  Uiso   1.00
C63    C     0.54849   0.76422   0.82995   0.00000  Uiso   1.00
C64    C     0.46117   0.87931   0.13136   0.00000  Uiso   1.00
C65    C     0.57691   0.89799   0.21620   0.00000  Uiso   1.00
C66    C     0.54493   0.89422   0.35172   0.00000  Uiso   1.00
C67    C     0.31077   0.90123   0.93293   0.00000  Uiso   1.00
C68    C     0.30005   0.93834   0.85097   0.00000  Uiso   1.00
C69    C     0.14143   0.95303   0.81945   0.00000  Uiso   1.00
H70    H     0.09780   0.82280   0.10764   0.00000  Uiso   1.00
H71    H     0.17841   0.74787   0.99529   0.00000  Uiso   1.00
H72    H     0.17596   0.83707   0.35326   0.00000  Uiso   1.00
H73    H     0.89914   0.87741   0.98808   0.00000  Uiso   1.00
H74    H     0.33072   0.67436   0.84927   0.00000  Uiso   1.00
H75    H     0.32552   0.86244   0.60407   0.00000  Uiso   1.00
H76    H     0.74179   0.94751   0.83401   0.00000  Uiso   1.00
H77    H     0.58252   0.89646   0.94190   0.00000  Uiso   1.00
H78    H     0.68973   0.82558   0.82045   0.00000  Uiso   1.00
H79    H     0.68728   0.91476   0.17842   0.00000  Uiso   1.00
H80    H     0.41046   0.95511   0.81324   0.00000  Uiso   1.00
H81    H     0.74573   0.73743   0.70736   0.00000  Uiso   1.00
H82    H     0.74052   0.92550   0.46217   0.00000  Uiso   1.00
H83    H     0.15680   0.01057   0.69211   0.00000  Uiso   1.00
O84    O     0.60004   0.65793   0.70145   0.00000  Uiso   1.00
O85    O     0.59319   0.90469   0.69172   0.00000  Uiso   1.00
O86    O     0.82735   0.01629   0.68142   0.00000  Uiso   1.00
N87    N     0.41366   0.69893   0.83252   0.00000  Uiso   1.00
N88    N     0.40881   0.87477   0.53821   0.00000  Uiso   1.00
N89    N     0.86307   0.95431   0.81830   0.00000  Uiso   1.00
N90    N     0.63698   0.73287   0.75616   0.00000  Uiso   1.00
N91    N     0.63212   0.90870   0.46185   0.00000  Uiso   1.00
N92    N     0.08638   0.98824   0.74194   0.00000  Uiso   1.00
C93    C     0.69852   0.66296   0.29233   0.00000  Uiso   1.00
C94    C     0.81426   0.69227   0.37371   0.00000  Uiso   1.00
C95    C     0.78968   0.73708   0.40268   0.00000  Uiso   1.00
C96    C     0.90999   0.75798   0.47856   0.00000  Uiso   1.00
C97    C     0.06849   0.80701   0.59799   0.00000  Uiso   1.00
C98    C     0.80488   0.64395   0.17915   0.00000  Uiso   1.00
C99    C     0.77238   0.64814   0.04453   0.00000  Uiso   1.00
C100   C     0.88479   0.62836   0.95664   0.00000  Uiso   1.00
C101   C     0.02865   0.60236   0.77401   0.00000  Uiso   1.00
C102   C     0.65281   0.62347   0.38118   0.00000  Uiso   1.00
C103   C     0.49245   0.61043   0.41641   0.00000  Uiso   1.00
C104   C     0.47682   0.57340   0.49860   0.00000  Uiso   1.00
C105   C     0.38457   0.51560   0.62965   0.00000  Uiso   1.00
C106   C     0.95591   0.62039   0.37560   0.00000  Uiso   1.00
C107   C     0.95407   0.66914   0.41894   0.00000  Uiso   1.00
C108   C     0.07445   0.68998   0.49481   0.00000  Uiso   1.00
C109   C     0.05004   0.73481   0.52388   0.00000  Uiso   1.00
C110   C     0.94468   0.62083   0.22437   0.00000  Uiso   1.00
C111   C     0.05715   0.60104   0.13666   0.00000  Uiso   1.00
C112   C     0.02484   0.60520   0.00195   0.00000  Uiso   1.00
C113   C     0.79261   0.60035   0.42642   0.00000  Uiso   1.00
C114   C     0.77722   0.56333   0.50855   0.00000  Uiso   1.00
C115   C     0.61687   0.55024   0.54390   0.00000  Uiso   1.00
H116   H     0.58968   0.68096   0.25711   0.00000  Uiso   1.00
H117   H     0.68147   0.75496   0.36764   0.00000  Uiso   1.00
H118   H     0.66418   0.66603   0.00956   0.00000  Uiso   1.00
H119   H     0.38429   0.62833   0.38139   0.00000  Uiso   1.00
H120   H     0.84493   0.82682   0.51010   0.00000  Uiso   1.00
H121   H     0.80843   0.63929   0.75506   0.00000  Uiso   1.00
H122   H     0.21823   0.55979   0.53913   0.00000  Uiso   1.00
H123   H     0.06476   0.60238   0.41082   0.00000  Uiso   1.00
H124   H     0.18262   0.67208   0.52980   0.00000  Uiso   1.00
H125   H     0.16532   0.58315   0.17170   0.00000  Uiso   1.00
H126   H     0.88544   0.54545   0.54353   0.00000  Uiso   1.00
H127   H     0.25169   0.75955   0.64170   0.00000  Uiso   1.00
H128   H     0.21518   0.57202   0.88665   0.00000  Uiso   1.00
H129   H     0.62498   0.49252   0.67073   0.00000  Uiso   1.00
O130   O     0.11730   0.84045   0.65136   0.00000  Uiso   1.00
O131   O     0.06938   0.59442   0.66077   0.00000  Uiso   1.00
O132   O     0.29506   0.49012   0.68946   0.00000  Uiso   1.00
N133   N     0.92447   0.80142   0.52477   0.00000  Uiso   1.00
N134   N     0.89035   0.62610   0.81884   0.00000  Uiso   1.00
N135   N     0.33856   0.55176   0.55186   0.00000  Uiso   1.00
N136   N     0.14334   0.76522   0.59558   0.00000  Uiso   1.00
N137   N     0.10922   0.58990   0.88966   0.00000  Uiso   1.00
N138   N     0.55743   0.51557   0.62268   0.00000  Uiso   1.00
C139   C     0.79115   0.33967   0.93034   0.00000  Uiso   1.00
C140   C     0.68015   0.30918   0.01437   0.00000  Uiso   1.00
C141   C     0.71119   0.26464   0.04248   0.00000  Uiso   1.00
C142   C     0.59441   0.24251   0.12118   0.00000  Uiso   1.00
C143   C     0.44370   0.19186   0.24419   0.00000  Uiso   1.00
C144   C     0.68147   0.35764   0.81987   0.00000  Uiso   1.00
C145   C     0.71364   0.35384   0.68445   0.00000  Uiso   1.00
C146   C     0.59797   0.37250   0.59942   0.00000  Uiso   1.00
C147   C     0.44937   0.39711   0.42047   0.00000  Uiso   1.00
C148   C     0.83187   0.37955   0.01830   0.00000  Uiso   1.00
C149   C     0.99051   0.39419   0.04968   0.00000  Uiso   1.00
C150   C     0.00147   0.43131   0.13169   0.00000  Uiso   1.00
C151   C     0.08640   0.48994   0.26081   0.00000  Uiso   1.00
C152   C     0.52854   0.37958   0.02013   0.00000  Uiso   1.00
C153   C     0.53750   0.33086   0.06314   0.00000  Uiso   1.00
C154   C     0.42064   0.30879   0.14183   0.00000  Uiso   1.00
C155   C     0.45151   0.26422   0.17005   0.00000  Uiso   1.00
C156   C     0.53883   0.37931   0.86864   0.00000  Uiso   1.00
C157   C     0.42309   0.39799   0.78380   0.00000  Uiso   1.00
C158   C     0.45507   0.39422   0.64828   0.00000  Uiso   1.00
C159   C     0.68923   0.40123   0.06707   0.00000  Uiso   1.00
C160   C     0.69995   0.43834   0.14903   0.00000  Uiso   1.00
C161   C     0.85857   0.45303   0.18055   0.00000  Uiso   1.00
H162   H     0.90220   0.32280   0.89236   0.00000  Uiso   1.00
H163   H     0.82159   0.24787   0.00471   0.00000  Uiso   1.00
H164   H     0.82404   0.33707   0.64674   0.00000  Uiso   1.00
H165   H     0.10086   0.37741   0.01192   0.00000  Uiso   1.00
H166   H     0.66928   0.17436   0.15073   0.00000  Uiso   1.00
H167   H     0.67448   0.36244   0.39593   0.00000  Uiso   1.00
H168   H     0.25821   0.44751   0.16599   0.00000  Uiso   1.00
H169   H     0.41748   0.39646   0.05810   0.00000  Uiso   1.00
H170   H     0.31027   0.32558   0.17955   0.00000  Uiso   1.00
H171   H     0.31272   0.41476   0.82158   0.00000  Uiso   1.00
H172   H     0.58954   0.45511   0.18676   0.00000  Uiso   1.00
H173   H     0.25427   0.23743   0.29264   0.00000  Uiso   1.00
H174   H     0.25948   0.42550   0.53783   0.00000  Uiso   1.00
H175   H     0.84320   0.51057   0.30789   0.00000  Uiso   1.00
O176   O     0.39996   0.15793   0.29855   0.00000  Uiso   1.00
O177   O     0.40681   0.40469   0.30828   0.00000  Uiso   1.00
O178   O     0.17265   0.51629   0.31858   0.00000  Uiso   1.00
N179   N     0.58634   0.19893   0.16748   0.00000  Uiso   1.00
N180   N     0.59119   0.37477   0.46179   0.00000  Uiso   1.00
N181   N     0.13693   0.45431   0.18170   0.00000  Uiso   1.00
N182   N     0.36302   0.23287   0.24384   0.00000  Uiso   1.00
N183   N     0.36788   0.40870   0.53815   0.00000  Uiso   1.00
N184   N     0.91362   0.48824   0.25806   0.00000  Uiso   1.00
