data_job_05326
_audit_creation_date              2018-12-19
_audit_creation_method            'Materials Studio'
_symmetry_space_group_name_H-M    'P1'
_symmetry_Int_Tables_number       1
_symmetry_cell_setting            triclinic
loop_
_symmetry_equiv_pos_as_xyz
  x,y,z
_cell_length_a                    30.5705
_cell_length_b                    13.3427
_cell_length_c                    12.3200
_cell_angle_alpha                 90.0000
_cell_angle_beta                  101.7310
_cell_angle_gamma                 90.0000
loop_
_atom_site_label
_atom_site_type_symbol
_atom_site_fract_x
_atom_site_fract_y
_atom_site_fract_z
_atom_site_U_iso_or_equiv
_atom_site_adp_type
_atom_site_occupancy
C1     C     0.86761   0.13508   0.33545   0.00000  Uiso   1.00
C2     C     0.85013   0.16386   0.43864   0.00000  Uiso   1.00
C3     C     0.82332   0.10466   0.49096   0.00000  Uiso   1.00
C4     C     0.81087   0.14453   0.58428   0.00000  Uiso   1.00
C5     C     0.78160   0.17469   0.73847   0.00000  Uiso   1.00
C6     C     0.85190   0.21731   0.25050   0.00000  Uiso   1.00
C7     C     0.82659   0.20305   0.14462   0.00000  Uiso   1.00
C8     C     0.81563   0.28792   0.07956   0.00000  Uiso   1.00
C9     C     0.78914   0.40105   0.94162   0.00000  Uiso   1.00
C10    C     0.91831   0.14474   0.36702   0.00000  Uiso   1.00
C11    C     0.94884   0.06947   0.35909   0.00000  Uiso   1.00
C12    C     0.99380   0.09325   0.39211   0.00000  Uiso   1.00
C13    C     0.07042   0.09370   0.43510   0.00000  Uiso   1.00
C14    C     0.89318   0.31116   0.40815   0.00000  Uiso   1.00
C15    C     0.86402   0.25950   0.47812   0.00000  Uiso   1.00
C16    C     0.85161   0.29947   0.57139   0.00000  Uiso   1.00
C17    C     0.82479   0.24034   0.62384   0.00000  Uiso   1.00
C18    C     0.86579   0.31295   0.28998   0.00000  Uiso   1.00
C19    C     0.85487   0.39786   0.22506   0.00000  Uiso   1.00
C20    C     0.82954   0.38373   0.11911   0.00000  Uiso   1.00
C21    C     0.93220   0.24038   0.40651   0.00000  Uiso   1.00
C22    C     0.97712   0.26428   0.43954   0.00000  Uiso   1.00
C23    C     0.00771   0.18906   0.43167   0.00000  Uiso   1.00
H24    H     0.85680   0.06063   0.30470   0.00000  Uiso   1.00
H25    H     0.81258   0.03066   0.46036   0.00000  Uiso   1.00
H26    H     0.81585   0.12903   0.11408   0.00000  Uiso   1.00
H27    H     0.93808   0.99547   0.32853   0.00000  Uiso   1.00
H28    H     0.76967   0.03962   0.65034   0.00000  Uiso   1.00
H29    H     0.77657   0.24704   0.92017   0.00000  Uiso   1.00
H30    H     0.03432   0.96540   0.37238   0.00000  Uiso   1.00
H31    H     0.90399   0.38562   0.43889   0.00000  Uiso   1.00
H32    H     0.86236   0.37348   0.60193   0.00000  Uiso   1.00
H33    H     0.86563   0.47185   0.25564   0.00000  Uiso   1.00
H34    H     0.98786   0.33829   0.47009   0.00000  Uiso   1.00
H35    H     0.81007   0.31787   0.76524   0.00000  Uiso   1.00
H36    H     0.81697   0.52529   0.03506   0.00000  Uiso   1.00
H37    H     0.07472   0.24365   0.48727   0.00000  Uiso   1.00
O38    O     0.76162   0.16491   0.81260   0.00000  Uiso   1.00
O39    O     0.77068   0.43703   0.85463   0.00000  Uiso   1.00
O40    O     0.10884   0.06753   0.44792   0.00000  Uiso   1.00
N41    N     0.78490   0.10676   0.65502   0.00000  Uiso   1.00
N42    N     0.79134   0.30069   0.97236   0.00000  Uiso   1.00
N43    N     0.03232   0.03739   0.39511   0.00000  Uiso   1.00
N44    N     0.80663   0.25649   0.71685   0.00000  Uiso   1.00
N45    N     0.81308   0.45042   0.03418   0.00000  Uiso   1.00
N46    N     0.05406   0.18711   0.45693   0.00000  Uiso   1.00
C47    C     0.36761   0.63508   0.33545   0.00000  Uiso   1.00
C48    C     0.35013   0.66386   0.43864   0.00000  Uiso   1.00
C49    C     0.32332   0.60466   0.49096   0.00000  Uiso   1.00
C50    C     0.31087   0.64453   0.58428   0.00000  Uiso   1.00
C51    C     0.28160   0.67469   0.73847   0.00000  Uiso   1.00
C52    C     0.35190   0.71731   0.25050   0.00000  Uiso   1.00
C53    C     0.32659   0.70305   0.14462   0.00000  Uiso   1.00
C54    C     0.31563   0.78792   0.07956   0.00000  Uiso   1.00
C55    C     0.28914   0.90105   0.94162   0.00000  Uiso   1.00
C56    C     0.41831   0.64474   0.36702   0.00000  Uiso   1.00
C57    C     0.44884   0.56947   0.35909   0.00000  Uiso   1.00
C58    C     0.49380   0.59325   0.39211   0.00000  Uiso   1.00
C59    C     0.57042   0.59370   0.43510   0.00000  Uiso   1.00
C60    C     0.39318   0.81116   0.40815   0.00000  Uiso   1.00
C61    C     0.36402   0.75950   0.47812   0.00000  Uiso   1.00
C62    C     0.35161   0.79947   0.57139   0.00000  Uiso   1.00
C63    C     0.32479   0.74034   0.62384   0.00000  Uiso   1.00
C64    C     0.36579   0.81295   0.28998   0.00000  Uiso   1.00
C65    C     0.35487   0.89786   0.22506   0.00000  Uiso   1.00
C66    C     0.32954   0.88373   0.11911   0.00000  Uiso   1.00
C67    C     0.43220   0.74038   0.40651   0.00000  Uiso   1.00
C68    C     0.47712   0.76428   0.43954   0.00000  Uiso   1.00
C69    C     0.50771   0.68906   0.43167   0.00000  Uiso   1.00
H70    H     0.35680   0.56063   0.30470   0.00000  Uiso   1.00
H71    H     0.31258   0.53066   0.46036   0.00000  Uiso   1.00
H72    H     0.31585   0.62903   0.11408   0.00000  Uiso   1.00
H73    H     0.43808   0.49547   0.32853   0.00000  Uiso   1.00
H74    H     0.26967   0.53962   0.65034   0.00000  Uiso   1.00
H75    H     0.27657   0.74704   0.92017   0.00000  Uiso   1.00
H76    H     0.53432   0.46540   0.37238   0.00000  Uiso   1.00
H77    H     0.40399   0.88562   0.43889   0.00000  Uiso   1.00
H78    H     0.36236   0.87348   0.60193   0.00000  Uiso   1.00
H79    H     0.36563   0.97185   0.25564   0.00000  Uiso   1.00
H80    H     0.48786   0.83829   0.47009   0.00000  Uiso   1.00
H81    H     0.31007   0.81787   0.76524   0.00000  Uiso   1.00
H82    H     0.31697   0.02529   0.03506   0.00000  Uiso   1.00
H83    H     0.57472   0.74365   0.48727   0.00000  Uiso   1.00
O84    O     0.26162   0.66491   0.81260   0.00000  Uiso   1.00
O85    O     0.27068   0.93703   0.85463   0.00000  Uiso   1.00
O86    O     0.60884   0.56753   0.44792   0.00000  Uiso   1.00
N87    N     0.28490   0.60676   0.65502   0.00000  Uiso   1.00
N88    N     0.29134   0.80069   0.97236   0.00000  Uiso   1.00
N89    N     0.53232   0.53739   0.39511   0.00000  Uiso   1.00
N90    N     0.30663   0.75649   0.71685   0.00000  Uiso   1.00
N91    N     0.31308   0.95042   0.03418   0.00000  Uiso   1.00
N92    N     0.55406   0.68711   0.45693   0.00000  Uiso   1.00
C93    C     0.13239   0.13508   0.16455   0.00000  Uiso   1.00
C94    C     0.14987   0.16386   0.06136   0.00000  Uiso   1.00
C95    C     0.17668   0.10466   0.00904   0.00000  Uiso   1.00
C96    C     0.18913   0.14453   0.91572   0.00000  Uiso   1.00
C97    C     0.21840   0.17469   0.76153   0.00000  Uiso   1.00
C98    C     0.14810   0.21731   0.24950   0.00000  Uiso   1.00
C99    C     0.17341   0.20305   0.35538   0.00000  Uiso   1.00
C100   C     0.18437   0.28792   0.42044   0.00000  Uiso   1.00
C101   C     0.21086   0.40105   0.55838   0.00000  Uiso   1.00
C102   C     0.08169   0.14474   0.13298   0.00000  Uiso   1.00
C103   C     0.05116   0.06947   0.14091   0.00000  Uiso   1.00
C104   C     0.00620   0.09325   0.10789   0.00000  Uiso   1.00
C105   C     0.92958   0.09370   0.06490   0.00000  Uiso   1.00
C106   C     0.10682   0.31116   0.09185   0.00000  Uiso   1.00
C107   C     0.13598   0.25950   0.02188   0.00000  Uiso   1.00
C108   C     0.14839   0.29947   0.92861   0.00000  Uiso   1.00
C109   C     0.17521   0.24034   0.87616   0.00000  Uiso   1.00
C110   C     0.13421   0.31295   0.21002   0.00000  Uiso   1.00
C111   C     0.14513   0.39786   0.27494   0.00000  Uiso   1.00
C112   C     0.17046   0.38373   0.38089   0.00000  Uiso   1.00
C113   C     0.06780   0.24038   0.09349   0.00000  Uiso   1.00
C114   C     0.02288   0.26428   0.06046   0.00000  Uiso   1.00
C115   C     0.99229   0.18906   0.06833   0.00000  Uiso   1.00
H116   H     0.14320   0.06063   0.19530   0.00000  Uiso   1.00
H117   H     0.18742   0.03066   0.03964   0.00000  Uiso   1.00
H118   H     0.18415   0.12903   0.38592   0.00000  Uiso   1.00
H119   H     0.06192   0.99547   0.17147   0.00000  Uiso   1.00
H120   H     0.23033   0.03962   0.84966   0.00000  Uiso   1.00
H121   H     0.22343   0.24704   0.57983   0.00000  Uiso   1.00
H122   H     0.96568   0.96540   0.12762   0.00000  Uiso   1.00
H123   H     0.09601   0.38562   0.06111   0.00000  Uiso   1.00
H124   H     0.13764   0.37348   0.89807   0.00000  Uiso   1.00
H125   H     0.13437   0.47185   0.24436   0.00000  Uiso   1.00
H126   H     0.01214   0.33829   0.02991   0.00000  Uiso   1.00
H127   H     0.18993   0.31787   0.73476   0.00000  Uiso   1.00
H128   H     0.18303   0.52529   0.46494   0.00000  Uiso   1.00
H129   H     0.92528   0.24365   0.01273   0.00000  Uiso   1.00
O130   O     0.23838   0.16491   0.68740   0.00000  Uiso   1.00
O131   O     0.22932   0.43703   0.64537   0.00000  Uiso   1.00
O132   O     0.89116   0.06753   0.05208   0.00000  Uiso   1.00
N133   N     0.21510   0.10676   0.84498   0.00000  Uiso   1.00
N134   N     0.20866   0.30069   0.52764   0.00000  Uiso   1.00
N135   N     0.96768   0.03739   0.10489   0.00000  Uiso   1.00
N136   N     0.19337   0.25649   0.78315   0.00000  Uiso   1.00
N137   N     0.18692   0.45042   0.46582   0.00000  Uiso   1.00
N138   N     0.94594   0.18711   0.04307   0.00000  Uiso   1.00
C139   C     0.63239   0.63508   0.16455   0.00000  Uiso   1.00
C140   C     0.64987   0.66386   0.06136   0.00000  Uiso   1.00
C141   C     0.67668   0.60466   0.00904   0.00000  Uiso   1.00
C142   C     0.68913   0.64453   0.91572   0.00000  Uiso   1.00
C143   C     0.71840   0.67469   0.76153   0.00000  Uiso   1.00
C144   C     0.64810   0.71731   0.24950   0.00000  Uiso   1.00
C145   C     0.67341   0.70305   0.35538   0.00000  Uiso   1.00
C146   C     0.68437   0.78792   0.42044   0.00000  Uiso   1.00
C147   C     0.71086   0.90105   0.55838   0.00000  Uiso   1.00
C148   C     0.58169   0.64474   0.13298   0.00000  Uiso   1.00
C149   C     0.55116   0.56947   0.14091   0.00000  Uiso   1.00
C150   C     0.50620   0.59325   0.10789   0.00000  Uiso   1.00
C151   C     0.42958   0.59370   0.06490   0.00000  Uiso   1.00
C152   C     0.60682   0.81116   0.09185   0.00000  Uiso   1.00
C153   C     0.63598   0.75950   0.02188   0.00000  Uiso   1.00
C154   C     0.64839   0.79947   0.92861   0.00000  Uiso   1.00
C155   C     0.67521   0.74034   0.87616   0.00000  Uiso   1.00
C156   C     0.63421   0.81295   0.21002   0.00000  Uiso   1.00
C157   C     0.64513   0.89786   0.27494   0.00000  Uiso   1.00
C158   C     0.67046   0.88373   0.38089   0.00000  Uiso   1.00
C159   C     0.56780   0.74038   0.09349   0.00000  Uiso   1.00
C160   C     0.52288   0.76428   0.06046   0.00000  Uiso   1.00
C161   C     0.49229   0.68906   0.06833   0.00000  Uiso   1.00
H162   H     0.64320   0.56063   0.19530   0.00000  Uiso   1.00
H163   H     0.68742   0.53066   0.03964   0.00000  Uiso   1.00
H164   H     0.68415   0.62903   0.38592   0.00000  Uiso   1.00
H165   H     0.56192   0.49547   0.17147   0.00000  Uiso   1.00
H166   H     0.73033   0.53962   0.84966   0.00000  Uiso   1.00
H167   H     0.72343   0.74704   0.57983   0.00000  Uiso   1.00
H168   H     0.46568   0.46540   0.12762   0.00000  Uiso   1.00
H169   H     0.59601   0.88562   0.06111   0.00000  Uiso   1.00
H170   H     0.63764   0.87348   0.89807   0.00000  Uiso   1.00
H171   H     0.63437   0.97185   0.24436   0.00000  Uiso   1.00
H172   H     0.51214   0.83829   0.02991   0.00000  Uiso   1.00
H173   H     0.68993   0.81787   0.73476   0.00000  Uiso   1.00
H174   H     0.68303   0.02529   0.46494   0.00000  Uiso   1.00
H175   H     0.42528   0.74365   0.01273   0.00000  Uiso   1.00
O176   O     0.73838   0.66491   0.68740   0.00000  Uiso   1.00
O177   O     0.72932   0.93703   0.64537   0.00000  Uiso   1.00
O178   O     0.39116   0.56753   0.05208   0.00000  Uiso   1.00
N179   N     0.71510   0.60676   0.84498   0.00000  Uiso   1.00
N180   N     0.70866   0.80069   0.52764   0.00000  Uiso   1.00
N181   N     0.46768   0.53739   0.10489   0.00000  Uiso   1.00
N182   N     0.69337   0.75649   0.78315   0.00000  Uiso   1.00
N183   N     0.68692   0.95042   0.46582   0.00000  Uiso   1.00
N184   N     0.44594   0.68711   0.04307   0.00000  Uiso   1.00
C185   C     0.13239   0.86492   0.66455   0.00000  Uiso   1.00
C186   C     0.14987   0.83614   0.56136   0.00000  Uiso   1.00
C187   C     0.17668   0.89534   0.50904   0.00000  Uiso   1.00
C188   C     0.18913   0.85547   0.41572   0.00000  Uiso   1.00
C189   C     0.21840   0.82531   0.26153   0.00000  Uiso   1.00
C190   C     0.14810   0.78269   0.74950   0.00000  Uiso   1.00
C191   C     0.17341   0.79695   0.85538   0.00000  Uiso   1.00
C192   C     0.18437   0.71208   0.92044   0.00000  Uiso   1.00
C193   C     0.21086   0.59895   0.05838   0.00000  Uiso   1.00
C194   C     0.08169   0.85526   0.63298   0.00000  Uiso   1.00
C195   C     0.05116   0.93053   0.64091   0.00000  Uiso   1.00
C196   C     0.00620   0.90675   0.60789   0.00000  Uiso   1.00
C197   C     0.92958   0.90630   0.56490   0.00000  Uiso   1.00
C198   C     0.10682   0.68884   0.59185   0.00000  Uiso   1.00
C199   C     0.13598   0.74050   0.52188   0.00000  Uiso   1.00
C200   C     0.14839   0.70053   0.42861   0.00000  Uiso   1.00
C201   C     0.17521   0.75966   0.37616   0.00000  Uiso   1.00
C202   C     0.13421   0.68705   0.71002   0.00000  Uiso   1.00
C203   C     0.14513   0.60214   0.77494   0.00000  Uiso   1.00
C204   C     0.17046   0.61627   0.88089   0.00000  Uiso   1.00
C205   C     0.06780   0.75962   0.59349   0.00000  Uiso   1.00
C206   C     0.02288   0.73572   0.56046   0.00000  Uiso   1.00
C207   C     0.99229   0.81094   0.56833   0.00000  Uiso   1.00
H208   H     0.14320   0.93937   0.69530   0.00000  Uiso   1.00
H209   H     0.18742   0.96934   0.53964   0.00000  Uiso   1.00
H210   H     0.18415   0.87097   0.88592   0.00000  Uiso   1.00
H211   H     0.06192   0.00453   0.67147   0.00000  Uiso   1.00
H212   H     0.23033   0.96038   0.34966   0.00000  Uiso   1.00
H213   H     0.22343   0.75296   0.07983   0.00000  Uiso   1.00
H214   H     0.96568   0.03460   0.62762   0.00000  Uiso   1.00
H215   H     0.09601   0.61438   0.56111   0.00000  Uiso   1.00
H216   H     0.13764   0.62652   0.39807   0.00000  Uiso   1.00
H217   H     0.13437   0.52815   0.74436   0.00000  Uiso   1.00
H218   H     0.01214   0.66171   0.52991   0.00000  Uiso   1.00
H219   H     0.18993   0.68213   0.23476   0.00000  Uiso   1.00
H220   H     0.18303   0.47471   0.96494   0.00000  Uiso   1.00
H221   H     0.92528   0.75635   0.51273   0.00000  Uiso   1.00
O222   O     0.23838   0.83509   0.18740   0.00000  Uiso   1.00
O223   O     0.22932   0.56297   0.14537   0.00000  Uiso   1.00
O224   O     0.89116   0.93247   0.55208   0.00000  Uiso   1.00
N225   N     0.21510   0.89324   0.34498   0.00000  Uiso   1.00
N226   N     0.20866   0.69931   0.02764   0.00000  Uiso   1.00
N227   N     0.96768   0.96261   0.60489   0.00000  Uiso   1.00
N228   N     0.19337   0.74351   0.28315   0.00000  Uiso   1.00
N229   N     0.18692   0.54958   0.96582   0.00000  Uiso   1.00
N230   N     0.94594   0.81289   0.54307   0.00000  Uiso   1.00
C231   C     0.63239   0.36492   0.66455   0.00000  Uiso   1.00
C232   C     0.64987   0.33614   0.56136   0.00000  Uiso   1.00
C233   C     0.67668   0.39534   0.50904   0.00000  Uiso   1.00
C234   C     0.68913   0.35547   0.41572   0.00000  Uiso   1.00
C235   C     0.71840   0.32531   0.26153   0.00000  Uiso   1.00
C236   C     0.64810   0.28269   0.74950   0.00000  Uiso   1.00
C237   C     0.67341   0.29695   0.85538   0.00000  Uiso   1.00
C238   C     0.68437   0.21208   0.92044   0.00000  Uiso   1.00
C239   C     0.71086   0.09895   0.05838   0.00000  Uiso   1.00
C240   C     0.58169   0.35526   0.63298   0.00000  Uiso   1.00
C241   C     0.55116   0.43053   0.64091   0.00000  Uiso   1.00
C242   C     0.50620   0.40675   0.60789   0.00000  Uiso   1.00
C243   C     0.42958   0.40630   0.56490   0.00000  Uiso   1.00
C244   C     0.60682   0.18884   0.59185   0.00000  Uiso   1.00
C245   C     0.63598   0.24050   0.52188   0.00000  Uiso   1.00
C246   C     0.64839   0.20053   0.42861   0.00000  Uiso   1.00
C247   C     0.67521   0.25966   0.37616   0.00000  Uiso   1.00
C248   C     0.63421   0.18705   0.71002   0.00000  Uiso   1.00
C249   C     0.64513   0.10214   0.77494   0.00000  Uiso   1.00
C250   C     0.67046   0.11627   0.88089   0.00000  Uiso   1.00
C251   C     0.56780   0.25962   0.59349   0.00000  Uiso   1.00
C252   C     0.52288   0.23572   0.56046   0.00000  Uiso   1.00
C253   C     0.49229   0.31094   0.56833   0.00000  Uiso   1.00
H254   H     0.64320   0.43937   0.69530   0.00000  Uiso   1.00
H255   H     0.68742   0.46934   0.53964   0.00000  Uiso   1.00
H256   H     0.68415   0.37097   0.88592   0.00000  Uiso   1.00
H257   H     0.56192   0.50453   0.67147   0.00000  Uiso   1.00
H258   H     0.73033   0.46038   0.34966   0.00000  Uiso   1.00
H259   H     0.72343   0.25296   0.07983   0.00000  Uiso   1.00
H260   H     0.46568   0.53460   0.62762   0.00000  Uiso   1.00
H261   H     0.59601   0.11438   0.56111   0.00000  Uiso   1.00
H262   H     0.63764   0.12652   0.39807   0.00000  Uiso   1.00
H263   H     0.63437   0.02815   0.74436   0.00000  Uiso   1.00
H264   H     0.51214   0.16171   0.52991   0.00000  Uiso   1.00
H265   H     0.68993   0.18213   0.23476   0.00000  Uiso   1.00
H266   H     0.68303   0.97471   0.96494   0.00000  Uiso   1.00
H267   H     0.42528   0.25635   0.51273   0.00000  Uiso   1.00
O268   O     0.73838   0.33509   0.18740   0.00000  Uiso   1.00
O269   O     0.72932   0.06297   0.14537   0.00000  Uiso   1.00
O270   O     0.39116   0.43247   0.55208   0.00000  Uiso   1.00
N271   N     0.71510   0.39324   0.34498   0.00000  Uiso   1.00
N272   N     0.70866   0.19931   0.02764   0.00000  Uiso   1.00
N273   N     0.46768   0.46261   0.60489   0.00000  Uiso   1.00
N274   N     0.69337   0.24351   0.28315   0.00000  Uiso   1.00
N275   N     0.68692   0.04958   0.96582   0.00000  Uiso   1.00
N276   N     0.44594   0.31289   0.54307   0.00000  Uiso   1.00
C277   C     0.86761   0.86492   0.83545   0.00000  Uiso   1.00
C278   C     0.85013   0.83614   0.93864   0.00000  Uiso   1.00
C279   C     0.82332   0.89534   0.99096   0.00000  Uiso   1.00
C280   C     0.81087   0.85547   0.08428   0.00000  Uiso   1.00
C281   C     0.78160   0.82531   0.23847   0.00000  Uiso   1.00
C282   C     0.85190   0.78269   0.75050   0.00000  Uiso   1.00
C283   C     0.82659   0.79695   0.64462   0.00000  Uiso   1.00
C284   C     0.81563   0.71208   0.57956   0.00000  Uiso   1.00
C285   C     0.78914   0.59895   0.44162   0.00000  Uiso   1.00
C286   C     0.91831   0.85526   0.86702   0.00000  Uiso   1.00
C287   C     0.94884   0.93053   0.85909   0.00000  Uiso   1.00
C288   C     0.99380   0.90675   0.89211   0.00000  Uiso   1.00
C289   C     0.07042   0.90630   0.93510   0.00000  Uiso   1.00
C290   C     0.89318   0.68884   0.90815   0.00000  Uiso   1.00
C291   C     0.86402   0.74050   0.97812   0.00000  Uiso   1.00
C292   C     0.85161   0.70053   0.07139   0.00000  Uiso   1.00
C293   C     0.82479   0.75966   0.12384   0.00000  Uiso   1.00
C294   C     0.86579   0.68705   0.78998   0.00000  Uiso   1.00
C295   C     0.85487   0.60214   0.72506   0.00000  Uiso   1.00
C296   C     0.82954   0.61627   0.61911   0.00000  Uiso   1.00
C297   C     0.93220   0.75962   0.90651   0.00000  Uiso   1.00
C298   C     0.97712   0.73572   0.93954   0.00000  Uiso   1.00
C299   C     0.00771   0.81094   0.93167   0.00000  Uiso   1.00
H300   H     0.85680   0.93937   0.80470   0.00000  Uiso   1.00
H301   H     0.81258   0.96934   0.96036   0.00000  Uiso   1.00
H302   H     0.81585   0.87097   0.61408   0.00000  Uiso   1.00
H303   H     0.93808   0.00453   0.82853   0.00000  Uiso   1.00
H304   H     0.76967   0.96038   0.15034   0.00000  Uiso   1.00
H305   H     0.77657   0.75296   0.42017   0.00000  Uiso   1.00
H306   H     0.03432   0.03460   0.87238   0.00000  Uiso   1.00
H307   H     0.90399   0.61438   0.93889   0.00000  Uiso   1.00
H308   H     0.86236   0.62652   0.10193   0.00000  Uiso   1.00
H309   H     0.86563   0.52815   0.75564   0.00000  Uiso   1.00
H310   H     0.98786   0.66171   0.97009   0.00000  Uiso   1.00
H311   H     0.81007   0.68213   0.26524   0.00000  Uiso   1.00
H312   H     0.81697   0.47471   0.53506   0.00000  Uiso   1.00
H313   H     0.07472   0.75635   0.98727   0.00000  Uiso   1.00
O314   O     0.76162   0.83509   0.31260   0.00000  Uiso   1.00
O315   O     0.77068   0.56297   0.35463   0.00000  Uiso   1.00
O316   O     0.10884   0.93247   0.94792   0.00000  Uiso   1.00
N317   N     0.78490   0.89324   0.15502   0.00000  Uiso   1.00
N318   N     0.79134   0.69931   0.47236   0.00000  Uiso   1.00
N319   N     0.03232   0.96261   0.89511   0.00000  Uiso   1.00
N320   N     0.80663   0.74351   0.21685   0.00000  Uiso   1.00
N321   N     0.81308   0.54958   0.53418   0.00000  Uiso   1.00
N322   N     0.05406   0.81289   0.95693   0.00000  Uiso   1.00
C323   C     0.36761   0.36492   0.83545   0.00000  Uiso   1.00
C324   C     0.35013   0.33614   0.93864   0.00000  Uiso   1.00
C325   C     0.32332   0.39534   0.99096   0.00000  Uiso   1.00
C326   C     0.31087   0.35547   0.08428   0.00000  Uiso   1.00
C327   C     0.28160   0.32531   0.23847   0.00000  Uiso   1.00
C328   C     0.35190   0.28269   0.75050   0.00000  Uiso   1.00
C329   C     0.32659   0.29695   0.64462   0.00000  Uiso   1.00
C330   C     0.31563   0.21208   0.57956   0.00000  Uiso   1.00
C331   C     0.28914   0.09895   0.44162   0.00000  Uiso   1.00
C332   C     0.41831   0.35526   0.86702   0.00000  Uiso   1.00
C333   C     0.44884   0.43053   0.85909   0.00000  Uiso   1.00
C334   C     0.49380   0.40675   0.89211   0.00000  Uiso   1.00
C335   C     0.57042   0.40630   0.93510   0.00000  Uiso   1.00
C336   C     0.39318   0.18884   0.90815   0.00000  Uiso   1.00
C337   C     0.36402   0.24050   0.97812   0.00000  Uiso   1.00
C338   C     0.35161   0.20053   0.07139   0.00000  Uiso   1.00
C339   C     0.32479   0.25966   0.12384   0.00000  Uiso   1.00
C340   C     0.36579   0.18705   0.78998   0.00000  Uiso   1.00
C341   C     0.35487   0.10214   0.72506   0.00000  Uiso   1.00
C342   C     0.32954   0.11627   0.61911   0.00000  Uiso   1.00
C343   C     0.43220   0.25962   0.90651   0.00000  Uiso   1.00
C344   C     0.47712   0.23572   0.93954   0.00000  Uiso   1.00
C345   C     0.50771   0.31094   0.93167   0.00000  Uiso   1.00
H346   H     0.35680   0.43937   0.80470   0.00000  Uiso   1.00
H347   H     0.31258   0.46934   0.96036   0.00000  Uiso   1.00
H348   H     0.31585   0.37097   0.61408   0.00000  Uiso   1.00
H349   H     0.43808   0.50453   0.82853   0.00000  Uiso   1.00
H350   H     0.26967   0.46038   0.15034   0.00000  Uiso   1.00
H351   H     0.27657   0.25296   0.42017   0.00000  Uiso   1.00
H352   H     0.53432   0.53460   0.87238   0.00000  Uiso   1.00
H353   H     0.40399   0.11438   0.93889   0.00000  Uiso   1.00
H354   H     0.36236   0.12652   0.10193   0.00000  Uiso   1.00
H355   H     0.36563   0.02815   0.75564   0.00000  Uiso   1.00
H356   H     0.48786   0.16171   0.97009   0.00000  Uiso   1.00
H357   H     0.31007   0.18213   0.26524   0.00000  Uiso   1.00
H358   H     0.31697   0.97471   0.53506   0.00000  Uiso   1.00
H359   H     0.57472   0.25635   0.98727   0.00000  Uiso   1.00
O360   O     0.26162   0.33509   0.31260   0.00000  Uiso   1.00
O361   O     0.27068   0.06297   0.35463   0.00000  Uiso   1.00
O362   O     0.60884   0.43247   0.94792   0.00000  Uiso   1.00
N363   N     0.28490   0.39324   0.15502   0.00000  Uiso   1.00
N364   N     0.29134   0.19931   0.47236   0.00000  Uiso   1.00
N365   N     0.53232   0.46261   0.89511   0.00000  Uiso   1.00
N366   N     0.30663   0.24351   0.21685   0.00000  Uiso   1.00
N367   N     0.31308   0.04958   0.53418   0.00000  Uiso   1.00
N368   N     0.55406   0.31289   0.95693   0.00000  Uiso   1.00
