data_job_03200
_audit_creation_date              2018-12-19
_audit_creation_method            'Materials Studio'
_symmetry_space_group_name_H-M    'P1'
_symmetry_Int_Tables_number       1
_symmetry_cell_setting            triclinic
loop_
_symmetry_equiv_pos_as_xyz
  x,y,z
_cell_length_a                    14.7943
_cell_length_b                    19.9338
_cell_length_c                    36.7560
_cell_angle_alpha                 90.0000
_cell_angle_beta                  108.6843
_cell_angle_gamma                 90.0000
loop_
_atom_site_label
_atom_site_type_symbol
_atom_site_fract_x
_atom_site_fract_y
_atom_site_fract_z
_atom_site_U_iso_or_equiv
_atom_site_adp_type
_atom_site_occupancy
C1     C     0.79338   0.43715   0.91912   0.00000  Uiso   1.00
C2     C     0.81845   0.50063   0.90127   0.00000  Uiso   1.00
C3     C     0.79857   0.56581   0.90960   0.00000  Uiso   1.00
C4     C     0.82733   0.61704   0.89018   0.00000  Uiso   1.00
C5     C     0.85907   0.71767   0.86652   0.00000  Uiso   1.00
C6     C     0.73388   0.39420   0.88568   0.00000  Uiso   1.00
C7     C     0.64290   0.36988   0.88091   0.00000  Uiso   1.00
C8     C     0.60049   0.33151   0.84838   0.00000  Uiso   1.00
C9     C     0.50096   0.26686   0.80053   0.00000  Uiso   1.00
C10    C     0.88705   0.39954   0.93664   0.00000  Uiso   1.00
C11    C     0.92485   0.37969   0.97472   0.00000  Uiso   1.00
C12    C     0.01138   0.34580   0.98509   0.00000  Uiso   1.00
C13    C     0.14967   0.28945   0.01636   0.00000  Uiso   1.00
C14    C     0.87983   0.41223   0.86984   0.00000  Uiso   1.00
C15    C     0.86540   0.48709   0.87450   0.00000  Uiso   1.00
C16    C     0.89421   0.53824   0.85507   0.00000  Uiso   1.00
C17    C     0.87437   0.60348   0.86337   0.00000  Uiso   1.00
C18    C     0.78083   0.38066   0.85891   0.00000  Uiso   1.00
C19    C     0.73855   0.34231   0.82638   0.00000  Uiso   1.00
C20    C     0.64752   0.31795   0.82156   0.00000  Uiso   1.00
C21    C     0.93401   0.38600   0.90988   0.00000  Uiso   1.00
C22    C     0.02049   0.35213   0.92019   0.00000  Uiso   1.00
C23    C     0.05842   0.33224   0.95827   0.00000  Uiso   1.00
H24    H     0.75682   0.44768   0.93996   0.00000  Uiso   1.00
H25    H     0.76222   0.57626   0.93031   0.00000  Uiso   1.00
H26    H     0.60659   0.38036   0.90163   0.00000  Uiso   1.00
H27    H     0.88849   0.39018   0.99542   0.00000  Uiso   1.00
H28    H     0.78888   0.71284   0.90780   0.00000  Uiso   1.00
H29    H     0.46073   0.29976   0.84733   0.00000  Uiso   1.00
H30    H     0.05518   0.32045   0.04511   0.00000  Uiso   1.00
H31    H     0.91639   0.40169   0.84900   0.00000  Uiso   1.00
H32    H     0.93054   0.52775   0.83436   0.00000  Uiso   1.00
H33    H     0.77491   0.33185   0.80568   0.00000  Uiso   1.00
H34    H     0.05681   0.34167   0.89947   0.00000  Uiso   1.00
H35    H     0.92549   0.67347   0.82992   0.00000  Uiso   1.00
H36    H     0.59734   0.26038   0.76945   0.00000  Uiso   1.00
H37    H     0.19179   0.28108   0.96723   0.00000  Uiso   1.00
O38    O     0.86359   0.77691   0.86086   0.00000  Uiso   1.00
O39    O     0.43308   0.23495   0.78153   0.00000  Uiso   1.00
O40    O     0.21298   0.26211   0.04101   0.00000  Uiso   1.00
N41    N     0.81911   0.68628   0.89148   0.00000  Uiso   1.00
N42    N     0.51230   0.30008   0.83494   0.00000  Uiso   1.00
N43    N     0.06804   0.31941   0.01985   0.00000  Uiso   1.00
N44    N     0.89262   0.66509   0.84958   0.00000  Uiso   1.00
N45    N     0.58581   0.27889   0.79304   0.00000  Uiso   1.00
N46    N     0.14155   0.29823   0.97794   0.00000  Uiso   1.00
C47    C     0.29338   0.93715   0.91912   0.00000  Uiso   1.00
C48    C     0.31845   0.00063   0.90127   0.00000  Uiso   1.00
C49    C     0.29857   0.06581   0.90960   0.00000  Uiso   1.00
C50    C     0.32733   0.11704   0.89018   0.00000  Uiso   1.00
C51    C     0.35907   0.21767   0.86652   0.00000  Uiso   1.00
C52    C     0.23388   0.89420   0.88568   0.00000  Uiso   1.00
C53    C     0.14290   0.86988   0.88091   0.00000  Uiso   1.00
C54    C     0.10049   0.83151   0.84838   0.00000  Uiso   1.00
C55    C     0.00096   0.76686   0.80053   0.00000  Uiso   1.00
C56    C     0.38705   0.89954   0.93664   0.00000  Uiso   1.00
C57    C     0.42485   0.87969   0.97472   0.00000  Uiso   1.00
C58    C     0.51138   0.84580   0.98509   0.00000  Uiso   1.00
C59    C     0.64967   0.78945   0.01636   0.00000  Uiso   1.00
C60    C     0.37983   0.91223   0.86984   0.00000  Uiso   1.00
C61    C     0.36540   0.98709   0.87450   0.00000  Uiso   1.00
C62    C     0.39421   0.03824   0.85507   0.00000  Uiso   1.00
C63    C     0.37437   0.10348   0.86337   0.00000  Uiso   1.00
C64    C     0.28083   0.88066   0.85891   0.00000  Uiso   1.00
C65    C     0.23855   0.84231   0.82638   0.00000  Uiso   1.00
C66    C     0.14752   0.81795   0.82156   0.00000  Uiso   1.00
C67    C     0.43401   0.88600   0.90988   0.00000  Uiso   1.00
C68    C     0.52049   0.85213   0.92019   0.00000  Uiso   1.00
C69    C     0.55842   0.83224   0.95827   0.00000  Uiso   1.00
H70    H     0.25682   0.94768   0.93996   0.00000  Uiso   1.00
H71    H     0.26222   0.07626   0.93031   0.00000  Uiso   1.00
H72    H     0.10659   0.88036   0.90163   0.00000  Uiso   1.00
H73    H     0.38849   0.89018   0.99542   0.00000  Uiso   1.00
H74    H     0.28888   0.21284   0.90780   0.00000  Uiso   1.00
H75    H     0.96073   0.79976   0.84733   0.00000  Uiso   1.00
H76    H     0.55518   0.82045   0.04511   0.00000  Uiso   1.00
H77    H     0.41639   0.90169   0.84900   0.00000  Uiso   1.00
H78    H     0.43054   0.02775   0.83436   0.00000  Uiso   1.00
H79    H     0.27491   0.83185   0.80568   0.00000  Uiso   1.00
H80    H     0.55681   0.84167   0.89947   0.00000  Uiso   1.00
H81    H     0.42549   0.17347   0.82992   0.00000  Uiso   1.00
H82    H     0.09734   0.76038   0.76945   0.00000  Uiso   1.00
H83    H     0.69179   0.78108   0.96723   0.00000  Uiso   1.00
O84    O     0.36359   0.27691   0.86086   0.00000  Uiso   1.00
O85    O     0.93308   0.73495   0.78153   0.00000  Uiso   1.00
O86    O     0.71298   0.76211   0.04101   0.00000  Uiso   1.00
N87    N     0.31911   0.18628   0.89148   0.00000  Uiso   1.00
N88    N     0.01230   0.80008   0.83494   0.00000  Uiso   1.00
N89    N     0.56804   0.81941   0.01985   0.00000  Uiso   1.00
N90    N     0.39262   0.16509   0.84958   0.00000  Uiso   1.00
N91    N     0.08581   0.77889   0.79304   0.00000  Uiso   1.00
N92    N     0.64155   0.79823   0.97794   0.00000  Uiso   1.00
C93    C     0.20662   0.43715   0.58088   0.00000  Uiso   1.00
C94    C     0.18155   0.50063   0.59873   0.00000  Uiso   1.00
C95    C     0.20143   0.56581   0.59040   0.00000  Uiso   1.00
C96    C     0.17267   0.61704   0.60982   0.00000  Uiso   1.00
C97    C     0.14093   0.71767   0.63348   0.00000  Uiso   1.00
C98    C     0.26612   0.39420   0.61432   0.00000  Uiso   1.00
C99    C     0.35710   0.36988   0.61909   0.00000  Uiso   1.00
C100   C     0.39951   0.33151   0.65162   0.00000  Uiso   1.00
C101   C     0.49904   0.26686   0.69947   0.00000  Uiso   1.00
C102   C     0.11295   0.39954   0.56336   0.00000  Uiso   1.00
C103   C     0.07515   0.37969   0.52528   0.00000  Uiso   1.00
C104   C     0.98862   0.34580   0.51491   0.00000  Uiso   1.00
C105   C     0.85033   0.28945   0.48364   0.00000  Uiso   1.00
C106   C     0.12017   0.41223   0.63016   0.00000  Uiso   1.00
C107   C     0.13460   0.48709   0.62550   0.00000  Uiso   1.00
C108   C     0.10579   0.53824   0.64493   0.00000  Uiso   1.00
C109   C     0.12563   0.60348   0.63663   0.00000  Uiso   1.00
C110   C     0.21917   0.38066   0.64109   0.00000  Uiso   1.00
C111   C     0.26145   0.34231   0.67362   0.00000  Uiso   1.00
C112   C     0.35248   0.31795   0.67844   0.00000  Uiso   1.00
C113   C     0.06599   0.38600   0.59012   0.00000  Uiso   1.00
C114   C     0.97951   0.35213   0.57981   0.00000  Uiso   1.00
C115   C     0.94158   0.33224   0.54173   0.00000  Uiso   1.00
H116   H     0.24318   0.44768   0.56004   0.00000  Uiso   1.00
H117   H     0.23778   0.57626   0.56969   0.00000  Uiso   1.00
H118   H     0.39341   0.38036   0.59837   0.00000  Uiso   1.00
H119   H     0.11151   0.39018   0.50458   0.00000  Uiso   1.00
H120   H     0.21112   0.71284   0.59220   0.00000  Uiso   1.00
H121   H     0.53927   0.29976   0.65267   0.00000  Uiso   1.00
H122   H     0.94482   0.32045   0.45489   0.00000  Uiso   1.00
H123   H     0.08361   0.40169   0.65100   0.00000  Uiso   1.00
H124   H     0.06946   0.52775   0.66564   0.00000  Uiso   1.00
H125   H     0.22509   0.33185   0.69432   0.00000  Uiso   1.00
H126   H     0.94319   0.34167   0.60053   0.00000  Uiso   1.00
H127   H     0.07451   0.67347   0.67008   0.00000  Uiso   1.00
H128   H     0.40266   0.26038   0.73055   0.00000  Uiso   1.00
H129   H     0.80821   0.28108   0.53277   0.00000  Uiso   1.00
O130   O     0.13641   0.77691   0.63914   0.00000  Uiso   1.00
O131   O     0.56692   0.23495   0.71847   0.00000  Uiso   1.00
O132   O     0.78702   0.26211   0.45899   0.00000  Uiso   1.00
N133   N     0.18089   0.68628   0.60852   0.00000  Uiso   1.00
N134   N     0.48770   0.30008   0.66506   0.00000  Uiso   1.00
N135   N     0.93196   0.31941   0.48015   0.00000  Uiso   1.00
N136   N     0.10738   0.66509   0.65042   0.00000  Uiso   1.00
N137   N     0.41419   0.27889   0.70696   0.00000  Uiso   1.00
N138   N     0.85845   0.29823   0.52206   0.00000  Uiso   1.00
C139   C     0.70662   0.93715   0.58088   0.00000  Uiso   1.00
C140   C     0.68155   0.00063   0.59873   0.00000  Uiso   1.00
C141   C     0.70143   0.06581   0.59040   0.00000  Uiso   1.00
C142   C     0.67267   0.11704   0.60982   0.00000  Uiso   1.00
C143   C     0.64093   0.21767   0.63348   0.00000  Uiso   1.00
C144   C     0.76612   0.89420   0.61432   0.00000  Uiso   1.00
C145   C     0.85710   0.86988   0.61909   0.00000  Uiso   1.00
C146   C     0.89951   0.83151   0.65162   0.00000  Uiso   1.00
C147   C     0.99904   0.76686   0.69947   0.00000  Uiso   1.00
C148   C     0.61295   0.89954   0.56336   0.00000  Uiso   1.00
C149   C     0.57515   0.87969   0.52528   0.00000  Uiso   1.00
C150   C     0.48862   0.84580   0.51491   0.00000  Uiso   1.00
C151   C     0.35033   0.78945   0.48364   0.00000  Uiso   1.00
C152   C     0.62017   0.91223   0.63016   0.00000  Uiso   1.00
C153   C     0.63460   0.98709   0.62550   0.00000  Uiso   1.00
C154   C     0.60579   0.03824   0.64493   0.00000  Uiso   1.00
C155   C     0.62563   0.10348   0.63663   0.00000  Uiso   1.00
C156   C     0.71917   0.88066   0.64109   0.00000  Uiso   1.00
C157   C     0.76145   0.84231   0.67362   0.00000  Uiso   1.00
C158   C     0.85248   0.81795   0.67844   0.00000  Uiso   1.00
C159   C     0.56599   0.88600   0.59012   0.00000  Uiso   1.00
C160   C     0.47951   0.85213   0.57981   0.00000  Uiso   1.00
C161   C     0.44158   0.83224   0.54173   0.00000  Uiso   1.00
H162   H     0.74318   0.94768   0.56004   0.00000  Uiso   1.00
H163   H     0.73778   0.07626   0.56969   0.00000  Uiso   1.00
H164   H     0.89341   0.88036   0.59837   0.00000  Uiso   1.00
H165   H     0.61151   0.89018   0.50458   0.00000  Uiso   1.00
H166   H     0.71112   0.21284   0.59220   0.00000  Uiso   1.00
H167   H     0.03927   0.79976   0.65267   0.00000  Uiso   1.00
H168   H     0.44482   0.82045   0.45489   0.00000  Uiso   1.00
H169   H     0.58361   0.90169   0.65100   0.00000  Uiso   1.00
H170   H     0.56946   0.02775   0.66564   0.00000  Uiso   1.00
H171   H     0.72509   0.83185   0.69432   0.00000  Uiso   1.00
H172   H     0.44319   0.84167   0.60053   0.00000  Uiso   1.00
H173   H     0.57451   0.17347   0.67008   0.00000  Uiso   1.00
H174   H     0.90266   0.76038   0.73055   0.00000  Uiso   1.00
H175   H     0.30821   0.78108   0.53277   0.00000  Uiso   1.00
O176   O     0.63641   0.27691   0.63914   0.00000  Uiso   1.00
O177   O     0.06692   0.73495   0.71847   0.00000  Uiso   1.00
O178   O     0.28702   0.76211   0.45899   0.00000  Uiso   1.00
N179   N     0.68089   0.18628   0.60852   0.00000  Uiso   1.00
N180   N     0.98770   0.80008   0.66506   0.00000  Uiso   1.00
N181   N     0.43196   0.81941   0.48015   0.00000  Uiso   1.00
N182   N     0.60738   0.16509   0.65042   0.00000  Uiso   1.00
N183   N     0.91419   0.77889   0.70696   0.00000  Uiso   1.00
N184   N     0.35845   0.79823   0.52206   0.00000  Uiso   1.00
C185   C     0.20662   0.56285   0.08088   0.00000  Uiso   1.00
C186   C     0.18155   0.49937   0.09873   0.00000  Uiso   1.00
C187   C     0.20143   0.43419   0.09040   0.00000  Uiso   1.00
C188   C     0.17267   0.38296   0.10982   0.00000  Uiso   1.00
C189   C     0.14093   0.28233   0.13348   0.00000  Uiso   1.00
C190   C     0.26612   0.60580   0.11432   0.00000  Uiso   1.00
C191   C     0.35710   0.63012   0.11909   0.00000  Uiso   1.00
C192   C     0.39951   0.66849   0.15162   0.00000  Uiso   1.00
C193   C     0.49904   0.73314   0.19947   0.00000  Uiso   1.00
C194   C     0.11295   0.60046   0.06336   0.00000  Uiso   1.00
C195   C     0.07515   0.62031   0.02528   0.00000  Uiso   1.00
C196   C     0.98862   0.65420   0.01491   0.00000  Uiso   1.00
C197   C     0.85033   0.71055   0.98364   0.00000  Uiso   1.00
C198   C     0.12017   0.58777   0.13016   0.00000  Uiso   1.00
C199   C     0.13460   0.51291   0.12550   0.00000  Uiso   1.00
C200   C     0.10579   0.46176   0.14493   0.00000  Uiso   1.00
C201   C     0.12563   0.39652   0.13663   0.00000  Uiso   1.00
C202   C     0.21917   0.61934   0.14109   0.00000  Uiso   1.00
C203   C     0.26145   0.65769   0.17362   0.00000  Uiso   1.00
C204   C     0.35248   0.68205   0.17844   0.00000  Uiso   1.00
C205   C     0.06599   0.61400   0.09012   0.00000  Uiso   1.00
C206   C     0.97951   0.64787   0.07981   0.00000  Uiso   1.00
C207   C     0.94158   0.66776   0.04173   0.00000  Uiso   1.00
H208   H     0.24318   0.55232   0.06004   0.00000  Uiso   1.00
H209   H     0.23778   0.42374   0.06969   0.00000  Uiso   1.00
H210   H     0.39341   0.61964   0.09837   0.00000  Uiso   1.00
H211   H     0.11151   0.60982   0.00458   0.00000  Uiso   1.00
H212   H     0.21112   0.28716   0.09220   0.00000  Uiso   1.00
H213   H     0.53927   0.70024   0.15267   0.00000  Uiso   1.00
H214   H     0.94482   0.67955   0.95489   0.00000  Uiso   1.00
H215   H     0.08361   0.59831   0.15100   0.00000  Uiso   1.00
H216   H     0.06946   0.47225   0.16564   0.00000  Uiso   1.00
H217   H     0.22509   0.66815   0.19432   0.00000  Uiso   1.00
H218   H     0.94319   0.65833   0.10053   0.00000  Uiso   1.00
H219   H     0.07451   0.32653   0.17008   0.00000  Uiso   1.00
H220   H     0.40266   0.73962   0.23055   0.00000  Uiso   1.00
H221   H     0.80821   0.71892   0.03277   0.00000  Uiso   1.00
O222   O     0.13641   0.22309   0.13914   0.00000  Uiso   1.00
O223   O     0.56692   0.76505   0.21847   0.00000  Uiso   1.00
O224   O     0.78702   0.73789   0.95899   0.00000  Uiso   1.00
N225   N     0.18089   0.31372   0.10852   0.00000  Uiso   1.00
N226   N     0.48770   0.69992   0.16506   0.00000  Uiso   1.00
N227   N     0.93196   0.68059   0.98015   0.00000  Uiso   1.00
N228   N     0.10738   0.33491   0.15042   0.00000  Uiso   1.00
N229   N     0.41419   0.72111   0.20696   0.00000  Uiso   1.00
N230   N     0.85845   0.70177   0.02206   0.00000  Uiso   1.00
C231   C     0.70662   0.06285   0.08088   0.00000  Uiso   1.00
C232   C     0.68155   0.99937   0.09873   0.00000  Uiso   1.00
C233   C     0.70143   0.93419   0.09040   0.00000  Uiso   1.00
C234   C     0.67267   0.88296   0.10982   0.00000  Uiso   1.00
C235   C     0.64093   0.78233   0.13348   0.00000  Uiso   1.00
C236   C     0.76612   0.10580   0.11432   0.00000  Uiso   1.00
C237   C     0.85710   0.13012   0.11909   0.00000  Uiso   1.00
C238   C     0.89951   0.16849   0.15162   0.00000  Uiso   1.00
C239   C     0.99904   0.23314   0.19947   0.00000  Uiso   1.00
C240   C     0.61295   0.10046   0.06336   0.00000  Uiso   1.00
C241   C     0.57515   0.12031   0.02528   0.00000  Uiso   1.00
C242   C     0.48862   0.15420   0.01491   0.00000  Uiso   1.00
C243   C     0.35033   0.21055   0.98364   0.00000  Uiso   1.00
C244   C     0.62017   0.08777   0.13016   0.00000  Uiso   1.00
C245   C     0.63460   0.01291   0.12550   0.00000  Uiso   1.00
C246   C     0.60579   0.96176   0.14493   0.00000  Uiso   1.00
C247   C     0.62563   0.89652   0.13663   0.00000  Uiso   1.00
C248   C     0.71917   0.11934   0.14109   0.00000  Uiso   1.00
C249   C     0.76145   0.15769   0.17362   0.00000  Uiso   1.00
C250   C     0.85248   0.18205   0.17844   0.00000  Uiso   1.00
C251   C     0.56599   0.11400   0.09012   0.00000  Uiso   1.00
C252   C     0.47951   0.14787   0.07981   0.00000  Uiso   1.00
C253   C     0.44158   0.16776   0.04173   0.00000  Uiso   1.00
H254   H     0.74318   0.05232   0.06004   0.00000  Uiso   1.00
H255   H     0.73778   0.92374   0.06969   0.00000  Uiso   1.00
H256   H     0.89341   0.11964   0.09837   0.00000  Uiso   1.00
H257   H     0.61151   0.10982   0.00458   0.00000  Uiso   1.00
H258   H     0.71112   0.78716   0.09220   0.00000  Uiso   1.00
H259   H     0.03927   0.20024   0.15267   0.00000  Uiso   1.00
H260   H     0.44482   0.17955   0.95489   0.00000  Uiso   1.00
H261   H     0.58361   0.09831   0.15100   0.00000  Uiso   1.00
H262   H     0.56946   0.97225   0.16564   0.00000  Uiso   1.00
H263   H     0.72509   0.16815   0.19432   0.00000  Uiso   1.00
H264   H     0.44319   0.15833   0.10053   0.00000  Uiso   1.00
H265   H     0.57451   0.82653   0.17008   0.00000  Uiso   1.00
H266   H     0.90266   0.23962   0.23055   0.00000  Uiso   1.00
H267   H     0.30821   0.21892   0.03277   0.00000  Uiso   1.00
O268   O     0.63641   0.72309   0.13914   0.00000  Uiso   1.00
O269   O     0.06692   0.26505   0.21847   0.00000  Uiso   1.00
O270   O     0.28702   0.23789   0.95899   0.00000  Uiso   1.00
N271   N     0.68089   0.81372   0.10852   0.00000  Uiso   1.00
N272   N     0.98770   0.19992   0.16506   0.00000  Uiso   1.00
N273   N     0.43196   0.18059   0.98015   0.00000  Uiso   1.00
N274   N     0.60738   0.83491   0.15042   0.00000  Uiso   1.00
N275   N     0.91419   0.22111   0.20696   0.00000  Uiso   1.00
N276   N     0.35845   0.20177   0.02206   0.00000  Uiso   1.00
C277   C     0.79338   0.56285   0.41912   0.00000  Uiso   1.00
C278   C     0.81845   0.49937   0.40127   0.00000  Uiso   1.00
C279   C     0.79857   0.43419   0.40960   0.00000  Uiso   1.00
C280   C     0.82733   0.38296   0.39018   0.00000  Uiso   1.00
C281   C     0.85907   0.28233   0.36652   0.00000  Uiso   1.00
C282   C     0.73388   0.60580   0.38568   0.00000  Uiso   1.00
C283   C     0.64290   0.63012   0.38091   0.00000  Uiso   1.00
C284   C     0.60049   0.66849   0.34838   0.00000  Uiso   1.00
C285   C     0.50096   0.73314   0.30053   0.00000  Uiso   1.00
C286   C     0.88705   0.60046   0.43664   0.00000  Uiso   1.00
C287   C     0.92485   0.62031   0.47472   0.00000  Uiso   1.00
C288   C     0.01138   0.65420   0.48509   0.00000  Uiso   1.00
C289   C     0.14967   0.71055   0.51636   0.00000  Uiso   1.00
C290   C     0.87983   0.58777   0.36984   0.00000  Uiso   1.00
C291   C     0.86540   0.51291   0.37450   0.00000  Uiso   1.00
C292   C     0.89421   0.46176   0.35507   0.00000  Uiso   1.00
C293   C     0.87437   0.39652   0.36337   0.00000  Uiso   1.00
C294   C     0.78083   0.61934   0.35891   0.00000  Uiso   1.00
C295   C     0.73855   0.65769   0.32638   0.00000  Uiso   1.00
C296   C     0.64752   0.68205   0.32156   0.00000  Uiso   1.00
C297   C     0.93401   0.61400   0.40988   0.00000  Uiso   1.00
C298   C     0.02049   0.64787   0.42019   0.00000  Uiso   1.00
C299   C     0.05842   0.66776   0.45827   0.00000  Uiso   1.00
H300   H     0.75682   0.55232   0.43996   0.00000  Uiso   1.00
H301   H     0.76222   0.42374   0.43031   0.00000  Uiso   1.00
H302   H     0.60659   0.61964   0.40163   0.00000  Uiso   1.00
H303   H     0.88849   0.60982   0.49542   0.00000  Uiso   1.00
H304   H     0.78888   0.28716   0.40780   0.00000  Uiso   1.00
H305   H     0.46073   0.70024   0.34733   0.00000  Uiso   1.00
H306   H     0.05518   0.67955   0.54511   0.00000  Uiso   1.00
H307   H     0.91639   0.59831   0.34900   0.00000  Uiso   1.00
H308   H     0.93054   0.47225   0.33436   0.00000  Uiso   1.00
H309   H     0.77491   0.66815   0.30568   0.00000  Uiso   1.00
H310   H     0.05681   0.65833   0.39947   0.00000  Uiso   1.00
H311   H     0.92549   0.32653   0.32992   0.00000  Uiso   1.00
H312   H     0.59734   0.73962   0.26945   0.00000  Uiso   1.00
H313   H     0.19179   0.71892   0.46723   0.00000  Uiso   1.00
O314   O     0.86359   0.22309   0.36086   0.00000  Uiso   1.00
O315   O     0.43308   0.76505   0.28153   0.00000  Uiso   1.00
O316   O     0.21298   0.73789   0.54101   0.00000  Uiso   1.00
N317   N     0.81911   0.31372   0.39148   0.00000  Uiso   1.00
N318   N     0.51230   0.69992   0.33494   0.00000  Uiso   1.00
N319   N     0.06804   0.68059   0.51985   0.00000  Uiso   1.00
N320   N     0.89262   0.33491   0.34958   0.00000  Uiso   1.00
N321   N     0.58581   0.72111   0.29304   0.00000  Uiso   1.00
N322   N     0.14155   0.70177   0.47794   0.00000  Uiso   1.00
C323   C     0.29338   0.06285   0.41912   0.00000  Uiso   1.00
C324   C     0.31845   0.99937   0.40127   0.00000  Uiso   1.00
C325   C     0.29857   0.93419   0.40960   0.00000  Uiso   1.00
C326   C     0.32733   0.88296   0.39018   0.00000  Uiso   1.00
C327   C     0.35907   0.78233   0.36652   0.00000  Uiso   1.00
C328   C     0.23388   0.10580   0.38568   0.00000  Uiso   1.00
C329   C     0.14290   0.13012   0.38091   0.00000  Uiso   1.00
C330   C     0.10049   0.16849   0.34838   0.00000  Uiso   1.00
C331   C     0.00096   0.23314   0.30053   0.00000  Uiso   1.00
C332   C     0.38705   0.10046   0.43664   0.00000  Uiso   1.00
C333   C     0.42485   0.12031   0.47472   0.00000  Uiso   1.00
C334   C     0.51138   0.15420   0.48509   0.00000  Uiso   1.00
C335   C     0.64967   0.21055   0.51636   0.00000  Uiso   1.00
C336   C     0.37983   0.08777   0.36984   0.00000  Uiso   1.00
C337   C     0.36540   0.01291   0.37450   0.00000  Uiso   1.00
C338   C     0.39421   0.96176   0.35507   0.00000  Uiso   1.00
C339   C     0.37437   0.89652   0.36337   0.00000  Uiso   1.00
C340   C     0.28083   0.11934   0.35891   0.00000  Uiso   1.00
C341   C     0.23855   0.15769   0.32638   0.00000  Uiso   1.00
C342   C     0.14752   0.18205   0.32156   0.00000  Uiso   1.00
C343   C     0.43401   0.11400   0.40988   0.00000  Uiso   1.00
C344   C     0.52049   0.14787   0.42019   0.00000  Uiso   1.00
C345   C     0.55842   0.16776   0.45827   0.00000  Uiso   1.00
H346   H     0.25682   0.05232   0.43996   0.00000  Uiso   1.00
H347   H     0.26222   0.92374   0.43031   0.00000  Uiso   1.00
H348   H     0.10659   0.11964   0.40163   0.00000  Uiso   1.00
H349   H     0.38849   0.10982   0.49542   0.00000  Uiso   1.00
H350   H     0.28888   0.78716   0.40780   0.00000  Uiso   1.00
H351   H     0.96073   0.20024   0.34733   0.00000  Uiso   1.00
H352   H     0.55518   0.17955   0.54511   0.00000  Uiso   1.00
H353   H     0.41639   0.09831   0.34900   0.00000  Uiso   1.00
H354   H     0.43054   0.97225   0.33436   0.00000  Uiso   1.00
H355   H     0.27491   0.16815   0.30568   0.00000  Uiso   1.00
H356   H     0.55681   0.15833   0.39947   0.00000  Uiso   1.00
H357   H     0.42549   0.82653   0.32992   0.00000  Uiso   1.00
H358   H     0.09734   0.23962   0.26945   0.00000  Uiso   1.00
H359   H     0.69179   0.21892   0.46723   0.00000  Uiso   1.00
O360   O     0.36359   0.72309   0.36086   0.00000  Uiso   1.00
O361   O     0.93308   0.26505   0.28153   0.00000  Uiso   1.00
O362   O     0.71298   0.23789   0.54101   0.00000  Uiso   1.00
N363   N     0.31911   0.81372   0.39148   0.00000  Uiso   1.00
N364   N     0.01230   0.19992   0.33494   0.00000  Uiso   1.00
N365   N     0.56804   0.18059   0.51985   0.00000  Uiso   1.00
N366   N     0.39262   0.83491   0.34958   0.00000  Uiso   1.00
N367   N     0.08581   0.22111   0.29304   0.00000  Uiso   1.00
N368   N     0.64155   0.20177   0.47794   0.00000  Uiso   1.00
