data_job_00372
_audit_creation_date              2018-12-19
_audit_creation_method            'Materials Studio'
_symmetry_space_group_name_H-M    'P1'
_symmetry_Int_Tables_number       1
_symmetry_cell_setting            triclinic
loop_
_symmetry_equiv_pos_as_xyz
  x,y,z
_cell_length_a                    9.7021
_cell_length_b                    11.7814
_cell_length_c                    12.4023
_cell_angle_alpha                 83.8123
_cell_angle_beta                  77.2930
_cell_angle_gamma                 110.8564
loop_
_atom_site_label
_atom_site_type_symbol
_atom_site_fract_x
_atom_site_fract_y
_atom_site_fract_z
_atom_site_U_iso_or_equiv
_atom_site_adp_type
_atom_site_occupancy
C1     C     0.94827   0.32959   0.19794   0.00000  Uiso   1.00
C2     C     0.81647   0.20465   0.25273   0.00000  Uiso   1.00
C3     C     0.66140   0.18023   0.27087   0.00000  Uiso   1.00
C4     C     0.55874   0.05994   0.32225   0.00000  Uiso   1.00
C5     C     0.34636   0.88002   0.40251   0.00000  Uiso   1.00
C6     C     0.04092   0.36119   0.28307   0.00000  Uiso   1.00
C7     C     0.07459   0.46839   0.32671   0.00000  Uiso   1.00
C8     C     0.16088   0.47988   0.40362   0.00000  Uiso   1.00
C9     C     0.29707   0.54303   0.53092   0.00000  Uiso   1.00
C10    C     0.05145   0.30629   0.09845   0.00000  Uiso   1.00
C11    C     0.09400   0.36736   0.98685   0.00000  Uiso   1.00
C12    C     0.18919   0.33264   0.90832   0.00000  Uiso   1.00
C13    C     0.34172   0.31056   0.74896   0.00000  Uiso   1.00
C14    C     0.04170   0.15938   0.25692   0.00000  Uiso   1.00
C15    C     0.86722   0.11220   0.28477   0.00000  Uiso   1.00
C16    C     0.76476   0.99192   0.33613   0.00000  Uiso   1.00
C17    C     0.60957   0.96732   0.35435   0.00000  Uiso   1.00
C18    C     0.09167   0.26874   0.31511   0.00000  Uiso   1.00
C19    C     0.17795   0.28008   0.39197   0.00000  Uiso   1.00
C20    C     0.21172   0.38726   0.43572   0.00000  Uiso   1.00
C21    C     0.10219   0.21384   0.13048   0.00000  Uiso   1.00
C22    C     0.19735   0.17904   0.05211   0.00000  Uiso   1.00
C23    C     0.24003   0.24003   0.94042   0.00000  Uiso   1.00
H24    H     0.90877   0.40157   0.17300   0.00000  Uiso   1.00
H25    H     0.62218   0.25180   0.24607   0.00000  Uiso   1.00
H26    H     0.03531   0.53992   0.30189   0.00000  Uiso   1.00
H27    H     0.05471   0.43889   0.96209   0.00000  Uiso   1.00
H28    H     0.32681   0.04500   0.34126   0.00000  Uiso   1.00
H29    H     0.19797   0.65253   0.45892   0.00000  Uiso   1.00
H30    H     0.23888   0.43950   0.74238   0.00000  Uiso   1.00
H31    H     0.08121   0.08741   0.28187   0.00000  Uiso   1.00
H32    H     0.80407   0.92039   0.36092   0.00000  Uiso   1.00
H33    H     0.21720   0.20852   0.41674   0.00000  Uiso   1.00
H34    H     0.23660   0.10749   0.07693   0.00000  Uiso   1.00
H35    H     0.47444   0.77602   0.43448   0.00000  Uiso   1.00
H36    H     0.34560   0.38356   0.55214   0.00000  Uiso   1.00
H37    H     0.38651   0.17052   0.83560   0.00000  Uiso   1.00
O38    O     0.21520   0.80632   0.43794   0.00000  Uiso   1.00
O39    O     0.35815   0.60340   0.59229   0.00000  Uiso   1.00
O40    O     0.41181   0.32390   0.65221   0.00000  Uiso   1.00
N41    N     0.39959   0.00461   0.35233   0.00000  Uiso   1.00
N42    N     0.21405   0.57261   0.46235   0.00000  Uiso   1.00
N43    N     0.25233   0.37347   0.79245   0.00000  Uiso   1.00
N44    N     0.47902   0.85987   0.40249   0.00000  Uiso   1.00
N45    N     0.29349   0.42788   0.51251   0.00000  Uiso   1.00
N46    N     0.33177   0.22873   0.84261   0.00000  Uiso   1.00
C47    C     0.05173   0.67041   0.80206   0.00000  Uiso   1.00
C48    C     0.18353   0.79535   0.74727   0.00000  Uiso   1.00
C49    C     0.33860   0.81977   0.72913   0.00000  Uiso   1.00
C50    C     0.44126   0.94006   0.67775   0.00000  Uiso   1.00
C51    C     0.65364   0.11998   0.59749   0.00000  Uiso   1.00
C52    C     0.95908   0.63881   0.71693   0.00000  Uiso   1.00
C53    C     0.92541   0.53161   0.67329   0.00000  Uiso   1.00
C54    C     0.83912   0.52012   0.59638   0.00000  Uiso   1.00
C55    C     0.70293   0.45697   0.46908   0.00000  Uiso   1.00
C56    C     0.94855   0.69371   0.90155   0.00000  Uiso   1.00
C57    C     0.90600   0.63264   0.01315   0.00000  Uiso   1.00
C58    C     0.81081   0.66736   0.09168   0.00000  Uiso   1.00
C59    C     0.65828   0.68944   0.25104   0.00000  Uiso   1.00
C60    C     0.95830   0.84062   0.74308   0.00000  Uiso   1.00
C61    C     0.13278   0.88780   0.71523   0.00000  Uiso   1.00
C62    C     0.23524   0.00808   0.66387   0.00000  Uiso   1.00
C63    C     0.39043   0.03268   0.64565   0.00000  Uiso   1.00
C64    C     0.90833   0.73126   0.68489   0.00000  Uiso   1.00
C65    C     0.82205   0.71992   0.60803   0.00000  Uiso   1.00
C66    C     0.78828   0.61274   0.56428   0.00000  Uiso   1.00
C67    C     0.89781   0.78616   0.86952   0.00000  Uiso   1.00
C68    C     0.80265   0.82096   0.94789   0.00000  Uiso   1.00
C69    C     0.75997   0.75997   0.05958   0.00000  Uiso   1.00
H70    H     0.09123   0.59843   0.82700   0.00000  Uiso   1.00
H71    H     0.37782   0.74820   0.75393   0.00000  Uiso   1.00
H72    H     0.96469   0.46008   0.69811   0.00000  Uiso   1.00
H73    H     0.94529   0.56111   0.03791   0.00000  Uiso   1.00
H74    H     0.67319   0.95500   0.65874   0.00000  Uiso   1.00
H75    H     0.80203   0.34747   0.54108   0.00000  Uiso   1.00
H76    H     0.76112   0.56050   0.25762   0.00000  Uiso   1.00
H77    H     0.91879   0.91259   0.71813   0.00000  Uiso   1.00
H78    H     0.19593   0.07961   0.63908   0.00000  Uiso   1.00
H79    H     0.78280   0.79148   0.58326   0.00000  Uiso   1.00
H80    H     0.76340   0.89251   0.92307   0.00000  Uiso   1.00
H81    H     0.52556   0.22398   0.56552   0.00000  Uiso   1.00
H82    H     0.65440   0.61644   0.44786   0.00000  Uiso   1.00
H83    H     0.61349   0.82948   0.16440   0.00000  Uiso   1.00
O84    O     0.78480   0.19368   0.56206   0.00000  Uiso   1.00
O85    O     0.64185   0.39660   0.40771   0.00000  Uiso   1.00
O86    O     0.58819   0.67610   0.34779   0.00000  Uiso   1.00
N87    N     0.60041   0.99539   0.64767   0.00000  Uiso   1.00
N88    N     0.78595   0.42739   0.53765   0.00000  Uiso   1.00
N89    N     0.74767   0.62653   0.20755   0.00000  Uiso   1.00
N90    N     0.52098   0.14013   0.59751   0.00000  Uiso   1.00
N91    N     0.70651   0.57212   0.48749   0.00000  Uiso   1.00
N92    N     0.66823   0.77127   0.15739   0.00000  Uiso   1.00
