data_job_00603
_audit_creation_date              2018-12-19
_audit_creation_method            'Materials Studio'
_symmetry_space_group_name_H-M    'P1'
_symmetry_Int_Tables_number       1
_symmetry_cell_setting            triclinic
loop_
_symmetry_equiv_pos_as_xyz
  x,y,z
_cell_length_a                    12.8144
_cell_length_b                    21.6891
_cell_length_c                    16.1885
_cell_angle_alpha                 90.0000
_cell_angle_beta                  90.0000
_cell_angle_gamma                 90.0000
loop_
_atom_site_label
_atom_site_type_symbol
_atom_site_fract_x
_atom_site_fract_y
_atom_site_fract_z
_atom_site_U_iso_or_equiv
_atom_site_adp_type
_atom_site_occupancy
C1     C     0.83534   0.07316   0.40209   0.00000  Uiso   1.00
C2     C     0.74162   0.09414   0.45288   0.00000  Uiso   1.00
C3     C     0.74551   0.11895   0.53184   0.00000  Uiso   1.00
C4     C     0.65110   0.13525   0.56781   0.00000  Uiso   1.00
C5     C     0.52000   0.16905   0.65302   0.00000  Uiso   1.00
C6     C     0.81469   0.00595   0.37979   0.00000  Uiso   1.00
C7     C     0.88003   0.95662   0.39728   0.00000  Uiso   1.00
C8     C     0.84715   0.89869   0.37171   0.00000  Uiso   1.00
C9     C     0.82953   0.79557   0.34339   0.00000  Uiso   1.00
C10    C     0.83007   0.10900   0.32116   0.00000  Uiso   1.00
C11    C     0.90835   0.14630   0.28934   0.00000  Uiso   1.00
C12    C     0.88842   0.17512   0.21440   0.00000  Uiso   1.00
C13    C     0.89468   0.23201   0.09504   0.00000  Uiso   1.00
C14    C     0.66076   0.05800   0.32556   0.00000  Uiso   1.00
C15    C     0.64680   0.08590   0.41131   0.00000  Uiso   1.00
C16    C     0.55236   0.10217   0.44717   0.00000  Uiso   1.00
C17    C     0.55611   0.12700   0.52617   0.00000  Uiso   1.00
C18    C     0.71987   0.99771   0.33822   0.00000  Uiso   1.00
C19    C     0.68688   0.93984   0.31261   0.00000  Uiso   1.00
C20    C     0.75215   0.89043   0.33007   0.00000  Uiso   1.00
C21    C     0.73525   0.10077   0.27959   0.00000  Uiso   1.00
C22    C     0.71520   0.12953   0.20468   0.00000  Uiso   1.00
C23    C     0.79343   0.16687   0.17275   0.00000  Uiso   1.00
H24    H     0.90917   0.07957   0.43445   0.00000  Uiso   1.00
H25    H     0.81891   0.12531   0.56399   0.00000  Uiso   1.00
H26    H     0.95341   0.96301   0.42944   0.00000  Uiso   1.00
H27    H     0.98172   0.15266   0.32153   0.00000  Uiso   1.00
H28    H     0.67702   0.17237   0.68929   0.00000  Uiso   1.00
H29    H     0.96065   0.83014   0.40557   0.00000  Uiso   1.00
H30    H     0.02035   0.23007   0.17800   0.00000  Uiso   1.00
H31    H     0.58694   0.05158   0.29320   0.00000  Uiso   1.00
H32    H     0.47899   0.09579   0.41499   0.00000  Uiso   1.00
H33    H     0.61350   0.93349   0.28044   0.00000  Uiso   1.00
H34    H     0.64181   0.12314   0.17253   0.00000  Uiso   1.00
H35    H     0.40113   0.14841   0.56836   0.00000  Uiso   1.00
H36    H     0.68477   0.80618   0.28463   0.00000  Uiso   1.00
H37    H     0.74446   0.20611   0.05707   0.00000  Uiso   1.00
O38    O     0.47388   0.18995   0.71150   0.00000  Uiso   1.00
O39    O     0.84600   0.74097   0.33926   0.00000  Uiso   1.00
O40    O     0.92432   0.26567   0.04069   0.00000  Uiso   1.00
N41    N     0.62690   0.16067   0.64411   0.00000  Uiso   1.00
N42    N     0.89208   0.84071   0.37886   0.00000  Uiso   1.00
N43    N     0.94790   0.21460   0.16609   0.00000  Uiso   1.00
N44    N     0.47845   0.14778   0.57904   0.00000  Uiso   1.00
N45    N     0.74362   0.82782   0.31378   0.00000  Uiso   1.00
N46    N     0.79945   0.20171   0.10101   0.00000  Uiso   1.00
C47    C     0.66466   0.92684   0.90209   0.00000  Uiso   1.00
C48    C     0.75838   0.90586   0.95288   0.00000  Uiso   1.00
C49    C     0.75449   0.88105   0.03184   0.00000  Uiso   1.00
C50    C     0.84890   0.86475   0.06781   0.00000  Uiso   1.00
C51    C     0.98000   0.83095   0.15302   0.00000  Uiso   1.00
C52    C     0.68531   0.99405   0.87979   0.00000  Uiso   1.00
C53    C     0.61997   0.04338   0.89728   0.00000  Uiso   1.00
C54    C     0.65285   0.10131   0.87171   0.00000  Uiso   1.00
C55    C     0.67047   0.20443   0.84339   0.00000  Uiso   1.00
C56    C     0.66993   0.89100   0.82116   0.00000  Uiso   1.00
C57    C     0.59165   0.85370   0.78934   0.00000  Uiso   1.00
C58    C     0.61158   0.82488   0.71440   0.00000  Uiso   1.00
C59    C     0.60532   0.76799   0.59504   0.00000  Uiso   1.00
C60    C     0.83924   0.94200   0.82556   0.00000  Uiso   1.00
C61    C     0.85320   0.91410   0.91131   0.00000  Uiso   1.00
C62    C     0.94764   0.89783   0.94717   0.00000  Uiso   1.00
C63    C     0.94389   0.87300   0.02617   0.00000  Uiso   1.00
C64    C     0.78013   0.00229   0.83822   0.00000  Uiso   1.00
C65    C     0.81312   0.06016   0.81261   0.00000  Uiso   1.00
C66    C     0.74785   0.10957   0.83007   0.00000  Uiso   1.00
C67    C     0.76475   0.89923   0.77959   0.00000  Uiso   1.00
C68    C     0.78480   0.87047   0.70468   0.00000  Uiso   1.00
C69    C     0.70657   0.83313   0.67275   0.00000  Uiso   1.00
H70    H     0.59083   0.92043   0.93445   0.00000  Uiso   1.00
H71    H     0.68109   0.87469   0.06399   0.00000  Uiso   1.00
H72    H     0.54659   0.03699   0.92944   0.00000  Uiso   1.00
H73    H     0.51828   0.84734   0.82153   0.00000  Uiso   1.00
H74    H     0.82298   0.82763   0.18929   0.00000  Uiso   1.00
H75    H     0.53935   0.16986   0.90557   0.00000  Uiso   1.00
H76    H     0.47965   0.76993   0.67800   0.00000  Uiso   1.00
H77    H     0.91306   0.94842   0.79320   0.00000  Uiso   1.00
H78    H     0.02101   0.90421   0.91499   0.00000  Uiso   1.00
H79    H     0.88650   0.06651   0.78044   0.00000  Uiso   1.00
H80    H     0.85819   0.87686   0.67253   0.00000  Uiso   1.00
H81    H     0.09887   0.85159   0.06836   0.00000  Uiso   1.00
H82    H     0.81523   0.19382   0.78463   0.00000  Uiso   1.00
H83    H     0.75554   0.79389   0.55707   0.00000  Uiso   1.00
O84    O     0.02612   0.81005   0.21150   0.00000  Uiso   1.00
O85    O     0.65400   0.25903   0.83926   0.00000  Uiso   1.00
O86    O     0.57568   0.73433   0.54069   0.00000  Uiso   1.00
N87    N     0.87310   0.83933   0.14411   0.00000  Uiso   1.00
N88    N     0.60792   0.15929   0.87886   0.00000  Uiso   1.00
N89    N     0.55210   0.78540   0.66609   0.00000  Uiso   1.00
N90    N     0.02155   0.85222   0.07904   0.00000  Uiso   1.00
N91    N     0.75638   0.17218   0.81378   0.00000  Uiso   1.00
N92    N     0.70055   0.79829   0.60101   0.00000  Uiso   1.00
C93    C     0.16466   0.57316   0.09791   0.00000  Uiso   1.00
C94    C     0.25838   0.59414   0.04712   0.00000  Uiso   1.00
C95    C     0.25449   0.61895   0.96816   0.00000  Uiso   1.00
C96    C     0.34890   0.63525   0.93219   0.00000  Uiso   1.00
C97    C     0.48000   0.66905   0.84698   0.00000  Uiso   1.00
C98    C     0.18531   0.50595   0.12021   0.00000  Uiso   1.00
C99    C     0.11997   0.45662   0.10272   0.00000  Uiso   1.00
C100   C     0.15285   0.39869   0.12829   0.00000  Uiso   1.00
C101   C     0.17047   0.29557   0.15661   0.00000  Uiso   1.00
C102   C     0.16993   0.60900   0.17884   0.00000  Uiso   1.00
C103   C     0.09165   0.64630   0.21066   0.00000  Uiso   1.00
C104   C     0.11158   0.67512   0.28560   0.00000  Uiso   1.00
C105   C     0.10532   0.73201   0.40496   0.00000  Uiso   1.00
C106   C     0.33924   0.55800   0.17444   0.00000  Uiso   1.00
C107   C     0.35320   0.58590   0.08869   0.00000  Uiso   1.00
C108   C     0.44764   0.60217   0.05283   0.00000  Uiso   1.00
C109   C     0.44389   0.62700   0.97383   0.00000  Uiso   1.00
C110   C     0.28013   0.49771   0.16178   0.00000  Uiso   1.00
C111   C     0.31312   0.43984   0.18739   0.00000  Uiso   1.00
C112   C     0.24785   0.39043   0.16993   0.00000  Uiso   1.00
C113   C     0.26475   0.60077   0.22041   0.00000  Uiso   1.00
C114   C     0.28480   0.62953   0.29532   0.00000  Uiso   1.00
C115   C     0.20657   0.66687   0.32725   0.00000  Uiso   1.00
H116   H     0.09083   0.57957   0.06555   0.00000  Uiso   1.00
H117   H     0.18109   0.62531   0.93601   0.00000  Uiso   1.00
H118   H     0.04659   0.46301   0.07056   0.00000  Uiso   1.00
H119   H     0.01828   0.65266   0.17847   0.00000  Uiso   1.00
H120   H     0.32298   0.67237   0.81071   0.00000  Uiso   1.00
H121   H     0.03935   0.33014   0.09443   0.00000  Uiso   1.00
H122   H     0.97965   0.73007   0.32200   0.00000  Uiso   1.00
H123   H     0.41306   0.55158   0.20680   0.00000  Uiso   1.00
H124   H     0.52101   0.59579   0.08501   0.00000  Uiso   1.00
H125   H     0.38650   0.43349   0.21956   0.00000  Uiso   1.00
H126   H     0.35819   0.62314   0.32747   0.00000  Uiso   1.00
H127   H     0.59887   0.64841   0.93164   0.00000  Uiso   1.00
H128   H     0.31523   0.30618   0.21537   0.00000  Uiso   1.00
H129   H     0.25554   0.70611   0.44293   0.00000  Uiso   1.00
O130   O     0.52612   0.68995   0.78850   0.00000  Uiso   1.00
O131   O     0.15400   0.24097   0.16074   0.00000  Uiso   1.00
O132   O     0.07568   0.76567   0.45931   0.00000  Uiso   1.00
N133   N     0.37310   0.66067   0.85589   0.00000  Uiso   1.00
N134   N     0.10792   0.34071   0.12114   0.00000  Uiso   1.00
N135   N     0.05210   0.71460   0.33391   0.00000  Uiso   1.00
N136   N     0.52155   0.64778   0.92096   0.00000  Uiso   1.00
N137   N     0.25638   0.32782   0.18622   0.00000  Uiso   1.00
N138   N     0.20055   0.70171   0.39899   0.00000  Uiso   1.00
C139   C     0.33534   0.42684   0.59791   0.00000  Uiso   1.00
C140   C     0.24162   0.40586   0.54712   0.00000  Uiso   1.00
C141   C     0.24551   0.38105   0.46816   0.00000  Uiso   1.00
C142   C     0.15110   0.36475   0.43219   0.00000  Uiso   1.00
C143   C     0.02000   0.33095   0.34698   0.00000  Uiso   1.00
C144   C     0.31469   0.49405   0.62021   0.00000  Uiso   1.00
C145   C     0.38003   0.54338   0.60272   0.00000  Uiso   1.00
C146   C     0.34715   0.60131   0.62829   0.00000  Uiso   1.00
C147   C     0.32953   0.70443   0.65661   0.00000  Uiso   1.00
C148   C     0.33007   0.39100   0.67884   0.00000  Uiso   1.00
C149   C     0.40835   0.35370   0.71066   0.00000  Uiso   1.00
C150   C     0.38842   0.32488   0.78560   0.00000  Uiso   1.00
C151   C     0.39468   0.26799   0.90496   0.00000  Uiso   1.00
C152   C     0.16076   0.44200   0.67444   0.00000  Uiso   1.00
C153   C     0.14680   0.41410   0.58869   0.00000  Uiso   1.00
C154   C     0.05236   0.39783   0.55283   0.00000  Uiso   1.00
C155   C     0.05611   0.37300   0.47383   0.00000  Uiso   1.00
C156   C     0.21987   0.50229   0.66178   0.00000  Uiso   1.00
C157   C     0.18688   0.56016   0.68739   0.00000  Uiso   1.00
C158   C     0.25215   0.60957   0.66993   0.00000  Uiso   1.00
C159   C     0.23525   0.39923   0.72041   0.00000  Uiso   1.00
C160   C     0.21520   0.37047   0.79532   0.00000  Uiso   1.00
C161   C     0.29343   0.33313   0.82725   0.00000  Uiso   1.00
H162   H     0.40917   0.42043   0.56555   0.00000  Uiso   1.00
H163   H     0.31891   0.37469   0.43601   0.00000  Uiso   1.00
H164   H     0.45341   0.53699   0.57056   0.00000  Uiso   1.00
H165   H     0.48172   0.34734   0.67847   0.00000  Uiso   1.00
H166   H     0.17702   0.32763   0.31071   0.00000  Uiso   1.00
H167   H     0.46065   0.66986   0.59443   0.00000  Uiso   1.00
H168   H     0.52035   0.26993   0.82200   0.00000  Uiso   1.00
H169   H     0.08694   0.44842   0.70680   0.00000  Uiso   1.00
H170   H     0.97899   0.40421   0.58501   0.00000  Uiso   1.00
H171   H     0.11350   0.56651   0.71956   0.00000  Uiso   1.00
H172   H     0.14181   0.37686   0.82747   0.00000  Uiso   1.00
H173   H     0.90113   0.35159   0.43164   0.00000  Uiso   1.00
H174   H     0.18477   0.69382   0.71537   0.00000  Uiso   1.00
H175   H     0.24446   0.29389   0.94293   0.00000  Uiso   1.00
O176   O     0.97388   0.31005   0.28850   0.00000  Uiso   1.00
O177   O     0.34600   0.75903   0.66074   0.00000  Uiso   1.00
O178   O     0.42432   0.23433   0.95931   0.00000  Uiso   1.00
N179   N     0.12690   0.33933   0.35589   0.00000  Uiso   1.00
N180   N     0.39208   0.65929   0.62114   0.00000  Uiso   1.00
N181   N     0.44790   0.28540   0.83391   0.00000  Uiso   1.00
N182   N     0.97845   0.35222   0.42096   0.00000  Uiso   1.00
N183   N     0.24362   0.67218   0.68622   0.00000  Uiso   1.00
N184   N     0.29945   0.29829   0.89899   0.00000  Uiso   1.00
C185   C     0.16466   0.92684   0.59791   0.00000  Uiso   1.00
C186   C     0.25838   0.90586   0.54712   0.00000  Uiso   1.00
C187   C     0.25449   0.88105   0.46816   0.00000  Uiso   1.00
C188   C     0.34890   0.86475   0.43219   0.00000  Uiso   1.00
C189   C     0.48000   0.83095   0.34698   0.00000  Uiso   1.00
C190   C     0.18531   0.99405   0.62021   0.00000  Uiso   1.00
C191   C     0.11997   0.04338   0.60272   0.00000  Uiso   1.00
C192   C     0.15285   0.10131   0.62829   0.00000  Uiso   1.00
C193   C     0.17047   0.20443   0.65661   0.00000  Uiso   1.00
C194   C     0.16993   0.89100   0.67884   0.00000  Uiso   1.00
C195   C     0.09165   0.85370   0.71066   0.00000  Uiso   1.00
C196   C     0.11158   0.82488   0.78560   0.00000  Uiso   1.00
C197   C     0.10532   0.76799   0.90496   0.00000  Uiso   1.00
C198   C     0.33924   0.94200   0.67444   0.00000  Uiso   1.00
C199   C     0.35320   0.91410   0.58869   0.00000  Uiso   1.00
C200   C     0.44764   0.89783   0.55283   0.00000  Uiso   1.00
C201   C     0.44389   0.87300   0.47383   0.00000  Uiso   1.00
C202   C     0.28013   0.00229   0.66178   0.00000  Uiso   1.00
C203   C     0.31312   0.06016   0.68739   0.00000  Uiso   1.00
C204   C     0.24785   0.10957   0.66993   0.00000  Uiso   1.00
C205   C     0.26475   0.89923   0.72041   0.00000  Uiso   1.00
C206   C     0.28480   0.87047   0.79532   0.00000  Uiso   1.00
C207   C     0.20657   0.83313   0.82725   0.00000  Uiso   1.00
H208   H     0.09083   0.92043   0.56555   0.00000  Uiso   1.00
H209   H     0.18109   0.87469   0.43601   0.00000  Uiso   1.00
H210   H     0.04659   0.03699   0.57056   0.00000  Uiso   1.00
H211   H     0.01828   0.84734   0.67847   0.00000  Uiso   1.00
H212   H     0.32298   0.82763   0.31071   0.00000  Uiso   1.00
H213   H     0.03935   0.16986   0.59443   0.00000  Uiso   1.00
H214   H     0.97965   0.76993   0.82200   0.00000  Uiso   1.00
H215   H     0.41306   0.94842   0.70680   0.00000  Uiso   1.00
H216   H     0.52101   0.90421   0.58501   0.00000  Uiso   1.00
H217   H     0.38650   0.06651   0.71956   0.00000  Uiso   1.00
H218   H     0.35819   0.87686   0.82747   0.00000  Uiso   1.00
H219   H     0.59887   0.85159   0.43164   0.00000  Uiso   1.00
H220   H     0.31523   0.19382   0.71537   0.00000  Uiso   1.00
H221   H     0.25554   0.79389   0.94293   0.00000  Uiso   1.00
O222   O     0.52612   0.81005   0.28850   0.00000  Uiso   1.00
O223   O     0.15400   0.25903   0.66074   0.00000  Uiso   1.00
O224   O     0.07568   0.73433   0.95931   0.00000  Uiso   1.00
N225   N     0.37310   0.83933   0.35589   0.00000  Uiso   1.00
N226   N     0.10792   0.15929   0.62114   0.00000  Uiso   1.00
N227   N     0.05210   0.78540   0.83391   0.00000  Uiso   1.00
N228   N     0.52155   0.85222   0.42096   0.00000  Uiso   1.00
N229   N     0.25638   0.17218   0.68622   0.00000  Uiso   1.00
N230   N     0.20055   0.79829   0.89899   0.00000  Uiso   1.00
C231   C     0.33534   0.07316   0.09791   0.00000  Uiso   1.00
C232   C     0.24162   0.09414   0.04712   0.00000  Uiso   1.00
C233   C     0.24551   0.11895   0.96816   0.00000  Uiso   1.00
C234   C     0.15110   0.13525   0.93219   0.00000  Uiso   1.00
C235   C     0.02000   0.16905   0.84698   0.00000  Uiso   1.00
C236   C     0.31469   0.00595   0.12021   0.00000  Uiso   1.00
C237   C     0.38003   0.95662   0.10272   0.00000  Uiso   1.00
C238   C     0.34715   0.89869   0.12829   0.00000  Uiso   1.00
C239   C     0.32953   0.79557   0.15661   0.00000  Uiso   1.00
C240   C     0.33007   0.10900   0.17884   0.00000  Uiso   1.00
C241   C     0.40835   0.14630   0.21066   0.00000  Uiso   1.00
C242   C     0.38842   0.17512   0.28560   0.00000  Uiso   1.00
C243   C     0.39468   0.23201   0.40496   0.00000  Uiso   1.00
C244   C     0.16076   0.05800   0.17444   0.00000  Uiso   1.00
C245   C     0.14680   0.08590   0.08869   0.00000  Uiso   1.00
C246   C     0.05236   0.10217   0.05283   0.00000  Uiso   1.00
C247   C     0.05611   0.12700   0.97383   0.00000  Uiso   1.00
C248   C     0.21987   0.99771   0.16178   0.00000  Uiso   1.00
C249   C     0.18688   0.93984   0.18739   0.00000  Uiso   1.00
C250   C     0.25215   0.89043   0.16993   0.00000  Uiso   1.00
C251   C     0.23525   0.10077   0.22041   0.00000  Uiso   1.00
C252   C     0.21520   0.12953   0.29532   0.00000  Uiso   1.00
C253   C     0.29343   0.16687   0.32725   0.00000  Uiso   1.00
H254   H     0.40917   0.07957   0.06555   0.00000  Uiso   1.00
H255   H     0.31891   0.12531   0.93601   0.00000  Uiso   1.00
H256   H     0.45341   0.96301   0.07056   0.00000  Uiso   1.00
H257   H     0.48172   0.15266   0.17847   0.00000  Uiso   1.00
H258   H     0.17702   0.17237   0.81071   0.00000  Uiso   1.00
H259   H     0.46065   0.83014   0.09443   0.00000  Uiso   1.00
H260   H     0.52035   0.23007   0.32200   0.00000  Uiso   1.00
H261   H     0.08694   0.05158   0.20680   0.00000  Uiso   1.00
H262   H     0.97899   0.09579   0.08501   0.00000  Uiso   1.00
H263   H     0.11350   0.93349   0.21956   0.00000  Uiso   1.00
H264   H     0.14181   0.12314   0.32747   0.00000  Uiso   1.00
H265   H     0.90113   0.14841   0.93164   0.00000  Uiso   1.00
H266   H     0.18477   0.80618   0.21537   0.00000  Uiso   1.00
H267   H     0.24446   0.20611   0.44293   0.00000  Uiso   1.00
O268   O     0.97388   0.18995   0.78850   0.00000  Uiso   1.00
O269   O     0.34600   0.74097   0.16074   0.00000  Uiso   1.00
O270   O     0.42432   0.26567   0.45931   0.00000  Uiso   1.00
N271   N     0.12690   0.16067   0.85589   0.00000  Uiso   1.00
N272   N     0.39208   0.84071   0.12114   0.00000  Uiso   1.00
N273   N     0.44790   0.21460   0.33391   0.00000  Uiso   1.00
N274   N     0.97845   0.14778   0.92096   0.00000  Uiso   1.00
N275   N     0.24362   0.82782   0.18622   0.00000  Uiso   1.00
N276   N     0.29945   0.20171   0.39899   0.00000  Uiso   1.00
C277   C     0.83534   0.42684   0.90209   0.00000  Uiso   1.00
C278   C     0.74162   0.40586   0.95288   0.00000  Uiso   1.00
C279   C     0.74551   0.38105   0.03184   0.00000  Uiso   1.00
C280   C     0.65110   0.36475   0.06781   0.00000  Uiso   1.00
C281   C     0.52000   0.33095   0.15302   0.00000  Uiso   1.00
C282   C     0.81469   0.49405   0.87979   0.00000  Uiso   1.00
C283   C     0.88003   0.54338   0.89728   0.00000  Uiso   1.00
C284   C     0.84715   0.60131   0.87171   0.00000  Uiso   1.00
C285   C     0.82953   0.70443   0.84339   0.00000  Uiso   1.00
C286   C     0.83007   0.39100   0.82116   0.00000  Uiso   1.00
C287   C     0.90835   0.35370   0.78934   0.00000  Uiso   1.00
C288   C     0.88842   0.32488   0.71440   0.00000  Uiso   1.00
C289   C     0.89468   0.26799   0.59504   0.00000  Uiso   1.00
C290   C     0.66076   0.44200   0.82556   0.00000  Uiso   1.00
C291   C     0.64680   0.41410   0.91131   0.00000  Uiso   1.00
C292   C     0.55236   0.39783   0.94717   0.00000  Uiso   1.00
C293   C     0.55611   0.37300   0.02617   0.00000  Uiso   1.00
C294   C     0.71987   0.50229   0.83822   0.00000  Uiso   1.00
C295   C     0.68688   0.56016   0.81261   0.00000  Uiso   1.00
C296   C     0.75215   0.60957   0.83007   0.00000  Uiso   1.00
C297   C     0.73525   0.39923   0.77959   0.00000  Uiso   1.00
C298   C     0.71520   0.37047   0.70468   0.00000  Uiso   1.00
C299   C     0.79343   0.33313   0.67275   0.00000  Uiso   1.00
H300   H     0.90917   0.42043   0.93445   0.00000  Uiso   1.00
H301   H     0.81891   0.37469   0.06399   0.00000  Uiso   1.00
H302   H     0.95341   0.53699   0.92944   0.00000  Uiso   1.00
H303   H     0.98172   0.34734   0.82153   0.00000  Uiso   1.00
H304   H     0.67702   0.32763   0.18929   0.00000  Uiso   1.00
H305   H     0.96065   0.66986   0.90557   0.00000  Uiso   1.00
H306   H     0.02035   0.26993   0.67800   0.00000  Uiso   1.00
H307   H     0.58694   0.44842   0.79320   0.00000  Uiso   1.00
H308   H     0.47899   0.40421   0.91499   0.00000  Uiso   1.00
H309   H     0.61350   0.56651   0.78044   0.00000  Uiso   1.00
H310   H     0.64181   0.37686   0.67253   0.00000  Uiso   1.00
H311   H     0.40113   0.35159   0.06836   0.00000  Uiso   1.00
H312   H     0.68477   0.69382   0.78463   0.00000  Uiso   1.00
H313   H     0.74446   0.29389   0.55707   0.00000  Uiso   1.00
O314   O     0.47388   0.31005   0.21150   0.00000  Uiso   1.00
O315   O     0.84600   0.75903   0.83926   0.00000  Uiso   1.00
O316   O     0.92432   0.23433   0.54069   0.00000  Uiso   1.00
N317   N     0.62690   0.33933   0.14411   0.00000  Uiso   1.00
N318   N     0.89208   0.65929   0.87886   0.00000  Uiso   1.00
N319   N     0.94790   0.28540   0.66609   0.00000  Uiso   1.00
N320   N     0.47845   0.35222   0.07904   0.00000  Uiso   1.00
N321   N     0.74362   0.67218   0.81378   0.00000  Uiso   1.00
N322   N     0.79945   0.29829   0.60101   0.00000  Uiso   1.00
C323   C     0.66466   0.57316   0.40209   0.00000  Uiso   1.00
C324   C     0.75838   0.59414   0.45288   0.00000  Uiso   1.00
C325   C     0.75449   0.61895   0.53184   0.00000  Uiso   1.00
C326   C     0.84890   0.63525   0.56781   0.00000  Uiso   1.00
C327   C     0.98000   0.66905   0.65302   0.00000  Uiso   1.00
C328   C     0.68531   0.50595   0.37979   0.00000  Uiso   1.00
C329   C     0.61997   0.45662   0.39728   0.00000  Uiso   1.00
C330   C     0.65285   0.39869   0.37171   0.00000  Uiso   1.00
C331   C     0.67047   0.29557   0.34339   0.00000  Uiso   1.00
C332   C     0.66993   0.60900   0.32116   0.00000  Uiso   1.00
C333   C     0.59165   0.64630   0.28934   0.00000  Uiso   1.00
C334   C     0.61158   0.67512   0.21440   0.00000  Uiso   1.00
C335   C     0.60532   0.73201   0.09504   0.00000  Uiso   1.00
C336   C     0.83924   0.55800   0.32556   0.00000  Uiso   1.00
C337   C     0.85320   0.58590   0.41131   0.00000  Uiso   1.00
C338   C     0.94764   0.60217   0.44717   0.00000  Uiso   1.00
C339   C     0.94389   0.62700   0.52617   0.00000  Uiso   1.00
C340   C     0.78013   0.49771   0.33822   0.00000  Uiso   1.00
C341   C     0.81312   0.43984   0.31261   0.00000  Uiso   1.00
C342   C     0.74785   0.39043   0.33007   0.00000  Uiso   1.00
C343   C     0.76475   0.60077   0.27959   0.00000  Uiso   1.00
C344   C     0.78480   0.62953   0.20468   0.00000  Uiso   1.00
C345   C     0.70657   0.66687   0.17275   0.00000  Uiso   1.00
H346   H     0.59083   0.57957   0.43445   0.00000  Uiso   1.00
H347   H     0.68109   0.62531   0.56399   0.00000  Uiso   1.00
H348   H     0.54659   0.46301   0.42944   0.00000  Uiso   1.00
H349   H     0.51828   0.65266   0.32153   0.00000  Uiso   1.00
H350   H     0.82298   0.67237   0.68929   0.00000  Uiso   1.00
H351   H     0.53935   0.33014   0.40557   0.00000  Uiso   1.00
H352   H     0.47965   0.73007   0.17800   0.00000  Uiso   1.00
H353   H     0.91306   0.55158   0.29320   0.00000  Uiso   1.00
H354   H     0.02101   0.59579   0.41499   0.00000  Uiso   1.00
H355   H     0.88650   0.43349   0.28044   0.00000  Uiso   1.00
H356   H     0.85819   0.62314   0.17253   0.00000  Uiso   1.00
H357   H     0.09887   0.64841   0.56836   0.00000  Uiso   1.00
H358   H     0.81523   0.30618   0.28463   0.00000  Uiso   1.00
H359   H     0.75554   0.70611   0.05707   0.00000  Uiso   1.00
O360   O     0.02612   0.68995   0.71150   0.00000  Uiso   1.00
O361   O     0.65400   0.24097   0.33926   0.00000  Uiso   1.00
O362   O     0.57568   0.76567   0.04069   0.00000  Uiso   1.00
N363   N     0.87310   0.66067   0.64411   0.00000  Uiso   1.00
N364   N     0.60792   0.34071   0.37886   0.00000  Uiso   1.00
N365   N     0.55210   0.71460   0.16609   0.00000  Uiso   1.00
N366   N     0.02155   0.64778   0.57904   0.00000  Uiso   1.00
N367   N     0.75638   0.32782   0.31378   0.00000  Uiso   1.00
N368   N     0.70055   0.70171   0.10101   0.00000  Uiso   1.00
