data_job_02790
_audit_creation_date              2018-12-19
_audit_creation_method            'Materials Studio'
_symmetry_space_group_name_H-M    'P1'
_symmetry_Int_Tables_number       1
_symmetry_cell_setting            triclinic
loop_
_symmetry_equiv_pos_as_xyz
  x,y,z
_cell_length_a                    22.9730
_cell_length_b                    22.9730
_cell_length_c                    12.7866
_cell_angle_alpha                 90.0000
_cell_angle_beta                  90.0000
_cell_angle_gamma                 90.0000
loop_
_atom_site_label
_atom_site_type_symbol
_atom_site_fract_x
_atom_site_fract_y
_atom_site_fract_z
_atom_site_U_iso_or_equiv
_atom_site_adp_type
_atom_site_occupancy
C1     C     0.13685   0.63448   0.11450   0.00000  Uiso   1.00
C2     C     0.08367   0.61969   0.04827   0.00000  Uiso   1.00
C3     C     0.02634   0.63266   0.07337   0.00000  Uiso   1.00
C4     C     0.98393   0.61543   0.00248   0.00000  Uiso   1.00
C5     C     0.89915   0.59688   0.91375   0.00000  Uiso   1.00
C6     C     0.16813   0.57696   0.13419   0.00000  Uiso   1.00
C7     C     0.18183   0.55402   0.23154   0.00000  Uiso   1.00
C8     C     0.21052   0.50083   0.23297   0.00000  Uiso   1.00
C9     C     0.25691   0.41597   0.27764   0.00000  Uiso   1.00
C10    C     0.17699   0.67001   0.04418   0.00000  Uiso   1.00
C11    C     0.19816   0.72529   0.06585   0.00000  Uiso   1.00
C12    C     0.23433   0.75044   0.99151   0.00000  Uiso   1.00
C13    C     0.29448   0.81004   0.89642   0.00000  Uiso   1.00
C14    C     0.16346   0.58083   0.94397   0.00000  Uiso   1.00
C15    C     0.09812   0.59055   0.95564   0.00000  Uiso   1.00
C16    C     0.05579   0.57330   0.88469   0.00000  Uiso   1.00
C17    C     0.99841   0.58624   0.90968   0.00000  Uiso   1.00
C18    C     0.18258   0.54782   0.04157   0.00000  Uiso   1.00
C19    C     0.21127   0.49466   0.04286   0.00000  Uiso   1.00
C20    C     0.22501   0.47164   0.14017   0.00000  Uiso   1.00
C21    C     0.19145   0.64087   0.95155   0.00000  Uiso   1.00
C22    C     0.22760   0.66593   0.87717   0.00000  Uiso   1.00
C23    C     0.24881   0.72124   0.89871   0.00000  Uiso   1.00
H24    H     0.12560   0.65716   0.18662   0.00000  Uiso   1.00
H25    H     0.01518   0.65520   0.14507   0.00000  Uiso   1.00
H26    H     0.17064   0.57658   0.30320   0.00000  Uiso   1.00
H27    H     0.18696   0.74782   0.13754   0.00000  Uiso   1.00
H28    H     0.89912   0.64016   0.05816   0.00000  Uiso   1.00
H29    H     0.22695   0.47439   0.39161   0.00000  Uiso   1.00
H30    H     0.26137   0.83550   0.04227   0.00000  Uiso   1.00
H31    H     0.17472   0.55814   0.87185   0.00000  Uiso   1.00
H32    H     0.06699   0.55075   0.81302   0.00000  Uiso   1.00
H33    H     0.22245   0.47213   0.97116   0.00000  Uiso   1.00
H34    H     0.23877   0.64337   0.80549   0.00000  Uiso   1.00
H35    H     0.94117   0.55539   0.78866   0.00000  Uiso   1.00
H36    H     0.26900   0.38961   0.12211   0.00000  Uiso   1.00
H37    H     0.30342   0.75072   0.77277   0.00000  Uiso   1.00
O38    O     0.84839   0.59468   0.89041   0.00000  Uiso   1.00
O39    O     0.27850   0.37720   0.32787   0.00000  Uiso   1.00
O40    O     0.32365   0.85096   0.86955   0.00000  Uiso   1.00
N41    N     0.92380   0.62124   0.00280   0.00000  Uiso   1.00
N42    N     0.23029   0.46624   0.31455   0.00000  Uiso   1.00
N43    N     0.26249   0.80384   0.98797   0.00000  Uiso   1.00
N44    N     0.94643   0.57562   0.85778   0.00000  Uiso   1.00
N45    N     0.25292   0.42063   0.16953   0.00000  Uiso   1.00
N46    N     0.28512   0.75822   0.84295   0.00000  Uiso   1.00
C47    C     0.86315   0.36552   0.11450   0.00000  Uiso   1.00
C48    C     0.91633   0.38031   0.04827   0.00000  Uiso   1.00
C49    C     0.97366   0.36734   0.07337   0.00000  Uiso   1.00
C50    C     0.01607   0.38457   0.00248   0.00000  Uiso   1.00
C51    C     0.10085   0.40312   0.91375   0.00000  Uiso   1.00
C52    C     0.83187   0.42304   0.13419   0.00000  Uiso   1.00
C53    C     0.81817   0.44598   0.23154   0.00000  Uiso   1.00
C54    C     0.78948   0.49917   0.23297   0.00000  Uiso   1.00
C55    C     0.74309   0.58403   0.27764   0.00000  Uiso   1.00
C56    C     0.82301   0.32999   0.04418   0.00000  Uiso   1.00
C57    C     0.80184   0.27471   0.06585   0.00000  Uiso   1.00
C58    C     0.76567   0.24956   0.99151   0.00000  Uiso   1.00
C59    C     0.70552   0.18996   0.89642   0.00000  Uiso   1.00
C60    C     0.83654   0.41917   0.94397   0.00000  Uiso   1.00
C61    C     0.90188   0.40945   0.95564   0.00000  Uiso   1.00
C62    C     0.94421   0.42670   0.88469   0.00000  Uiso   1.00
C63    C     0.00159   0.41376   0.90968   0.00000  Uiso   1.00
C64    C     0.81742   0.45218   0.04157   0.00000  Uiso   1.00
C65    C     0.78873   0.50534   0.04286   0.00000  Uiso   1.00
C66    C     0.77499   0.52836   0.14017   0.00000  Uiso   1.00
C67    C     0.80855   0.35913   0.95155   0.00000  Uiso   1.00
C68    C     0.77240   0.33407   0.87717   0.00000  Uiso   1.00
C69    C     0.75119   0.27876   0.89871   0.00000  Uiso   1.00
H70    H     0.87440   0.34284   0.18662   0.00000  Uiso   1.00
H71    H     0.98482   0.34480   0.14507   0.00000  Uiso   1.00
H72    H     0.82936   0.42342   0.30320   0.00000  Uiso   1.00
H73    H     0.81304   0.25218   0.13754   0.00000  Uiso   1.00
H74    H     0.10088   0.35984   0.05816   0.00000  Uiso   1.00
H75    H     0.77305   0.52561   0.39161   0.00000  Uiso   1.00
H76    H     0.73863   0.16450   0.04227   0.00000  Uiso   1.00
H77    H     0.82528   0.44186   0.87185   0.00000  Uiso   1.00
H78    H     0.93301   0.44925   0.81302   0.00000  Uiso   1.00
H79    H     0.77755   0.52787   0.97116   0.00000  Uiso   1.00
H80    H     0.76123   0.35663   0.80549   0.00000  Uiso   1.00
H81    H     0.05883   0.44461   0.78866   0.00000  Uiso   1.00
H82    H     0.73100   0.61039   0.12211   0.00000  Uiso   1.00
H83    H     0.69658   0.24928   0.77277   0.00000  Uiso   1.00
O84    O     0.15161   0.40532   0.89041   0.00000  Uiso   1.00
O85    O     0.72150   0.62280   0.32787   0.00000  Uiso   1.00
O86    O     0.67635   0.14904   0.86955   0.00000  Uiso   1.00
N87    N     0.07620   0.37876   0.00280   0.00000  Uiso   1.00
N88    N     0.76971   0.53376   0.31455   0.00000  Uiso   1.00
N89    N     0.73751   0.19616   0.98797   0.00000  Uiso   1.00
N90    N     0.05357   0.42438   0.85778   0.00000  Uiso   1.00
N91    N     0.74708   0.57937   0.16953   0.00000  Uiso   1.00
N92    N     0.71488   0.24178   0.84295   0.00000  Uiso   1.00
C93    C     0.63448   0.86315   0.88550   0.00000  Uiso   1.00
C94    C     0.61969   0.91633   0.95173   0.00000  Uiso   1.00
C95    C     0.63266   0.97366   0.92663   0.00000  Uiso   1.00
C96    C     0.61543   0.01607   0.99752   0.00000  Uiso   1.00
C97    C     0.59688   0.10085   0.08625   0.00000  Uiso   1.00
C98    C     0.57696   0.83187   0.86581   0.00000  Uiso   1.00
C99    C     0.55402   0.81817   0.76846   0.00000  Uiso   1.00
C100   C     0.50083   0.78948   0.76703   0.00000  Uiso   1.00
C101   C     0.41597   0.74309   0.72236   0.00000  Uiso   1.00
C102   C     0.67001   0.82301   0.95582   0.00000  Uiso   1.00
C103   C     0.72529   0.80184   0.93415   0.00000  Uiso   1.00
C104   C     0.75044   0.76567   0.00849   0.00000  Uiso   1.00
C105   C     0.81004   0.70552   0.10358   0.00000  Uiso   1.00
C106   C     0.58083   0.83654   0.05603   0.00000  Uiso   1.00
C107   C     0.59055   0.90188   0.04436   0.00000  Uiso   1.00
C108   C     0.57330   0.94421   0.11531   0.00000  Uiso   1.00
C109   C     0.58624   0.00159   0.09032   0.00000  Uiso   1.00
C110   C     0.54782   0.81742   0.95843   0.00000  Uiso   1.00
C111   C     0.49466   0.78873   0.95714   0.00000  Uiso   1.00
C112   C     0.47164   0.77499   0.85983   0.00000  Uiso   1.00
C113   C     0.64087   0.80855   0.04845   0.00000  Uiso   1.00
C114   C     0.66593   0.77240   0.12283   0.00000  Uiso   1.00
C115   C     0.72124   0.75119   0.10129   0.00000  Uiso   1.00
H116   H     0.65716   0.87440   0.81338   0.00000  Uiso   1.00
H117   H     0.65520   0.98482   0.85493   0.00000  Uiso   1.00
H118   H     0.57658   0.82936   0.69680   0.00000  Uiso   1.00
H119   H     0.74782   0.81304   0.86246   0.00000  Uiso   1.00
H120   H     0.64016   0.10088   0.94184   0.00000  Uiso   1.00
H121   H     0.47439   0.77305   0.60839   0.00000  Uiso   1.00
H122   H     0.83550   0.73863   0.95773   0.00000  Uiso   1.00
H123   H     0.55814   0.82528   0.12815   0.00000  Uiso   1.00
H124   H     0.55075   0.93301   0.18698   0.00000  Uiso   1.00
H125   H     0.47213   0.77755   0.02884   0.00000  Uiso   1.00
H126   H     0.64337   0.76123   0.19451   0.00000  Uiso   1.00
H127   H     0.55539   0.05883   0.21134   0.00000  Uiso   1.00
H128   H     0.38961   0.73100   0.87789   0.00000  Uiso   1.00
H129   H     0.75072   0.69658   0.22723   0.00000  Uiso   1.00
O130   O     0.59468   0.15161   0.10959   0.00000  Uiso   1.00
O131   O     0.37720   0.72150   0.67213   0.00000  Uiso   1.00
O132   O     0.85096   0.67635   0.13045   0.00000  Uiso   1.00
N133   N     0.62124   0.07620   0.99720   0.00000  Uiso   1.00
N134   N     0.46624   0.76971   0.68545   0.00000  Uiso   1.00
N135   N     0.80384   0.73751   0.01203   0.00000  Uiso   1.00
N136   N     0.57562   0.05357   0.14222   0.00000  Uiso   1.00
N137   N     0.42063   0.74708   0.83047   0.00000  Uiso   1.00
N138   N     0.75822   0.71488   0.15705   0.00000  Uiso   1.00
C139   C     0.36552   0.13685   0.88550   0.00000  Uiso   1.00
C140   C     0.38031   0.08367   0.95173   0.00000  Uiso   1.00
C141   C     0.36734   0.02634   0.92663   0.00000  Uiso   1.00
C142   C     0.38457   0.98393   0.99752   0.00000  Uiso   1.00
C143   C     0.40312   0.89915   0.08625   0.00000  Uiso   1.00
C144   C     0.42304   0.16813   0.86581   0.00000  Uiso   1.00
C145   C     0.44598   0.18183   0.76846   0.00000  Uiso   1.00
C146   C     0.49917   0.21052   0.76703   0.00000  Uiso   1.00
C147   C     0.58403   0.25691   0.72236   0.00000  Uiso   1.00
C148   C     0.32999   0.17699   0.95582   0.00000  Uiso   1.00
C149   C     0.27471   0.19816   0.93415   0.00000  Uiso   1.00
C150   C     0.24956   0.23433   0.00849   0.00000  Uiso   1.00
C151   C     0.18996   0.29448   0.10358   0.00000  Uiso   1.00
C152   C     0.41917   0.16346   0.05603   0.00000  Uiso   1.00
C153   C     0.40945   0.09812   0.04436   0.00000  Uiso   1.00
C154   C     0.42670   0.05579   0.11531   0.00000  Uiso   1.00
C155   C     0.41376   0.99841   0.09032   0.00000  Uiso   1.00
C156   C     0.45218   0.18258   0.95843   0.00000  Uiso   1.00
C157   C     0.50534   0.21127   0.95714   0.00000  Uiso   1.00
C158   C     0.52836   0.22501   0.85983   0.00000  Uiso   1.00
C159   C     0.35913   0.19145   0.04845   0.00000  Uiso   1.00
C160   C     0.33407   0.22760   0.12283   0.00000  Uiso   1.00
C161   C     0.27876   0.24881   0.10129   0.00000  Uiso   1.00
H162   H     0.34284   0.12560   0.81338   0.00000  Uiso   1.00
H163   H     0.34480   0.01518   0.85493   0.00000  Uiso   1.00
H164   H     0.42342   0.17064   0.69680   0.00000  Uiso   1.00
H165   H     0.25218   0.18696   0.86246   0.00000  Uiso   1.00
H166   H     0.35984   0.89912   0.94184   0.00000  Uiso   1.00
H167   H     0.52561   0.22695   0.60839   0.00000  Uiso   1.00
H168   H     0.16450   0.26137   0.95773   0.00000  Uiso   1.00
H169   H     0.44186   0.17472   0.12815   0.00000  Uiso   1.00
H170   H     0.44925   0.06699   0.18698   0.00000  Uiso   1.00
H171   H     0.52787   0.22245   0.02884   0.00000  Uiso   1.00
H172   H     0.35663   0.23877   0.19451   0.00000  Uiso   1.00
H173   H     0.44461   0.94117   0.21134   0.00000  Uiso   1.00
H174   H     0.61039   0.26900   0.87789   0.00000  Uiso   1.00
H175   H     0.24928   0.30342   0.22723   0.00000  Uiso   1.00
O176   O     0.40532   0.84839   0.10959   0.00000  Uiso   1.00
O177   O     0.62280   0.27850   0.67213   0.00000  Uiso   1.00
O178   O     0.14904   0.32365   0.13045   0.00000  Uiso   1.00
N179   N     0.37876   0.92380   0.99720   0.00000  Uiso   1.00
N180   N     0.53376   0.23029   0.68545   0.00000  Uiso   1.00
N181   N     0.19616   0.26249   0.01203   0.00000  Uiso   1.00
N182   N     0.42438   0.94643   0.14222   0.00000  Uiso   1.00
N183   N     0.57937   0.25292   0.83047   0.00000  Uiso   1.00
N184   N     0.24178   0.28512   0.15705   0.00000  Uiso   1.00
C185   C     0.36315   0.13448   0.38550   0.00000  Uiso   1.00
C186   C     0.41633   0.11969   0.45173   0.00000  Uiso   1.00
C187   C     0.47366   0.13266   0.42663   0.00000  Uiso   1.00
C188   C     0.51607   0.11543   0.49752   0.00000  Uiso   1.00
C189   C     0.60085   0.09688   0.58625   0.00000  Uiso   1.00
C190   C     0.33187   0.07696   0.36581   0.00000  Uiso   1.00
C191   C     0.31817   0.05402   0.26846   0.00000  Uiso   1.00
C192   C     0.28948   0.00083   0.26703   0.00000  Uiso   1.00
C193   C     0.24309   0.91597   0.22236   0.00000  Uiso   1.00
C194   C     0.32301   0.17001   0.45582   0.00000  Uiso   1.00
C195   C     0.30184   0.22529   0.43415   0.00000  Uiso   1.00
C196   C     0.26567   0.25044   0.50849   0.00000  Uiso   1.00
C197   C     0.20552   0.31004   0.60358   0.00000  Uiso   1.00
C198   C     0.33654   0.08083   0.55603   0.00000  Uiso   1.00
C199   C     0.40188   0.09055   0.54436   0.00000  Uiso   1.00
C200   C     0.44421   0.07330   0.61531   0.00000  Uiso   1.00
C201   C     0.50159   0.08624   0.59032   0.00000  Uiso   1.00
C202   C     0.31742   0.04782   0.45843   0.00000  Uiso   1.00
C203   C     0.28873   0.99466   0.45714   0.00000  Uiso   1.00
C204   C     0.27499   0.97164   0.35983   0.00000  Uiso   1.00
C205   C     0.30855   0.14087   0.54845   0.00000  Uiso   1.00
C206   C     0.27240   0.16593   0.62283   0.00000  Uiso   1.00
C207   C     0.25119   0.22124   0.60129   0.00000  Uiso   1.00
H208   H     0.37440   0.15716   0.31338   0.00000  Uiso   1.00
H209   H     0.48482   0.15520   0.35493   0.00000  Uiso   1.00
H210   H     0.32936   0.07658   0.19680   0.00000  Uiso   1.00
H211   H     0.31304   0.24782   0.36246   0.00000  Uiso   1.00
H212   H     0.60088   0.14016   0.44184   0.00000  Uiso   1.00
H213   H     0.27305   0.97439   0.10839   0.00000  Uiso   1.00
H214   H     0.23863   0.33550   0.45773   0.00000  Uiso   1.00
H215   H     0.32528   0.05814   0.62815   0.00000  Uiso   1.00
H216   H     0.43301   0.05075   0.68698   0.00000  Uiso   1.00
H217   H     0.27755   0.97213   0.52884   0.00000  Uiso   1.00
H218   H     0.26123   0.14337   0.69451   0.00000  Uiso   1.00
H219   H     0.55883   0.05539   0.71134   0.00000  Uiso   1.00
H220   H     0.23100   0.88961   0.37789   0.00000  Uiso   1.00
H221   H     0.19658   0.25072   0.72723   0.00000  Uiso   1.00
O222   O     0.65161   0.09468   0.60959   0.00000  Uiso   1.00
O223   O     0.22150   0.87720   0.17213   0.00000  Uiso   1.00
O224   O     0.17635   0.35096   0.63045   0.00000  Uiso   1.00
N225   N     0.57620   0.12124   0.49720   0.00000  Uiso   1.00
N226   N     0.26971   0.96624   0.18545   0.00000  Uiso   1.00
N227   N     0.23751   0.30384   0.51203   0.00000  Uiso   1.00
N228   N     0.55357   0.07562   0.64222   0.00000  Uiso   1.00
N229   N     0.24708   0.92063   0.33047   0.00000  Uiso   1.00
N230   N     0.21488   0.25822   0.65705   0.00000  Uiso   1.00
C231   C     0.63685   0.86552   0.38550   0.00000  Uiso   1.00
C232   C     0.58367   0.88031   0.45173   0.00000  Uiso   1.00
C233   C     0.52634   0.86734   0.42663   0.00000  Uiso   1.00
C234   C     0.48393   0.88457   0.49752   0.00000  Uiso   1.00
C235   C     0.39915   0.90312   0.58625   0.00000  Uiso   1.00
C236   C     0.66813   0.92304   0.36581   0.00000  Uiso   1.00
C237   C     0.68183   0.94598   0.26846   0.00000  Uiso   1.00
C238   C     0.71052   0.99917   0.26703   0.00000  Uiso   1.00
C239   C     0.75691   0.08403   0.22236   0.00000  Uiso   1.00
C240   C     0.67699   0.82999   0.45582   0.00000  Uiso   1.00
C241   C     0.69816   0.77471   0.43415   0.00000  Uiso   1.00
C242   C     0.73433   0.74956   0.50849   0.00000  Uiso   1.00
C243   C     0.79448   0.68996   0.60358   0.00000  Uiso   1.00
C244   C     0.66346   0.91917   0.55603   0.00000  Uiso   1.00
C245   C     0.59812   0.90945   0.54436   0.00000  Uiso   1.00
C246   C     0.55579   0.92670   0.61531   0.00000  Uiso   1.00
C247   C     0.49841   0.91376   0.59032   0.00000  Uiso   1.00
C248   C     0.68258   0.95218   0.45843   0.00000  Uiso   1.00
C249   C     0.71127   0.00534   0.45714   0.00000  Uiso   1.00
C250   C     0.72501   0.02836   0.35983   0.00000  Uiso   1.00
C251   C     0.69145   0.85913   0.54845   0.00000  Uiso   1.00
C252   C     0.72760   0.83407   0.62283   0.00000  Uiso   1.00
C253   C     0.74881   0.77876   0.60129   0.00000  Uiso   1.00
H254   H     0.62560   0.84284   0.31338   0.00000  Uiso   1.00
H255   H     0.51518   0.84480   0.35493   0.00000  Uiso   1.00
H256   H     0.67064   0.92342   0.19680   0.00000  Uiso   1.00
H257   H     0.68696   0.75218   0.36246   0.00000  Uiso   1.00
H258   H     0.39912   0.85984   0.44184   0.00000  Uiso   1.00
H259   H     0.72695   0.02561   0.10839   0.00000  Uiso   1.00
H260   H     0.76137   0.66450   0.45773   0.00000  Uiso   1.00
H261   H     0.67472   0.94186   0.62815   0.00000  Uiso   1.00
H262   H     0.56699   0.94925   0.68698   0.00000  Uiso   1.00
H263   H     0.72245   0.02787   0.52884   0.00000  Uiso   1.00
H264   H     0.73877   0.85663   0.69451   0.00000  Uiso   1.00
H265   H     0.44117   0.94461   0.71134   0.00000  Uiso   1.00
H266   H     0.76900   0.11039   0.37789   0.00000  Uiso   1.00
H267   H     0.80342   0.74928   0.72723   0.00000  Uiso   1.00
O268   O     0.34839   0.90532   0.60959   0.00000  Uiso   1.00
O269   O     0.77850   0.12280   0.17213   0.00000  Uiso   1.00
O270   O     0.82365   0.64904   0.63045   0.00000  Uiso   1.00
N271   N     0.42380   0.87876   0.49720   0.00000  Uiso   1.00
N272   N     0.73029   0.03376   0.18545   0.00000  Uiso   1.00
N273   N     0.76249   0.69616   0.51203   0.00000  Uiso   1.00
N274   N     0.44643   0.92438   0.64222   0.00000  Uiso   1.00
N275   N     0.75292   0.07937   0.33047   0.00000  Uiso   1.00
N276   N     0.78512   0.74178   0.65705   0.00000  Uiso   1.00
C277   C     0.86552   0.36315   0.61450   0.00000  Uiso   1.00
C278   C     0.88031   0.41633   0.54827   0.00000  Uiso   1.00
C279   C     0.86734   0.47366   0.57337   0.00000  Uiso   1.00
C280   C     0.88457   0.51607   0.50248   0.00000  Uiso   1.00
C281   C     0.90312   0.60085   0.41375   0.00000  Uiso   1.00
C282   C     0.92304   0.33187   0.63419   0.00000  Uiso   1.00
C283   C     0.94598   0.31817   0.73154   0.00000  Uiso   1.00
C284   C     0.99917   0.28948   0.73297   0.00000  Uiso   1.00
C285   C     0.08403   0.24309   0.77764   0.00000  Uiso   1.00
C286   C     0.82999   0.32301   0.54418   0.00000  Uiso   1.00
C287   C     0.77471   0.30184   0.56585   0.00000  Uiso   1.00
C288   C     0.74956   0.26567   0.49151   0.00000  Uiso   1.00
C289   C     0.68996   0.20552   0.39642   0.00000  Uiso   1.00
C290   C     0.91917   0.33654   0.44397   0.00000  Uiso   1.00
C291   C     0.90945   0.40188   0.45564   0.00000  Uiso   1.00
C292   C     0.92670   0.44421   0.38469   0.00000  Uiso   1.00
C293   C     0.91376   0.50159   0.40968   0.00000  Uiso   1.00
C294   C     0.95218   0.31742   0.54157   0.00000  Uiso   1.00
C295   C     0.00534   0.28873   0.54286   0.00000  Uiso   1.00
C296   C     0.02836   0.27499   0.64017   0.00000  Uiso   1.00
C297   C     0.85913   0.30855   0.45155   0.00000  Uiso   1.00
C298   C     0.83407   0.27240   0.37717   0.00000  Uiso   1.00
C299   C     0.77876   0.25119   0.39871   0.00000  Uiso   1.00
H300   H     0.84284   0.37440   0.68662   0.00000  Uiso   1.00
H301   H     0.84480   0.48482   0.64507   0.00000  Uiso   1.00
H302   H     0.92342   0.32936   0.80320   0.00000  Uiso   1.00
H303   H     0.75218   0.31304   0.63754   0.00000  Uiso   1.00
H304   H     0.85984   0.60088   0.55816   0.00000  Uiso   1.00
H305   H     0.02561   0.27305   0.89161   0.00000  Uiso   1.00
H306   H     0.66450   0.23863   0.54227   0.00000  Uiso   1.00
H307   H     0.94186   0.32528   0.37185   0.00000  Uiso   1.00
H308   H     0.94925   0.43301   0.31302   0.00000  Uiso   1.00
H309   H     0.02787   0.27755   0.47116   0.00000  Uiso   1.00
H310   H     0.85663   0.26123   0.30549   0.00000  Uiso   1.00
H311   H     0.94461   0.55883   0.28866   0.00000  Uiso   1.00
H312   H     0.11039   0.23100   0.62211   0.00000  Uiso   1.00
H313   H     0.74928   0.19658   0.27277   0.00000  Uiso   1.00
O314   O     0.90532   0.65161   0.39041   0.00000  Uiso   1.00
O315   O     0.12280   0.22150   0.82787   0.00000  Uiso   1.00
O316   O     0.64904   0.17635   0.36955   0.00000  Uiso   1.00
N317   N     0.87876   0.57620   0.50280   0.00000  Uiso   1.00
N318   N     0.03376   0.26971   0.81455   0.00000  Uiso   1.00
N319   N     0.69616   0.23751   0.48797   0.00000  Uiso   1.00
N320   N     0.92438   0.55357   0.35778   0.00000  Uiso   1.00
N321   N     0.07937   0.24708   0.66953   0.00000  Uiso   1.00
N322   N     0.74178   0.21488   0.34295   0.00000  Uiso   1.00
C323   C     0.13448   0.63685   0.61450   0.00000  Uiso   1.00
C324   C     0.11969   0.58367   0.54827   0.00000  Uiso   1.00
C325   C     0.13266   0.52634   0.57337   0.00000  Uiso   1.00
C326   C     0.11543   0.48393   0.50248   0.00000  Uiso   1.00
C327   C     0.09688   0.39915   0.41375   0.00000  Uiso   1.00
C328   C     0.07696   0.66813   0.63419   0.00000  Uiso   1.00
C329   C     0.05402   0.68183   0.73154   0.00000  Uiso   1.00
C330   C     0.00083   0.71052   0.73297   0.00000  Uiso   1.00
C331   C     0.91597   0.75691   0.77764   0.00000  Uiso   1.00
C332   C     0.17001   0.67699   0.54418   0.00000  Uiso   1.00
C333   C     0.22529   0.69816   0.56585   0.00000  Uiso   1.00
C334   C     0.25044   0.73433   0.49151   0.00000  Uiso   1.00
C335   C     0.31004   0.79448   0.39642   0.00000  Uiso   1.00
C336   C     0.08083   0.66346   0.44397   0.00000  Uiso   1.00
C337   C     0.09055   0.59812   0.45564   0.00000  Uiso   1.00
C338   C     0.07330   0.55579   0.38469   0.00000  Uiso   1.00
C339   C     0.08624   0.49841   0.40968   0.00000  Uiso   1.00
C340   C     0.04782   0.68258   0.54157   0.00000  Uiso   1.00
C341   C     0.99466   0.71127   0.54286   0.00000  Uiso   1.00
C342   C     0.97164   0.72501   0.64017   0.00000  Uiso   1.00
C343   C     0.14087   0.69145   0.45155   0.00000  Uiso   1.00
C344   C     0.16593   0.72760   0.37717   0.00000  Uiso   1.00
C345   C     0.22124   0.74881   0.39871   0.00000  Uiso   1.00
H346   H     0.15716   0.62560   0.68662   0.00000  Uiso   1.00
H347   H     0.15520   0.51518   0.64507   0.00000  Uiso   1.00
H348   H     0.07658   0.67064   0.80320   0.00000  Uiso   1.00
H349   H     0.24782   0.68696   0.63754   0.00000  Uiso   1.00
H350   H     0.14016   0.39912   0.55816   0.00000  Uiso   1.00
H351   H     0.97439   0.72695   0.89161   0.00000  Uiso   1.00
H352   H     0.33550   0.76137   0.54227   0.00000  Uiso   1.00
H353   H     0.05814   0.67472   0.37185   0.00000  Uiso   1.00
H354   H     0.05075   0.56699   0.31302   0.00000  Uiso   1.00
H355   H     0.97213   0.72245   0.47116   0.00000  Uiso   1.00
H356   H     0.14337   0.73877   0.30549   0.00000  Uiso   1.00
H357   H     0.05539   0.44117   0.28866   0.00000  Uiso   1.00
H358   H     0.88961   0.76900   0.62211   0.00000  Uiso   1.00
H359   H     0.25072   0.80342   0.27277   0.00000  Uiso   1.00
O360   O     0.09468   0.34839   0.39041   0.00000  Uiso   1.00
O361   O     0.87720   0.77850   0.82787   0.00000  Uiso   1.00
O362   O     0.35096   0.82365   0.36955   0.00000  Uiso   1.00
N363   N     0.12124   0.42380   0.50280   0.00000  Uiso   1.00
N364   N     0.96624   0.73029   0.81455   0.00000  Uiso   1.00
N365   N     0.30384   0.76249   0.48797   0.00000  Uiso   1.00
N366   N     0.07562   0.44643   0.35778   0.00000  Uiso   1.00
N367   N     0.92063   0.75292   0.66953   0.00000  Uiso   1.00
N368   N     0.25822   0.78512   0.34295   0.00000  Uiso   1.00
