data_job_02587
_audit_creation_date              2018-12-19
_audit_creation_method            'Materials Studio'
_symmetry_space_group_name_H-M    'P1'
_symmetry_Int_Tables_number       1
_symmetry_cell_setting            triclinic
loop_
_symmetry_equiv_pos_as_xyz
  x,y,z
_cell_length_a                    12.5371
_cell_length_b                    20.5559
_cell_length_c                    19.1419
_cell_angle_alpha                 90.0000
_cell_angle_beta                  132.2902
_cell_angle_gamma                 90.0000
loop_
_atom_site_label
_atom_site_type_symbol
_atom_site_fract_x
_atom_site_fract_y
_atom_site_fract_z
_atom_site_U_iso_or_equiv
_atom_site_adp_type
_atom_site_occupancy
C1     C     0.51373   0.19457   0.58753   0.00000  Uiso   1.00
C2     C     0.66970   0.17119   0.65872   0.00000  Uiso   1.00
C3     C     0.74334   0.14114   0.63694   0.00000  Uiso   1.00
C4     C     0.88542   0.12340   0.71218   0.00000  Uiso   1.00
C5     C     0.11754   0.08525   0.80849   0.00000  Uiso   1.00
C6     C     0.43696   0.16085   0.61412   0.00000  Uiso   1.00
C7     C     0.31492   0.12211   0.55484   0.00000  Uiso   1.00
C8     C     0.26107   0.09567   0.59254   0.00000  Uiso   1.00
C9     C     0.13180   0.04151   0.61959   0.00000  Uiso   1.00
C10    C     0.51768   0.26668   0.60785   0.00000  Uiso   1.00
C11    C     0.46348   0.31694   0.54329   0.00000  Uiso   1.00
C12    C     0.47756   0.37960   0.57570   0.00000  Uiso   1.00
C13    C     0.47364   0.48976   0.59300   0.00000  Uiso   1.00
C14    C     0.63508   0.21649   0.75988   0.00000  Uiso   1.00
C15    C     0.73560   0.18309   0.75234   0.00000  Uiso   1.00
C16    C     0.87760   0.16539   0.82763   0.00000  Uiso   1.00
C17    C     0.95145   0.13533   0.80597   0.00000  Uiso   1.00
C18    C     0.50287   0.17275   0.70774   0.00000  Uiso   1.00
C19    C     0.44918   0.14636   0.74553   0.00000  Uiso   1.00
C20    C     0.32709   0.10759   0.68632   0.00000  Uiso   1.00
C21    C     0.58360   0.27859   0.70147   0.00000  Uiso   1.00
C22    C     0.59775   0.34118   0.73398   0.00000  Uiso   1.00
C23    C     0.54359   0.39152   0.66948   0.00000  Uiso   1.00
H24    H     0.46241   0.18530   0.51464   0.00000  Uiso   1.00
H25    H     0.69229   0.13193   0.56448   0.00000  Uiso   1.00
H26    H     0.26393   0.11291   0.48239   0.00000  Uiso   1.00
H27    H     0.41248   0.30770   0.47085   0.00000  Uiso   1.00
H28    H     0.97622   0.07800   0.66103   0.00000  Uiso   1.00
H29    H     0.07296   0.03791   0.48793   0.00000  Uiso   1.00
H30    H     0.38620   0.44867   0.46357   0.00000  Uiso   1.00
H31    H     0.68639   0.22576   0.83277   0.00000  Uiso   1.00
H32    H     0.92858   0.17461   0.90007   0.00000  Uiso   1.00
H33    H     0.50021   0.15559   0.81798   0.00000  Uiso   1.00
H34    H     0.64876   0.35038   0.80643   0.00000  Uiso   1.00
H35    H     0.16799   0.11263   0.93340   0.00000  Uiso   1.00
H36    H     0.26472   0.07255   0.76030   0.00000  Uiso   1.00
H37    H     0.57797   0.48330   0.73595   0.00000  Uiso   1.00
O38    O     0.22736   0.06092   0.83575   0.00000  Uiso   1.00
O39    O     0.04230   0.00834   0.60864   0.00000  Uiso   1.00
O40    O     0.45328   0.54724   0.57669   0.00000  Uiso   1.00
N41    N     0.98812   0.09318   0.71590   0.00000  Uiso   1.00
N42    N     0.14364   0.05569   0.55406   0.00000  Uiso   1.00
N43    N     0.43646   0.43971   0.53129   0.00000  Uiso   1.00
N44    N     0.09132   0.11182   0.86246   0.00000  Uiso   1.00
N45    N     0.24683   0.07433   0.70062   0.00000  Uiso   1.00
N46    N     0.53966   0.45835   0.67785   0.00000  Uiso   1.00
C47    C     0.48627   0.69457   0.91247   0.00000  Uiso   1.00
C48    C     0.33030   0.67119   0.84128   0.00000  Uiso   1.00
C49    C     0.25666   0.64114   0.86306   0.00000  Uiso   1.00
C50    C     0.11458   0.62340   0.78782   0.00000  Uiso   1.00
C51    C     0.88246   0.58525   0.69151   0.00000  Uiso   1.00
C52    C     0.56304   0.66085   0.88588   0.00000  Uiso   1.00
C53    C     0.68508   0.62211   0.94516   0.00000  Uiso   1.00
C54    C     0.73893   0.59567   0.90746   0.00000  Uiso   1.00
C55    C     0.86820   0.54151   0.88041   0.00000  Uiso   1.00
C56    C     0.48232   0.76668   0.89215   0.00000  Uiso   1.00
C57    C     0.53652   0.81694   0.95671   0.00000  Uiso   1.00
C58    C     0.52244   0.87960   0.92430   0.00000  Uiso   1.00
C59    C     0.52636   0.98976   0.90700   0.00000  Uiso   1.00
C60    C     0.36492   0.71649   0.74012   0.00000  Uiso   1.00
C61    C     0.26440   0.68309   0.74766   0.00000  Uiso   1.00
C62    C     0.12240   0.66539   0.67237   0.00000  Uiso   1.00
C63    C     0.04855   0.63533   0.69403   0.00000  Uiso   1.00
C64    C     0.49713   0.67275   0.79226   0.00000  Uiso   1.00
C65    C     0.55082   0.64636   0.75447   0.00000  Uiso   1.00
C66    C     0.67291   0.60759   0.81368   0.00000  Uiso   1.00
C67    C     0.41640   0.77859   0.79853   0.00000  Uiso   1.00
C68    C     0.40225   0.84118   0.76602   0.00000  Uiso   1.00
C69    C     0.45641   0.89152   0.83052   0.00000  Uiso   1.00
H70    H     0.53759   0.68530   0.98536   0.00000  Uiso   1.00
H71    H     0.30771   0.63193   0.93552   0.00000  Uiso   1.00
H72    H     0.73607   0.61291   0.01761   0.00000  Uiso   1.00
H73    H     0.58752   0.80770   0.02915   0.00000  Uiso   1.00
H74    H     0.02378   0.57800   0.83897   0.00000  Uiso   1.00
H75    H     0.92704   0.53791   0.01207   0.00000  Uiso   1.00
H76    H     0.61380   0.94867   0.03643   0.00000  Uiso   1.00
H77    H     0.31361   0.72576   0.66723   0.00000  Uiso   1.00
H78    H     0.07142   0.67461   0.59993   0.00000  Uiso   1.00
H79    H     0.49979   0.65559   0.68202   0.00000  Uiso   1.00
H80    H     0.35124   0.85038   0.69357   0.00000  Uiso   1.00
H81    H     0.83201   0.61263   0.56660   0.00000  Uiso   1.00
H82    H     0.73528   0.57255   0.73970   0.00000  Uiso   1.00
H83    H     0.42203   0.98330   0.76405   0.00000  Uiso   1.00
O84    O     0.77264   0.56092   0.66425   0.00000  Uiso   1.00
O85    O     0.95770   0.50834   0.89136   0.00000  Uiso   1.00
O86    O     0.54672   0.04724   0.92331   0.00000  Uiso   1.00
N87    N     0.01188   0.59318   0.78410   0.00000  Uiso   1.00
N88    N     0.85636   0.55569   0.94594   0.00000  Uiso   1.00
N89    N     0.56354   0.93971   0.96871   0.00000  Uiso   1.00
N90    N     0.90868   0.61182   0.63754   0.00000  Uiso   1.00
N91    N     0.75317   0.57433   0.79938   0.00000  Uiso   1.00
N92    N     0.46034   0.95835   0.82215   0.00000  Uiso   1.00
C93    C     0.48627   0.80543   0.41247   0.00000  Uiso   1.00
C94    C     0.33030   0.82881   0.34128   0.00000  Uiso   1.00
C95    C     0.25666   0.85886   0.36306   0.00000  Uiso   1.00
C96    C     0.11458   0.87660   0.28782   0.00000  Uiso   1.00
C97    C     0.88246   0.91475   0.19151   0.00000  Uiso   1.00
C98    C     0.56304   0.83915   0.38588   0.00000  Uiso   1.00
C99    C     0.68508   0.87789   0.44516   0.00000  Uiso   1.00
C100   C     0.73893   0.90433   0.40746   0.00000  Uiso   1.00
C101   C     0.86820   0.95849   0.38041   0.00000  Uiso   1.00
C102   C     0.48232   0.73332   0.39215   0.00000  Uiso   1.00
C103   C     0.53652   0.68306   0.45671   0.00000  Uiso   1.00
C104   C     0.52244   0.62040   0.42430   0.00000  Uiso   1.00
C105   C     0.52636   0.51024   0.40700   0.00000  Uiso   1.00
C106   C     0.36492   0.78351   0.24012   0.00000  Uiso   1.00
C107   C     0.26440   0.81691   0.24766   0.00000  Uiso   1.00
C108   C     0.12240   0.83461   0.17237   0.00000  Uiso   1.00
C109   C     0.04855   0.86467   0.19403   0.00000  Uiso   1.00
C110   C     0.49713   0.82725   0.29226   0.00000  Uiso   1.00
C111   C     0.55082   0.85364   0.25447   0.00000  Uiso   1.00
C112   C     0.67291   0.89241   0.31368   0.00000  Uiso   1.00
C113   C     0.41640   0.72141   0.29853   0.00000  Uiso   1.00
C114   C     0.40225   0.65882   0.26602   0.00000  Uiso   1.00
C115   C     0.45641   0.60848   0.33052   0.00000  Uiso   1.00
H116   H     0.53759   0.81470   0.48536   0.00000  Uiso   1.00
H117   H     0.30771   0.86807   0.43552   0.00000  Uiso   1.00
H118   H     0.73607   0.88709   0.51761   0.00000  Uiso   1.00
H119   H     0.58752   0.69230   0.52915   0.00000  Uiso   1.00
H120   H     0.02378   0.92200   0.33897   0.00000  Uiso   1.00
H121   H     0.92704   0.96209   0.51207   0.00000  Uiso   1.00
H122   H     0.61380   0.55133   0.53643   0.00000  Uiso   1.00
H123   H     0.31361   0.77424   0.16723   0.00000  Uiso   1.00
H124   H     0.07142   0.82539   0.09993   0.00000  Uiso   1.00
H125   H     0.49979   0.84441   0.18202   0.00000  Uiso   1.00
H126   H     0.35124   0.64962   0.19357   0.00000  Uiso   1.00
H127   H     0.83201   0.88737   0.06660   0.00000  Uiso   1.00
H128   H     0.73528   0.92745   0.23970   0.00000  Uiso   1.00
H129   H     0.42203   0.51670   0.26405   0.00000  Uiso   1.00
O130   O     0.77264   0.93908   0.16425   0.00000  Uiso   1.00
O131   O     0.95770   0.99166   0.39136   0.00000  Uiso   1.00
O132   O     0.54672   0.45276   0.42331   0.00000  Uiso   1.00
N133   N     0.01188   0.90682   0.28410   0.00000  Uiso   1.00
N134   N     0.85636   0.94431   0.44594   0.00000  Uiso   1.00
N135   N     0.56354   0.56029   0.46871   0.00000  Uiso   1.00
N136   N     0.90868   0.88818   0.13754   0.00000  Uiso   1.00
N137   N     0.75317   0.92567   0.29938   0.00000  Uiso   1.00
N138   N     0.46034   0.54165   0.32215   0.00000  Uiso   1.00
C139   C     0.51373   0.30543   0.08753   0.00000  Uiso   1.00
C140   C     0.66970   0.32881   0.15872   0.00000  Uiso   1.00
C141   C     0.74334   0.35886   0.13694   0.00000  Uiso   1.00
C142   C     0.88542   0.37660   0.21218   0.00000  Uiso   1.00
C143   C     0.11754   0.41475   0.30849   0.00000  Uiso   1.00
C144   C     0.43696   0.33915   0.11412   0.00000  Uiso   1.00
C145   C     0.31492   0.37789   0.05484   0.00000  Uiso   1.00
C146   C     0.26107   0.40433   0.09254   0.00000  Uiso   1.00
C147   C     0.13180   0.45849   0.11959   0.00000  Uiso   1.00
C148   C     0.51768   0.23332   0.10785   0.00000  Uiso   1.00
C149   C     0.46348   0.18306   0.04329   0.00000  Uiso   1.00
C150   C     0.47756   0.12040   0.07570   0.00000  Uiso   1.00
C151   C     0.47364   0.01024   0.09300   0.00000  Uiso   1.00
C152   C     0.63508   0.28351   0.25988   0.00000  Uiso   1.00
C153   C     0.73560   0.31691   0.25234   0.00000  Uiso   1.00
C154   C     0.87760   0.33461   0.32763   0.00000  Uiso   1.00
C155   C     0.95145   0.36467   0.30597   0.00000  Uiso   1.00
C156   C     0.50287   0.32725   0.20774   0.00000  Uiso   1.00
C157   C     0.44918   0.35364   0.24553   0.00000  Uiso   1.00
C158   C     0.32709   0.39241   0.18632   0.00000  Uiso   1.00
C159   C     0.58360   0.22141   0.20147   0.00000  Uiso   1.00
C160   C     0.59775   0.15882   0.23398   0.00000  Uiso   1.00
C161   C     0.54359   0.10848   0.16948   0.00000  Uiso   1.00
H162   H     0.46241   0.31470   0.01464   0.00000  Uiso   1.00
H163   H     0.69229   0.36807   0.06448   0.00000  Uiso   1.00
H164   H     0.26393   0.38709   0.98239   0.00000  Uiso   1.00
H165   H     0.41248   0.19230   0.97085   0.00000  Uiso   1.00
H166   H     0.97622   0.42200   0.16103   0.00000  Uiso   1.00
H167   H     0.07296   0.46209   0.98793   0.00000  Uiso   1.00
H168   H     0.38620   0.05133   0.96357   0.00000  Uiso   1.00
H169   H     0.68639   0.27424   0.33277   0.00000  Uiso   1.00
H170   H     0.92858   0.32539   0.40007   0.00000  Uiso   1.00
H171   H     0.50021   0.34441   0.31798   0.00000  Uiso   1.00
H172   H     0.64876   0.14962   0.30643   0.00000  Uiso   1.00
H173   H     0.16799   0.38737   0.43340   0.00000  Uiso   1.00
H174   H     0.26472   0.42745   0.26030   0.00000  Uiso   1.00
H175   H     0.57797   0.01670   0.23595   0.00000  Uiso   1.00
O176   O     0.22736   0.43908   0.33575   0.00000  Uiso   1.00
O177   O     0.04230   0.49166   0.10864   0.00000  Uiso   1.00
O178   O     0.45328   0.95276   0.07669   0.00000  Uiso   1.00
N179   N     0.98812   0.40682   0.21590   0.00000  Uiso   1.00
N180   N     0.14364   0.44431   0.05406   0.00000  Uiso   1.00
N181   N     0.43646   0.06029   0.03129   0.00000  Uiso   1.00
N182   N     0.09132   0.38818   0.36246   0.00000  Uiso   1.00
N183   N     0.24683   0.42567   0.20062   0.00000  Uiso   1.00
N184   N     0.53966   0.04165   0.17785   0.00000  Uiso   1.00
