data_job_01575
_audit_creation_date              2018-12-19
_audit_creation_method            'Materials Studio'
_symmetry_space_group_name_H-M    'P1'
_symmetry_Int_Tables_number       1
_symmetry_cell_setting            triclinic
loop_
_symmetry_equiv_pos_as_xyz
  x,y,z
_cell_length_a                    9.7466
_cell_length_b                    12.4238
_cell_length_c                    12.6517
_cell_angle_alpha                 108.5185
_cell_angle_beta                  74.0900
_cell_angle_gamma                 83.8192
loop_
_atom_site_label
_atom_site_type_symbol
_atom_site_fract_x
_atom_site_fract_y
_atom_site_fract_z
_atom_site_U_iso_or_equiv
_atom_site_adp_type
_atom_site_occupancy
C1     C     0.18339   0.38421   0.17637   0.00000  Uiso   1.00
C2     C     0.20105   0.32606   0.26280   0.00000  Uiso   1.00
C3     C     0.24684   0.37275   0.35913   0.00000  Uiso   1.00
C4     C     0.25594   0.30587   0.42744   0.00000  Uiso   1.00
C5     C     0.28883   0.23223   0.56574   0.00000  Uiso   1.00
C6     C     0.27848   0.29937   0.05432   0.00000  Uiso   1.00
C7     C     0.38936   0.32362   0.97536   0.00000  Uiso   1.00
C8     C     0.46362   0.23427   0.86818   0.00000  Uiso   1.00
C9     C     0.61665   0.11922   0.68277   0.00000  Uiso   1.00
C10    C     0.02591   0.38890   0.17774   0.00000  Uiso   1.00
C11    C     0.92443   0.48843   0.20251   0.00000  Uiso   1.00
C12    C     0.78605   0.47445   0.19920   0.00000  Uiso   1.00
C13    C     0.54692   0.49841   0.20542   0.00000  Uiso   1.00
C14    C     0.11810   0.18241   0.12640   0.00000  Uiso   1.00
C15    C     0.16559   0.21645   0.23565   0.00000  Uiso   1.00
C16    C     0.17461   0.14948   0.30384   0.00000  Uiso   1.00
C17    C     0.22041   0.19606   0.40025   0.00000  Uiso   1.00
C18    C     0.24302   0.18976   0.02718   0.00000  Uiso   1.00
C19    C     0.31713   0.10036   0.92008   0.00000  Uiso   1.00
C20    C     0.42810   0.12447   0.84098   0.00000  Uiso   1.00
C21    C     0.99044   0.27929   0.15059   0.00000  Uiso   1.00
C22    C     0.85220   0.26516   0.14723   0.00000  Uiso   1.00
C23    C     0.75053   0.36464   0.17201   0.00000  Uiso   1.00
H24    H     0.21100   0.46954   0.19749   0.00000  Uiso   1.00
H25    H     0.27429   0.45757   0.38010   0.00000  Uiso   1.00
H26    H     0.41677   0.40846   0.99639   0.00000  Uiso   1.00
H27    H     0.95191   0.57323   0.22351   0.00000  Uiso   1.00
H28    H     0.32887   0.39595   0.57055   0.00000  Uiso   1.00
H29    H     0.62926   0.29240   0.76147   0.00000  Uiso   1.00
H30    H     0.64901   0.63986   0.24039   0.00000  Uiso   1.00
H31    H     0.09050   0.09707   0.10526   0.00000  Uiso   1.00
H32    H     0.14717   0.06466   0.28281   0.00000  Uiso   1.00
H33    H     0.28965   0.01555   0.89910   0.00000  Uiso   1.00
H34    H     0.82479   0.18032   0.12622   0.00000  Uiso   1.00
H35    H     0.22570   0.07704   0.49159   0.00000  Uiso   1.00
H36    H     0.52609   0.97350   0.68250   0.00000  Uiso   1.00
H37    H     0.54585   0.32096   0.16143   0.00000  Uiso   1.00
O38    O     0.31679   0.22188   0.64950   0.00000  Uiso   1.00
O39    O     0.71087   0.08604   0.58802   0.00000  Uiso   1.00
O40    O     0.42481   0.54190   0.21636   0.00000  Uiso   1.00
N41    N     0.29678   0.32535   0.52761   0.00000  Uiso   1.00
N42    N     0.57765   0.22853   0.77118   0.00000  Uiso   1.00
N43    N     0.66121   0.55338   0.21890   0.00000  Uiso   1.00
N44    N     0.24127   0.15375   0.48512   0.00000  Uiso   1.00
N45    N     0.52213   0.05693   0.72869   0.00000  Uiso   1.00
N46    N     0.60570   0.38178   0.17641   0.00000  Uiso   1.00
C47    C     0.81661   0.61579   0.82363   0.00000  Uiso   1.00
C48    C     0.79895   0.67394   0.73720   0.00000  Uiso   1.00
C49    C     0.75316   0.62725   0.64087   0.00000  Uiso   1.00
C50    C     0.74406   0.69413   0.57256   0.00000  Uiso   1.00
C51    C     0.71117   0.76777   0.43426   0.00000  Uiso   1.00
C52    C     0.72152   0.70063   0.94568   0.00000  Uiso   1.00
C53    C     0.61064   0.67638   0.02464   0.00000  Uiso   1.00
C54    C     0.53638   0.76573   0.13182   0.00000  Uiso   1.00
C55    C     0.38335   0.88078   0.31723   0.00000  Uiso   1.00
C56    C     0.97409   0.61110   0.82226   0.00000  Uiso   1.00
C57    C     0.07557   0.51157   0.79749   0.00000  Uiso   1.00
C58    C     0.21395   0.52555   0.80080   0.00000  Uiso   1.00
C59    C     0.45308   0.50159   0.79458   0.00000  Uiso   1.00
C60    C     0.88190   0.81759   0.87360   0.00000  Uiso   1.00
C61    C     0.83441   0.78355   0.76435   0.00000  Uiso   1.00
C62    C     0.82539   0.85052   0.69616   0.00000  Uiso   1.00
C63    C     0.77959   0.80394   0.59975   0.00000  Uiso   1.00
C64    C     0.75698   0.81024   0.97282   0.00000  Uiso   1.00
C65    C     0.68287   0.89964   0.07992   0.00000  Uiso   1.00
C66    C     0.57190   0.87553   0.15902   0.00000  Uiso   1.00
C67    C     0.00956   0.72071   0.84941   0.00000  Uiso   1.00
C68    C     0.14780   0.73484   0.85277   0.00000  Uiso   1.00
C69    C     0.24947   0.63536   0.82799   0.00000  Uiso   1.00
H70    H     0.78900   0.53046   0.80251   0.00000  Uiso   1.00
H71    H     0.72571   0.54243   0.61990   0.00000  Uiso   1.00
H72    H     0.58323   0.59154   0.00361   0.00000  Uiso   1.00
H73    H     0.04809   0.42677   0.77649   0.00000  Uiso   1.00
H74    H     0.67113   0.60405   0.42945   0.00000  Uiso   1.00
H75    H     0.37074   0.70760   0.23853   0.00000  Uiso   1.00
H76    H     0.35099   0.36014   0.75961   0.00000  Uiso   1.00
H77    H     0.90950   0.90293   0.89474   0.00000  Uiso   1.00
H78    H     0.85283   0.93534   0.71719   0.00000  Uiso   1.00
H79    H     0.71035   0.98445   0.10090   0.00000  Uiso   1.00
H80    H     0.17521   0.81968   0.87378   0.00000  Uiso   1.00
H81    H     0.77430   0.92296   0.50841   0.00000  Uiso   1.00
H82    H     0.47391   0.02650   0.31750   0.00000  Uiso   1.00
H83    H     0.45415   0.67904   0.83857   0.00000  Uiso   1.00
O84    O     0.68321   0.77812   0.35050   0.00000  Uiso   1.00
O85    O     0.28913   0.91396   0.41198   0.00000  Uiso   1.00
O86    O     0.57519   0.45810   0.78364   0.00000  Uiso   1.00
N87    N     0.70322   0.67465   0.47239   0.00000  Uiso   1.00
N88    N     0.42235   0.77147   0.22882   0.00000  Uiso   1.00
N89    N     0.33879   0.44662   0.78110   0.00000  Uiso   1.00
N90    N     0.75873   0.84625   0.51488   0.00000  Uiso   1.00
N91    N     0.47787   0.94307   0.27131   0.00000  Uiso   1.00
N92    N     0.39430   0.61822   0.82359   0.00000  Uiso   1.00
