data_job_03576
_audit_creation_date              2018-12-19
_audit_creation_method            'Materials Studio'
_symmetry_space_group_name_H-M    'P1'
_symmetry_Int_Tables_number       1
_symmetry_cell_setting            triclinic
loop_
_symmetry_equiv_pos_as_xyz
  x,y,z
_cell_length_a                    22.2928
_cell_length_b                    20.3233
_cell_length_c                    13.7885
_cell_angle_alpha                 90.0000
_cell_angle_beta                  102.8516
_cell_angle_gamma                 90.0000
loop_
_atom_site_label
_atom_site_type_symbol
_atom_site_fract_x
_atom_site_fract_y
_atom_site_fract_z
_atom_site_U_iso_or_equiv
_atom_site_adp_type
_atom_site_occupancy
C1     C     0.92191   0.22685   0.06335   0.00000  Uiso   1.00
C2     C     0.98817   0.22927   0.05095   0.00000  Uiso   1.00
C3     C     0.03783   0.25550   0.11887   0.00000  Uiso   1.00
C4     C     0.09474   0.25302   0.09374   0.00000  Uiso   1.00
C5     C     0.19656   0.26102   0.08814   0.00000  Uiso   1.00
C6     C     0.88336   0.26164   0.97261   0.00000  Uiso   1.00
C7     C     0.84491   0.31508   0.97468   0.00000  Uiso   1.00
C8     C     0.81359   0.33984   0.88360   0.00000  Uiso   1.00
C9     C     0.75266   0.39808   0.75638   0.00000  Uiso   1.00
C10    C     0.90294   0.15465   0.05312   0.00000  Uiso   1.00
C11    C     0.88093   0.11813   0.12285   0.00000  Uiso   1.00
C12    C     0.86607   0.05282   0.09954   0.00000  Uiso   1.00
C13    C     0.83554   0.94493   0.09731   0.00000  Uiso   1.00
C14    C     0.93465   0.17579   0.89794   0.00000  Uiso   1.00
C15    C     0.99508   0.20154   0.96110   0.00000  Uiso   1.00
C16    C     0.05193   0.19901   0.93587   0.00000  Uiso   1.00
C17    C     0.10168   0.22523   0.00374   0.00000  Uiso   1.00
C18    C     0.89028   0.23391   0.88277   0.00000  Uiso   1.00
C19    C     0.85901   0.25859   0.79167   0.00000  Uiso   1.00
C20    C     0.82052   0.31206   0.79359   0.00000  Uiso   1.00
C21    C     0.90986   0.12692   0.96327   0.00000  Uiso   1.00
C22    C     0.89503   0.06165   0.93984   0.00000  Uiso   1.00
C23    C     0.87300   0.02503   0.00953   0.00000  Uiso   1.00
H24    H     0.91652   0.24844   0.13329   0.00000  Uiso   1.00
H25    H     0.03246   0.27696   0.18839   0.00000  Uiso   1.00
H26    H     0.83956   0.33653   0.04421   0.00000  Uiso   1.00
H27    H     0.87558   0.13961   0.19237   0.00000  Uiso   1.00
H28    H     0.16404   0.29638   0.20984   0.00000  Uiso   1.00
H29    H     0.75729   0.42196   0.90584   0.00000  Uiso   1.00
H30    H     0.83323   0.00672   0.21825   0.00000  Uiso   1.00
H31    H     0.94004   0.15420   0.82798   0.00000  Uiso   1.00
H32    H     0.05728   0.17755   0.86633   0.00000  Uiso   1.00
H33    H     0.86437   0.23712   0.72216   0.00000  Uiso   1.00
H34    H     0.90039   0.04020   0.87031   0.00000  Uiso   1.00
H35    H     0.18419   0.21569   0.94845   0.00000  Uiso   1.00
H36    H     0.77743   0.34128   0.64444   0.00000  Uiso   1.00
H37    H     0.85338   0.92604   0.95685   0.00000  Uiso   1.00
O38    O     0.25080   0.27311   0.10986   0.00000  Uiso   1.00
O39    O     0.71715   0.43787   0.71103   0.00000  Uiso   1.00
O40    O     0.81679   0.89308   0.12090   0.00000  Uiso   1.00
N41    N     0.15270   0.27417   0.14307   0.00000  Uiso   1.00
N42    N     0.77241   0.39159   0.85884   0.00000  Uiso   1.00
N43    N     0.84340   0.00338   0.15091   0.00000  Uiso   1.00
N44    N     0.16354   0.23075   0.00241   0.00000  Uiso   1.00
N45    N     0.78325   0.34818   0.71819   0.00000  Uiso   1.00
N46    N     0.85424   0.95997   0.01025   0.00000  Uiso   1.00
C47    C     0.42191   0.72685   0.06335   0.00000  Uiso   1.00
C48    C     0.48817   0.72927   0.05095   0.00000  Uiso   1.00
C49    C     0.53783   0.75550   0.11887   0.00000  Uiso   1.00
C50    C     0.59474   0.75302   0.09374   0.00000  Uiso   1.00
C51    C     0.69656   0.76102   0.08814   0.00000  Uiso   1.00
C52    C     0.38336   0.76164   0.97261   0.00000  Uiso   1.00
C53    C     0.34491   0.81508   0.97468   0.00000  Uiso   1.00
C54    C     0.31359   0.83984   0.88360   0.00000  Uiso   1.00
C55    C     0.25266   0.89808   0.75638   0.00000  Uiso   1.00
C56    C     0.40294   0.65465   0.05312   0.00000  Uiso   1.00
C57    C     0.38093   0.61813   0.12285   0.00000  Uiso   1.00
C58    C     0.36607   0.55282   0.09954   0.00000  Uiso   1.00
C59    C     0.33554   0.44493   0.09731   0.00000  Uiso   1.00
C60    C     0.43465   0.67579   0.89794   0.00000  Uiso   1.00
C61    C     0.49508   0.70154   0.96110   0.00000  Uiso   1.00
C62    C     0.55193   0.69901   0.93587   0.00000  Uiso   1.00
C63    C     0.60168   0.72523   0.00374   0.00000  Uiso   1.00
C64    C     0.39028   0.73391   0.88277   0.00000  Uiso   1.00
C65    C     0.35901   0.75859   0.79167   0.00000  Uiso   1.00
C66    C     0.32052   0.81206   0.79359   0.00000  Uiso   1.00
C67    C     0.40986   0.62692   0.96327   0.00000  Uiso   1.00
C68    C     0.39503   0.56165   0.93984   0.00000  Uiso   1.00
C69    C     0.37300   0.52503   0.00953   0.00000  Uiso   1.00
H70    H     0.41652   0.74844   0.13329   0.00000  Uiso   1.00
H71    H     0.53246   0.77696   0.18839   0.00000  Uiso   1.00
H72    H     0.33956   0.83653   0.04421   0.00000  Uiso   1.00
H73    H     0.37558   0.63961   0.19237   0.00000  Uiso   1.00
H74    H     0.66404   0.79638   0.20984   0.00000  Uiso   1.00
H75    H     0.25729   0.92196   0.90584   0.00000  Uiso   1.00
H76    H     0.33323   0.50672   0.21825   0.00000  Uiso   1.00
H77    H     0.44004   0.65420   0.82798   0.00000  Uiso   1.00
H78    H     0.55728   0.67755   0.86633   0.00000  Uiso   1.00
H79    H     0.36437   0.73712   0.72216   0.00000  Uiso   1.00
H80    H     0.40039   0.54020   0.87031   0.00000  Uiso   1.00
H81    H     0.68419   0.71569   0.94845   0.00000  Uiso   1.00
H82    H     0.27743   0.84128   0.64444   0.00000  Uiso   1.00
H83    H     0.35338   0.42604   0.95685   0.00000  Uiso   1.00
O84    O     0.75080   0.77311   0.10986   0.00000  Uiso   1.00
O85    O     0.21715   0.93787   0.71103   0.00000  Uiso   1.00
O86    O     0.31679   0.39308   0.12090   0.00000  Uiso   1.00
N87    N     0.65270   0.77417   0.14307   0.00000  Uiso   1.00
N88    N     0.27241   0.89159   0.85884   0.00000  Uiso   1.00
N89    N     0.34340   0.50338   0.15091   0.00000  Uiso   1.00
N90    N     0.66354   0.73075   0.00241   0.00000  Uiso   1.00
N91    N     0.28325   0.84818   0.71819   0.00000  Uiso   1.00
N92    N     0.35424   0.45997   0.01025   0.00000  Uiso   1.00
C93    C     0.07809   0.22685   0.43665   0.00000  Uiso   1.00
C94    C     0.01183   0.22927   0.44905   0.00000  Uiso   1.00
C95    C     0.96217   0.25550   0.38113   0.00000  Uiso   1.00
C96    C     0.90526   0.25302   0.40626   0.00000  Uiso   1.00
C97    C     0.80344   0.26102   0.41186   0.00000  Uiso   1.00
C98    C     0.11664   0.26164   0.52739   0.00000  Uiso   1.00
C99    C     0.15509   0.31508   0.52532   0.00000  Uiso   1.00
C100   C     0.18641   0.33984   0.61640   0.00000  Uiso   1.00
C101   C     0.24734   0.39808   0.74362   0.00000  Uiso   1.00
C102   C     0.09706   0.15465   0.44688   0.00000  Uiso   1.00
C103   C     0.11907   0.11813   0.37715   0.00000  Uiso   1.00
C104   C     0.13393   0.05282   0.40046   0.00000  Uiso   1.00
C105   C     0.16446   0.94493   0.40269   0.00000  Uiso   1.00
C106   C     0.06535   0.17579   0.60206   0.00000  Uiso   1.00
C107   C     0.00492   0.20154   0.53890   0.00000  Uiso   1.00
C108   C     0.94807   0.19901   0.56413   0.00000  Uiso   1.00
C109   C     0.89832   0.22523   0.49626   0.00000  Uiso   1.00
C110   C     0.10972   0.23391   0.61723   0.00000  Uiso   1.00
C111   C     0.14099   0.25859   0.70833   0.00000  Uiso   1.00
C112   C     0.17948   0.31206   0.70641   0.00000  Uiso   1.00
C113   C     0.09014   0.12692   0.53673   0.00000  Uiso   1.00
C114   C     0.10497   0.06165   0.56016   0.00000  Uiso   1.00
C115   C     0.12700   0.02503   0.49047   0.00000  Uiso   1.00
H116   H     0.08348   0.24844   0.36671   0.00000  Uiso   1.00
H117   H     0.96754   0.27696   0.31161   0.00000  Uiso   1.00
H118   H     0.16044   0.33653   0.45579   0.00000  Uiso   1.00
H119   H     0.12442   0.13961   0.30763   0.00000  Uiso   1.00
H120   H     0.83596   0.29638   0.29016   0.00000  Uiso   1.00
H121   H     0.24271   0.42196   0.59416   0.00000  Uiso   1.00
H122   H     0.16677   0.00672   0.28175   0.00000  Uiso   1.00
H123   H     0.05996   0.15420   0.67202   0.00000  Uiso   1.00
H124   H     0.94272   0.17755   0.63367   0.00000  Uiso   1.00
H125   H     0.13563   0.23712   0.77784   0.00000  Uiso   1.00
H126   H     0.09961   0.04020   0.62969   0.00000  Uiso   1.00
H127   H     0.81581   0.21569   0.55155   0.00000  Uiso   1.00
H128   H     0.22257   0.34128   0.85556   0.00000  Uiso   1.00
H129   H     0.14662   0.92604   0.54315   0.00000  Uiso   1.00
O130   O     0.74920   0.27311   0.39014   0.00000  Uiso   1.00
O131   O     0.28285   0.43787   0.78897   0.00000  Uiso   1.00
O132   O     0.18321   0.89308   0.37910   0.00000  Uiso   1.00
N133   N     0.84730   0.27417   0.35693   0.00000  Uiso   1.00
N134   N     0.22759   0.39159   0.64116   0.00000  Uiso   1.00
N135   N     0.15660   0.00338   0.34909   0.00000  Uiso   1.00
N136   N     0.83646   0.23075   0.49759   0.00000  Uiso   1.00
N137   N     0.21675   0.34818   0.78181   0.00000  Uiso   1.00
N138   N     0.14576   0.95997   0.48975   0.00000  Uiso   1.00
C139   C     0.57809   0.72685   0.43665   0.00000  Uiso   1.00
C140   C     0.51183   0.72927   0.44905   0.00000  Uiso   1.00
C141   C     0.46217   0.75550   0.38113   0.00000  Uiso   1.00
C142   C     0.40526   0.75302   0.40626   0.00000  Uiso   1.00
C143   C     0.30344   0.76102   0.41186   0.00000  Uiso   1.00
C144   C     0.61664   0.76164   0.52739   0.00000  Uiso   1.00
C145   C     0.65509   0.81508   0.52532   0.00000  Uiso   1.00
C146   C     0.68641   0.83984   0.61640   0.00000  Uiso   1.00
C147   C     0.74734   0.89808   0.74362   0.00000  Uiso   1.00
C148   C     0.59706   0.65465   0.44688   0.00000  Uiso   1.00
C149   C     0.61907   0.61813   0.37715   0.00000  Uiso   1.00
C150   C     0.63393   0.55282   0.40046   0.00000  Uiso   1.00
C151   C     0.66446   0.44493   0.40269   0.00000  Uiso   1.00
C152   C     0.56535   0.67579   0.60206   0.00000  Uiso   1.00
C153   C     0.50492   0.70154   0.53890   0.00000  Uiso   1.00
C154   C     0.44807   0.69901   0.56413   0.00000  Uiso   1.00
C155   C     0.39832   0.72523   0.49626   0.00000  Uiso   1.00
C156   C     0.60972   0.73391   0.61723   0.00000  Uiso   1.00
C157   C     0.64099   0.75859   0.70833   0.00000  Uiso   1.00
C158   C     0.67948   0.81206   0.70641   0.00000  Uiso   1.00
C159   C     0.59014   0.62692   0.53673   0.00000  Uiso   1.00
C160   C     0.60497   0.56165   0.56016   0.00000  Uiso   1.00
C161   C     0.62700   0.52503   0.49047   0.00000  Uiso   1.00
H162   H     0.58348   0.74844   0.36671   0.00000  Uiso   1.00
H163   H     0.46754   0.77696   0.31161   0.00000  Uiso   1.00
H164   H     0.66044   0.83653   0.45579   0.00000  Uiso   1.00
H165   H     0.62442   0.63961   0.30763   0.00000  Uiso   1.00
H166   H     0.33596   0.79638   0.29016   0.00000  Uiso   1.00
H167   H     0.74271   0.92196   0.59416   0.00000  Uiso   1.00
H168   H     0.66677   0.50672   0.28175   0.00000  Uiso   1.00
H169   H     0.55996   0.65420   0.67202   0.00000  Uiso   1.00
H170   H     0.44272   0.67755   0.63367   0.00000  Uiso   1.00
H171   H     0.63563   0.73712   0.77784   0.00000  Uiso   1.00
H172   H     0.59961   0.54020   0.62969   0.00000  Uiso   1.00
H173   H     0.31581   0.71569   0.55155   0.00000  Uiso   1.00
H174   H     0.72257   0.84128   0.85556   0.00000  Uiso   1.00
H175   H     0.64662   0.42604   0.54315   0.00000  Uiso   1.00
O176   O     0.24920   0.77311   0.39014   0.00000  Uiso   1.00
O177   O     0.78285   0.93787   0.78897   0.00000  Uiso   1.00
O178   O     0.68321   0.39308   0.37910   0.00000  Uiso   1.00
N179   N     0.34730   0.77417   0.35693   0.00000  Uiso   1.00
N180   N     0.72759   0.89159   0.64116   0.00000  Uiso   1.00
N181   N     0.65660   0.50338   0.34909   0.00000  Uiso   1.00
N182   N     0.33646   0.73075   0.49759   0.00000  Uiso   1.00
N183   N     0.71675   0.84818   0.78181   0.00000  Uiso   1.00
N184   N     0.64576   0.45997   0.48975   0.00000  Uiso   1.00
C185   C     0.07809   0.77315   0.93665   0.00000  Uiso   1.00
C186   C     0.01183   0.77073   0.94905   0.00000  Uiso   1.00
C187   C     0.96217   0.74450   0.88113   0.00000  Uiso   1.00
C188   C     0.90526   0.74698   0.90626   0.00000  Uiso   1.00
C189   C     0.80344   0.73898   0.91186   0.00000  Uiso   1.00
C190   C     0.11664   0.73836   0.02739   0.00000  Uiso   1.00
C191   C     0.15509   0.68492   0.02532   0.00000  Uiso   1.00
C192   C     0.18641   0.66016   0.11640   0.00000  Uiso   1.00
C193   C     0.24734   0.60192   0.24362   0.00000  Uiso   1.00
C194   C     0.09706   0.84535   0.94688   0.00000  Uiso   1.00
C195   C     0.11907   0.88187   0.87715   0.00000  Uiso   1.00
C196   C     0.13393   0.94718   0.90046   0.00000  Uiso   1.00
C197   C     0.16446   0.05507   0.90269   0.00000  Uiso   1.00
C198   C     0.06535   0.82421   0.10206   0.00000  Uiso   1.00
C199   C     0.00492   0.79846   0.03890   0.00000  Uiso   1.00
C200   C     0.94807   0.80099   0.06413   0.00000  Uiso   1.00
C201   C     0.89832   0.77477   0.99626   0.00000  Uiso   1.00
C202   C     0.10972   0.76609   0.11723   0.00000  Uiso   1.00
C203   C     0.14099   0.74141   0.20833   0.00000  Uiso   1.00
C204   C     0.17948   0.68794   0.20641   0.00000  Uiso   1.00
C205   C     0.09014   0.87308   0.03673   0.00000  Uiso   1.00
C206   C     0.10497   0.93835   0.06016   0.00000  Uiso   1.00
C207   C     0.12700   0.97497   0.99047   0.00000  Uiso   1.00
H208   H     0.08348   0.75156   0.86671   0.00000  Uiso   1.00
H209   H     0.96754   0.72304   0.81161   0.00000  Uiso   1.00
H210   H     0.16044   0.66347   0.95579   0.00000  Uiso   1.00
H211   H     0.12442   0.86039   0.80763   0.00000  Uiso   1.00
H212   H     0.83596   0.70362   0.79016   0.00000  Uiso   1.00
H213   H     0.24271   0.57804   0.09416   0.00000  Uiso   1.00
H214   H     0.16677   0.99328   0.78175   0.00000  Uiso   1.00
H215   H     0.05996   0.84580   0.17202   0.00000  Uiso   1.00
H216   H     0.94272   0.82245   0.13367   0.00000  Uiso   1.00
H217   H     0.13563   0.76288   0.27784   0.00000  Uiso   1.00
H218   H     0.09961   0.95980   0.12969   0.00000  Uiso   1.00
H219   H     0.81581   0.78431   0.05155   0.00000  Uiso   1.00
H220   H     0.22257   0.65872   0.35556   0.00000  Uiso   1.00
H221   H     0.14662   0.07396   0.04315   0.00000  Uiso   1.00
O222   O     0.74920   0.72689   0.89014   0.00000  Uiso   1.00
O223   O     0.28285   0.56213   0.28897   0.00000  Uiso   1.00
O224   O     0.18321   0.10692   0.87910   0.00000  Uiso   1.00
N225   N     0.84730   0.72583   0.85693   0.00000  Uiso   1.00
N226   N     0.22759   0.60841   0.14116   0.00000  Uiso   1.00
N227   N     0.15660   0.99662   0.84909   0.00000  Uiso   1.00
N228   N     0.83646   0.76925   0.99759   0.00000  Uiso   1.00
N229   N     0.21675   0.65182   0.28181   0.00000  Uiso   1.00
N230   N     0.14576   0.04003   0.98975   0.00000  Uiso   1.00
C231   C     0.57809   0.27315   0.93665   0.00000  Uiso   1.00
C232   C     0.51183   0.27073   0.94905   0.00000  Uiso   1.00
C233   C     0.46217   0.24450   0.88113   0.00000  Uiso   1.00
C234   C     0.40526   0.24698   0.90626   0.00000  Uiso   1.00
C235   C     0.30344   0.23898   0.91186   0.00000  Uiso   1.00
C236   C     0.61664   0.23836   0.02739   0.00000  Uiso   1.00
C237   C     0.65509   0.18492   0.02532   0.00000  Uiso   1.00
C238   C     0.68641   0.16016   0.11640   0.00000  Uiso   1.00
C239   C     0.74734   0.10192   0.24362   0.00000  Uiso   1.00
C240   C     0.59706   0.34535   0.94688   0.00000  Uiso   1.00
C241   C     0.61907   0.38187   0.87715   0.00000  Uiso   1.00
C242   C     0.63393   0.44718   0.90046   0.00000  Uiso   1.00
C243   C     0.66446   0.55507   0.90269   0.00000  Uiso   1.00
C244   C     0.56535   0.32421   0.10206   0.00000  Uiso   1.00
C245   C     0.50492   0.29846   0.03890   0.00000  Uiso   1.00
C246   C     0.44807   0.30099   0.06413   0.00000  Uiso   1.00
C247   C     0.39832   0.27477   0.99626   0.00000  Uiso   1.00
C248   C     0.60972   0.26609   0.11723   0.00000  Uiso   1.00
C249   C     0.64099   0.24141   0.20833   0.00000  Uiso   1.00
C250   C     0.67948   0.18794   0.20641   0.00000  Uiso   1.00
C251   C     0.59014   0.37308   0.03673   0.00000  Uiso   1.00
C252   C     0.60497   0.43835   0.06016   0.00000  Uiso   1.00
C253   C     0.62700   0.47497   0.99047   0.00000  Uiso   1.00
H254   H     0.58348   0.25156   0.86671   0.00000  Uiso   1.00
H255   H     0.46754   0.22304   0.81161   0.00000  Uiso   1.00
H256   H     0.66044   0.16347   0.95579   0.00000  Uiso   1.00
H257   H     0.62442   0.36039   0.80763   0.00000  Uiso   1.00
H258   H     0.33596   0.20362   0.79016   0.00000  Uiso   1.00
H259   H     0.74271   0.07804   0.09416   0.00000  Uiso   1.00
H260   H     0.66677   0.49328   0.78175   0.00000  Uiso   1.00
H261   H     0.55996   0.34580   0.17202   0.00000  Uiso   1.00
H262   H     0.44272   0.32245   0.13367   0.00000  Uiso   1.00
H263   H     0.63563   0.26288   0.27784   0.00000  Uiso   1.00
H264   H     0.59961   0.45980   0.12969   0.00000  Uiso   1.00
H265   H     0.31581   0.28431   0.05155   0.00000  Uiso   1.00
H266   H     0.72257   0.15872   0.35556   0.00000  Uiso   1.00
H267   H     0.64662   0.57396   0.04315   0.00000  Uiso   1.00
O268   O     0.24920   0.22689   0.89014   0.00000  Uiso   1.00
O269   O     0.78285   0.06213   0.28897   0.00000  Uiso   1.00
O270   O     0.68321   0.60692   0.87910   0.00000  Uiso   1.00
N271   N     0.34730   0.22583   0.85693   0.00000  Uiso   1.00
N272   N     0.72759   0.10841   0.14116   0.00000  Uiso   1.00
N273   N     0.65660   0.49662   0.84909   0.00000  Uiso   1.00
N274   N     0.33646   0.26925   0.99759   0.00000  Uiso   1.00
N275   N     0.71675   0.15182   0.28181   0.00000  Uiso   1.00
N276   N     0.64576   0.54003   0.98975   0.00000  Uiso   1.00
C277   C     0.92191   0.77315   0.56335   0.00000  Uiso   1.00
C278   C     0.98817   0.77073   0.55095   0.00000  Uiso   1.00
C279   C     0.03783   0.74450   0.61887   0.00000  Uiso   1.00
C280   C     0.09474   0.74698   0.59374   0.00000  Uiso   1.00
C281   C     0.19656   0.73898   0.58814   0.00000  Uiso   1.00
C282   C     0.88336   0.73836   0.47261   0.00000  Uiso   1.00
C283   C     0.84491   0.68492   0.47468   0.00000  Uiso   1.00
C284   C     0.81359   0.66016   0.38360   0.00000  Uiso   1.00
C285   C     0.75266   0.60192   0.25638   0.00000  Uiso   1.00
C286   C     0.90294   0.84535   0.55312   0.00000  Uiso   1.00
C287   C     0.88093   0.88187   0.62285   0.00000  Uiso   1.00
C288   C     0.86607   0.94718   0.59954   0.00000  Uiso   1.00
C289   C     0.83554   0.05507   0.59731   0.00000  Uiso   1.00
C290   C     0.93465   0.82421   0.39794   0.00000  Uiso   1.00
C291   C     0.99508   0.79846   0.46110   0.00000  Uiso   1.00
C292   C     0.05193   0.80099   0.43587   0.00000  Uiso   1.00
C293   C     0.10168   0.77477   0.50374   0.00000  Uiso   1.00
C294   C     0.89028   0.76609   0.38277   0.00000  Uiso   1.00
C295   C     0.85901   0.74141   0.29167   0.00000  Uiso   1.00
C296   C     0.82052   0.68794   0.29359   0.00000  Uiso   1.00
C297   C     0.90986   0.87308   0.46327   0.00000  Uiso   1.00
C298   C     0.89503   0.93835   0.43984   0.00000  Uiso   1.00
C299   C     0.87300   0.97497   0.50953   0.00000  Uiso   1.00
H300   H     0.91652   0.75156   0.63329   0.00000  Uiso   1.00
H301   H     0.03246   0.72304   0.68839   0.00000  Uiso   1.00
H302   H     0.83956   0.66347   0.54421   0.00000  Uiso   1.00
H303   H     0.87558   0.86039   0.69237   0.00000  Uiso   1.00
H304   H     0.16404   0.70362   0.70984   0.00000  Uiso   1.00
H305   H     0.75729   0.57804   0.40584   0.00000  Uiso   1.00
H306   H     0.83323   0.99328   0.71825   0.00000  Uiso   1.00
H307   H     0.94004   0.84580   0.32798   0.00000  Uiso   1.00
H308   H     0.05728   0.82245   0.36633   0.00000  Uiso   1.00
H309   H     0.86437   0.76288   0.22216   0.00000  Uiso   1.00
H310   H     0.90039   0.95980   0.37031   0.00000  Uiso   1.00
H311   H     0.18419   0.78431   0.44845   0.00000  Uiso   1.00
H312   H     0.77743   0.65872   0.14444   0.00000  Uiso   1.00
H313   H     0.85338   0.07396   0.45685   0.00000  Uiso   1.00
O314   O     0.25080   0.72689   0.60986   0.00000  Uiso   1.00
O315   O     0.71715   0.56213   0.21103   0.00000  Uiso   1.00
O316   O     0.81679   0.10692   0.62090   0.00000  Uiso   1.00
N317   N     0.15270   0.72583   0.64307   0.00000  Uiso   1.00
N318   N     0.77241   0.60841   0.35884   0.00000  Uiso   1.00
N319   N     0.84340   0.99662   0.65091   0.00000  Uiso   1.00
N320   N     0.16354   0.76925   0.50241   0.00000  Uiso   1.00
N321   N     0.78325   0.65182   0.21819   0.00000  Uiso   1.00
N322   N     0.85424   0.04003   0.51025   0.00000  Uiso   1.00
C323   C     0.42191   0.27315   0.56335   0.00000  Uiso   1.00
C324   C     0.48817   0.27073   0.55095   0.00000  Uiso   1.00
C325   C     0.53783   0.24450   0.61887   0.00000  Uiso   1.00
C326   C     0.59474   0.24698   0.59374   0.00000  Uiso   1.00
C327   C     0.69656   0.23898   0.58814   0.00000  Uiso   1.00
C328   C     0.38336   0.23836   0.47261   0.00000  Uiso   1.00
C329   C     0.34491   0.18492   0.47468   0.00000  Uiso   1.00
C330   C     0.31359   0.16016   0.38360   0.00000  Uiso   1.00
C331   C     0.25266   0.10192   0.25638   0.00000  Uiso   1.00
C332   C     0.40294   0.34535   0.55312   0.00000  Uiso   1.00
C333   C     0.38093   0.38187   0.62285   0.00000  Uiso   1.00
C334   C     0.36607   0.44718   0.59954   0.00000  Uiso   1.00
C335   C     0.33554   0.55507   0.59731   0.00000  Uiso   1.00
C336   C     0.43465   0.32421   0.39794   0.00000  Uiso   1.00
C337   C     0.49508   0.29846   0.46110   0.00000  Uiso   1.00
C338   C     0.55193   0.30099   0.43587   0.00000  Uiso   1.00
C339   C     0.60168   0.27477   0.50374   0.00000  Uiso   1.00
C340   C     0.39028   0.26609   0.38277   0.00000  Uiso   1.00
C341   C     0.35901   0.24141   0.29167   0.00000  Uiso   1.00
C342   C     0.32052   0.18794   0.29359   0.00000  Uiso   1.00
C343   C     0.40986   0.37308   0.46327   0.00000  Uiso   1.00
C344   C     0.39503   0.43835   0.43984   0.00000  Uiso   1.00
C345   C     0.37300   0.47497   0.50953   0.00000  Uiso   1.00
H346   H     0.41652   0.25156   0.63329   0.00000  Uiso   1.00
H347   H     0.53246   0.22304   0.68839   0.00000  Uiso   1.00
H348   H     0.33956   0.16347   0.54421   0.00000  Uiso   1.00
H349   H     0.37558   0.36039   0.69237   0.00000  Uiso   1.00
H350   H     0.66404   0.20362   0.70984   0.00000  Uiso   1.00
H351   H     0.25729   0.07804   0.40584   0.00000  Uiso   1.00
H352   H     0.33323   0.49328   0.71825   0.00000  Uiso   1.00
H353   H     0.44004   0.34580   0.32798   0.00000  Uiso   1.00
H354   H     0.55728   0.32245   0.36633   0.00000  Uiso   1.00
H355   H     0.36437   0.26288   0.22216   0.00000  Uiso   1.00
H356   H     0.40039   0.45980   0.37031   0.00000  Uiso   1.00
H357   H     0.68419   0.28431   0.44845   0.00000  Uiso   1.00
H358   H     0.27743   0.15872   0.14444   0.00000  Uiso   1.00
H359   H     0.35338   0.57396   0.45685   0.00000  Uiso   1.00
O360   O     0.75080   0.22689   0.60986   0.00000  Uiso   1.00
O361   O     0.21715   0.06213   0.21103   0.00000  Uiso   1.00
O362   O     0.31679   0.60692   0.62090   0.00000  Uiso   1.00
N363   N     0.65270   0.22583   0.64307   0.00000  Uiso   1.00
N364   N     0.27241   0.10841   0.35884   0.00000  Uiso   1.00
N365   N     0.34340   0.49662   0.65091   0.00000  Uiso   1.00
N366   N     0.66354   0.26925   0.50241   0.00000  Uiso   1.00
N367   N     0.28325   0.15182   0.21819   0.00000  Uiso   1.00
N368   N     0.35424   0.54003   0.51025   0.00000  Uiso   1.00
