data_job_04675
_audit_creation_date              2018-12-19
_audit_creation_method            'Materials Studio'
_symmetry_space_group_name_H-M    'P1'
_symmetry_Int_Tables_number       1
_symmetry_cell_setting            triclinic
loop_
_symmetry_equiv_pos_as_xyz
  x,y,z
_cell_length_a                    28.1504
_cell_length_b                    12.3753
_cell_length_c                    23.9508
_cell_angle_alpha                 90.0000
_cell_angle_beta                  142.1005
_cell_angle_gamma                 90.0000
loop_
_atom_site_label
_atom_site_type_symbol
_atom_site_fract_x
_atom_site_fract_y
_atom_site_fract_z
_atom_site_U_iso_or_equiv
_atom_site_adp_type
_atom_site_occupancy
C1     C     0.94784   0.13221   0.08609   0.00000  Uiso   1.00
C2     C     0.94645   0.10984   0.14741   0.00000  Uiso   1.00
C3     C     0.00900   0.11889   0.24142   0.00000  Uiso   1.00
C4     C     0.99589   0.09481   0.28508   0.00000  Uiso   1.00
C5     C     0.00486   0.06489   0.38770   0.00000  Uiso   1.00
C6     C     0.91913   0.02912   0.03141   0.00000  Uiso   1.00
C7     C     0.95871   0.97031   0.02789   0.00000  Uiso   1.00
C8     C     0.92259   0.87829   0.97390   0.00000  Uiso   1.00
C9     C     0.88912   0.72309   0.89638   0.00000  Uiso   1.00
C10    C     0.88576   0.21733   0.01802   0.00000  Uiso   1.00
C11    C     0.89727   0.31677   0.00322   0.00000  Uiso   1.00
C12    C     0.83305   0.38320   0.93794   0.00000  Uiso   1.00
C13    C     0.74776   0.52023   0.83963   0.00000  Uiso   1.00
C14    C     0.81333   0.07337   0.99645   0.00000  Uiso   1.00
C15    C     0.87339   0.07787   0.09872   0.00000  Uiso   1.00
C16    C     0.86019   0.05378   0.14225   0.00000  Uiso   1.00
C17    C     0.92270   0.06280   0.23631   0.00000  Uiso   1.00
C18    C     0.84608   0.99715   0.98273   0.00000  Uiso   1.00
C19    C     0.80989   0.90521   0.92872   0.00000  Uiso   1.00
C20    C     0.84940   0.84627   0.92512   0.00000  Uiso   1.00
C21    C     0.81270   0.18537   0.96933   0.00000  Uiso   1.00
C22    C     0.74845   0.25166   0.90406   0.00000  Uiso   1.00
C23    C     0.75986   0.35118   0.88916   0.00000  Uiso   1.00
H24    H     0.00472   0.15709   0.12399   0.00000  Uiso   1.00
H25    H     0.06553   0.14362   0.27907   0.00000  Uiso   1.00
H26    H     0.01524   0.99507   0.06556   0.00000  Uiso   1.00
H27    H     0.95381   0.34147   0.04091   0.00000  Uiso   1.00
H28    H     0.10075   0.11455   0.42954   0.00000  Uiso   1.00
H29    H     0.99469   0.80135   0.97933   0.00000  Uiso   1.00
H30    H     0.86516   0.53181   0.92733   0.00000  Uiso   1.00
H31    H     0.75645   0.04848   0.95855   0.00000  Uiso   1.00
H32    H     0.80364   0.02905   0.10456   0.00000  Uiso   1.00
H33    H     0.75335   0.88050   0.89105   0.00000  Uiso   1.00
H34    H     0.69192   0.22690   0.86639   0.00000  Uiso   1.00
H35    H     0.88819   0.02156   0.28790   0.00000  Uiso   1.00
H36    H     0.78213   0.70836   0.83768   0.00000  Uiso   1.00
H37    H     0.65259   0.43882   0.78569   0.00000  Uiso   1.00
O38    O     0.03000   0.05720   0.45776   0.00000  Uiso   1.00
O39    O     0.89085   0.64631   0.86708   0.00000  Uiso   1.00
O40    O     0.72091   0.60465   0.79887   0.00000  Uiso   1.00
N41    N     0.04424   0.09535   0.37617   0.00000  Uiso   1.00
N42    N     0.94509   0.80252   0.95526   0.00000  Uiso   1.00
N43    N     0.82398   0.48542   0.90663   0.00000  Uiso   1.00
N44    N     0.92986   0.04531   0.29995   0.00000  Uiso   1.00
N45    N     0.83071   0.75248   0.87904   0.00000  Uiso   1.00
N46    N     0.70960   0.43539   0.83041   0.00000  Uiso   1.00
C47    C     0.44242   0.44735   0.07553   0.00000  Uiso   1.00
C48    C     0.44366   0.42826   0.13958   0.00000  Uiso   1.00
C49    C     0.50765   0.43939   0.23342   0.00000  Uiso   1.00
C50    C     0.49690   0.41820   0.27985   0.00000  Uiso   1.00
C51    C     0.50982   0.39325   0.38628   0.00000  Uiso   1.00
C52    C     0.41279   0.34274   0.02208   0.00000  Uiso   1.00
C53    C     0.45082   0.28197   0.01712   0.00000  Uiso   1.00
C54    C     0.41408   0.18881   0.96462   0.00000  Uiso   1.00
C55    C     0.37904   0.03113   0.88857   0.00000  Uiso   1.00
C56    C     0.37975   0.53170   0.00708   0.00000  Uiso   1.00
C57    C     0.38999   0.62980   0.98949   0.00000  Uiso   1.00
C58    C     0.32542   0.69572   0.92435   0.00000  Uiso   1.00
C59    C     0.23909   0.83143   0.82501   0.00000  Uiso   1.00
C60    C     0.30955   0.38995   0.99110   0.00000  Uiso   1.00
C61    C     0.37149   0.39708   0.09372   0.00000  Uiso   1.00
C62    C     0.36064   0.37588   0.14001   0.00000  Uiso   1.00
C63    C     0.42460   0.38697   0.23391   0.00000  Uiso   1.00
C64    C     0.34063   0.31156   0.97622   0.00000  Uiso   1.00
C65    C     0.30381   0.21847   0.92371   0.00000  Uiso   1.00
C66    C     0.34177   0.15757   0.91868   0.00000  Uiso   1.00
C67    C     0.30758   0.50053   0.96122   0.00000  Uiso   1.00
C68    C     0.24298   0.56630   0.89609   0.00000  Uiso   1.00
C69    C     0.25312   0.66448   0.87840   0.00000  Uiso   1.00
H70    H     0.49861   0.47162   0.11123   0.00000  Uiso   1.00
H71    H     0.56349   0.46351   0.26889   0.00000  Uiso   1.00
H72    H     0.50667   0.30613   0.05261   0.00000  Uiso   1.00
H73    H     0.44585   0.65390   0.02499   0.00000  Uiso   1.00
H74    H     0.60361   0.44072   0.42346   0.00000  Uiso   1.00
H75    H     0.48377   0.10890   0.96740   0.00000  Uiso   1.00
H76    H     0.35553   0.84226   0.90915   0.00000  Uiso   1.00
H77    H     0.25336   0.36568   0.95540   0.00000  Uiso   1.00
H78    H     0.30478   0.35175   0.10451   0.00000  Uiso   1.00
H79    H     0.24796   0.19437   0.88823   0.00000  Uiso   1.00
H80    H     0.18714   0.54214   0.86061   0.00000  Uiso   1.00
H81    H     0.39363   0.35001   0.29004   0.00000  Uiso   1.00
H82    H     0.27380   0.01819   0.83398   0.00000  Uiso   1.00
H83    H     0.14555   0.75155   0.77574   0.00000  Uiso   1.00
O84    O     0.53688   0.38808   0.45765   0.00000  Uiso   1.00
O85    O     0.37966   0.95276   0.85931   0.00000  Uiso   1.00
O86    O     0.21140   0.91490   0.78290   0.00000  Uiso   1.00
N87    N     0.54713   0.42131   0.37160   0.00000  Uiso   1.00
N88    N     0.43510   0.11106   0.94522   0.00000  Uiso   1.00
N89    N     0.31519   0.79668   0.89075   0.00000  Uiso   1.00
N90    N     0.43414   0.37250   0.29981   0.00000  Uiso   1.00
N91    N     0.32211   0.06225   0.87343   0.00000  Uiso   1.00
N92    N     0.20221   0.74787   0.81896   0.00000  Uiso   1.00
C93    C     0.05216   0.63221   0.41391   0.00000  Uiso   1.00
C94    C     0.05355   0.60984   0.35259   0.00000  Uiso   1.00
C95    C     0.99100   0.61889   0.25858   0.00000  Uiso   1.00
C96    C     0.00411   0.59481   0.21492   0.00000  Uiso   1.00
C97    C     0.99514   0.56489   0.11230   0.00000  Uiso   1.00
C98    C     0.08087   0.52912   0.46859   0.00000  Uiso   1.00
C99    C     0.04129   0.47031   0.47211   0.00000  Uiso   1.00
C100   C     0.07741   0.37829   0.52610   0.00000  Uiso   1.00
C101   C     0.11088   0.22309   0.60362   0.00000  Uiso   1.00
C102   C     0.11424   0.71733   0.48198   0.00000  Uiso   1.00
C103   C     0.10273   0.81677   0.49678   0.00000  Uiso   1.00
C104   C     0.16695   0.88320   0.56206   0.00000  Uiso   1.00
C105   C     0.25224   0.02023   0.66037   0.00000  Uiso   1.00
C106   C     0.18667   0.57337   0.50355   0.00000  Uiso   1.00
C107   C     0.12661   0.57787   0.40128   0.00000  Uiso   1.00
C108   C     0.13981   0.55378   0.35775   0.00000  Uiso   1.00
C109   C     0.07730   0.56280   0.26369   0.00000  Uiso   1.00
C110   C     0.15392   0.49715   0.51727   0.00000  Uiso   1.00
C111   C     0.19011   0.40521   0.57128   0.00000  Uiso   1.00
C112   C     0.15060   0.34627   0.57488   0.00000  Uiso   1.00
C113   C     0.18730   0.68537   0.53067   0.00000  Uiso   1.00
C114   C     0.25155   0.75166   0.59594   0.00000  Uiso   1.00
C115   C     0.24014   0.85118   0.61084   0.00000  Uiso   1.00
H116   H     0.99528   0.65709   0.37601   0.00000  Uiso   1.00
H117   H     0.93447   0.64362   0.22093   0.00000  Uiso   1.00
H118   H     0.98476   0.49507   0.43444   0.00000  Uiso   1.00
H119   H     0.04619   0.84147   0.45909   0.00000  Uiso   1.00
H120   H     0.89925   0.61455   0.07046   0.00000  Uiso   1.00
H121   H     0.00531   0.30135   0.52067   0.00000  Uiso   1.00
H122   H     0.13484   0.03181   0.57267   0.00000  Uiso   1.00
H123   H     0.24355   0.54848   0.54145   0.00000  Uiso   1.00
H124   H     0.19636   0.52905   0.39544   0.00000  Uiso   1.00
H125   H     0.24665   0.38050   0.60895   0.00000  Uiso   1.00
H126   H     0.30808   0.72690   0.63361   0.00000  Uiso   1.00
H127   H     0.11181   0.52156   0.21210   0.00000  Uiso   1.00
H128   H     0.21787   0.20836   0.66232   0.00000  Uiso   1.00
H129   H     0.34741   0.93882   0.71431   0.00000  Uiso   1.00
O130   O     0.97000   0.55720   0.04224   0.00000  Uiso   1.00
O131   O     0.10915   0.14631   0.63292   0.00000  Uiso   1.00
O132   O     0.27909   0.10465   0.70113   0.00000  Uiso   1.00
N133   N     0.95576   0.59535   0.12383   0.00000  Uiso   1.00
N134   N     0.05491   0.30252   0.54474   0.00000  Uiso   1.00
N135   N     0.17602   0.98542   0.59337   0.00000  Uiso   1.00
N136   N     0.07014   0.54531   0.20005   0.00000  Uiso   1.00
N137   N     0.16929   0.25248   0.62096   0.00000  Uiso   1.00
N138   N     0.29040   0.93539   0.66959   0.00000  Uiso   1.00
C139   C     0.55758   0.94735   0.42447   0.00000  Uiso   1.00
C140   C     0.55634   0.92826   0.36042   0.00000  Uiso   1.00
C141   C     0.49235   0.93939   0.26658   0.00000  Uiso   1.00
C142   C     0.50310   0.91820   0.22015   0.00000  Uiso   1.00
C143   C     0.49018   0.89325   0.11372   0.00000  Uiso   1.00
C144   C     0.58721   0.84274   0.47792   0.00000  Uiso   1.00
C145   C     0.54918   0.78197   0.48288   0.00000  Uiso   1.00
C146   C     0.58592   0.68881   0.53538   0.00000  Uiso   1.00
C147   C     0.62096   0.53113   0.61143   0.00000  Uiso   1.00
C148   C     0.62025   0.03170   0.49292   0.00000  Uiso   1.00
C149   C     0.61001   0.12980   0.51051   0.00000  Uiso   1.00
C150   C     0.67458   0.19572   0.57565   0.00000  Uiso   1.00
C151   C     0.76091   0.33143   0.67499   0.00000  Uiso   1.00
C152   C     0.69045   0.88995   0.50890   0.00000  Uiso   1.00
C153   C     0.62851   0.89708   0.40628   0.00000  Uiso   1.00
C154   C     0.63936   0.87588   0.35999   0.00000  Uiso   1.00
C155   C     0.57540   0.88697   0.26609   0.00000  Uiso   1.00
C156   C     0.65937   0.81156   0.52378   0.00000  Uiso   1.00
C157   C     0.69619   0.71847   0.57629   0.00000  Uiso   1.00
C158   C     0.65823   0.65757   0.58132   0.00000  Uiso   1.00
C159   C     0.69242   0.00053   0.53878   0.00000  Uiso   1.00
C160   C     0.75702   0.06630   0.60391   0.00000  Uiso   1.00
C161   C     0.74688   0.16448   0.62160   0.00000  Uiso   1.00
H162   H     0.50139   0.97162   0.38877   0.00000  Uiso   1.00
H163   H     0.43651   0.96351   0.23111   0.00000  Uiso   1.00
H164   H     0.49333   0.80613   0.44739   0.00000  Uiso   1.00
H165   H     0.55415   0.15390   0.47501   0.00000  Uiso   1.00
H166   H     0.39639   0.94072   0.07654   0.00000  Uiso   1.00
H167   H     0.51623   0.60890   0.53260   0.00000  Uiso   1.00
H168   H     0.64447   0.34226   0.59085   0.00000  Uiso   1.00
H169   H     0.74664   0.86568   0.54460   0.00000  Uiso   1.00
H170   H     0.69522   0.85175   0.39549   0.00000  Uiso   1.00
H171   H     0.75204   0.69437   0.61177   0.00000  Uiso   1.00
H172   H     0.81286   0.04214   0.63939   0.00000  Uiso   1.00
H173   H     0.60637   0.85001   0.20996   0.00000  Uiso   1.00
H174   H     0.72620   0.51819   0.66602   0.00000  Uiso   1.00
H175   H     0.85445   0.25155   0.72426   0.00000  Uiso   1.00
O176   O     0.46312   0.88808   0.04235   0.00000  Uiso   1.00
O177   O     0.62034   0.45276   0.64069   0.00000  Uiso   1.00
O178   O     0.78860   0.41490   0.71710   0.00000  Uiso   1.00
N179   N     0.45287   0.92131   0.12840   0.00000  Uiso   1.00
N180   N     0.56490   0.61106   0.55478   0.00000  Uiso   1.00
N181   N     0.68481   0.29668   0.60925   0.00000  Uiso   1.00
N182   N     0.56586   0.87250   0.20019   0.00000  Uiso   1.00
N183   N     0.67789   0.56225   0.62657   0.00000  Uiso   1.00
N184   N     0.79779   0.24787   0.68104   0.00000  Uiso   1.00
C185   C     0.05216   0.86779   0.91391   0.00000  Uiso   1.00
C186   C     0.05355   0.89016   0.85259   0.00000  Uiso   1.00
C187   C     0.99100   0.88111   0.75858   0.00000  Uiso   1.00
C188   C     0.00411   0.90519   0.71492   0.00000  Uiso   1.00
C189   C     0.99514   0.93511   0.61230   0.00000  Uiso   1.00
C190   C     0.08087   0.97088   0.96859   0.00000  Uiso   1.00
C191   C     0.04129   0.02969   0.97211   0.00000  Uiso   1.00
C192   C     0.07741   0.12171   0.02610   0.00000  Uiso   1.00
C193   C     0.11088   0.27691   0.10362   0.00000  Uiso   1.00
C194   C     0.11424   0.78267   0.98198   0.00000  Uiso   1.00
C195   C     0.10273   0.68323   0.99678   0.00000  Uiso   1.00
C196   C     0.16695   0.61680   0.06206   0.00000  Uiso   1.00
C197   C     0.25224   0.47977   0.16037   0.00000  Uiso   1.00
C198   C     0.18667   0.92663   0.00355   0.00000  Uiso   1.00
C199   C     0.12661   0.92213   0.90128   0.00000  Uiso   1.00
C200   C     0.13981   0.94622   0.85775   0.00000  Uiso   1.00
C201   C     0.07730   0.93720   0.76369   0.00000  Uiso   1.00
C202   C     0.15392   0.00285   0.01727   0.00000  Uiso   1.00
C203   C     0.19011   0.09479   0.07128   0.00000  Uiso   1.00
C204   C     0.15060   0.15373   0.07488   0.00000  Uiso   1.00
C205   C     0.18730   0.81463   0.03067   0.00000  Uiso   1.00
C206   C     0.25155   0.74834   0.09594   0.00000  Uiso   1.00
C207   C     0.24014   0.64882   0.11084   0.00000  Uiso   1.00
H208   H     0.99528   0.84291   0.87601   0.00000  Uiso   1.00
H209   H     0.93447   0.85638   0.72093   0.00000  Uiso   1.00
H210   H     0.98476   0.00493   0.93444   0.00000  Uiso   1.00
H211   H     0.04619   0.65853   0.95909   0.00000  Uiso   1.00
H212   H     0.89925   0.88545   0.57046   0.00000  Uiso   1.00
H213   H     0.00531   0.19865   0.02067   0.00000  Uiso   1.00
H214   H     0.13484   0.46819   0.07267   0.00000  Uiso   1.00
H215   H     0.24355   0.95152   0.04145   0.00000  Uiso   1.00
H216   H     0.19636   0.97095   0.89544   0.00000  Uiso   1.00
H217   H     0.24665   0.11950   0.10895   0.00000  Uiso   1.00
H218   H     0.30808   0.77310   0.13361   0.00000  Uiso   1.00
H219   H     0.11181   0.97844   0.71210   0.00000  Uiso   1.00
H220   H     0.21787   0.29164   0.16232   0.00000  Uiso   1.00
H221   H     0.34741   0.56118   0.21431   0.00000  Uiso   1.00
O222   O     0.97000   0.94280   0.54224   0.00000  Uiso   1.00
O223   O     0.10915   0.35369   0.13292   0.00000  Uiso   1.00
O224   O     0.27909   0.39535   0.20113   0.00000  Uiso   1.00
N225   N     0.95576   0.90465   0.62383   0.00000  Uiso   1.00
N226   N     0.05491   0.19748   0.04474   0.00000  Uiso   1.00
N227   N     0.17602   0.51458   0.09337   0.00000  Uiso   1.00
N228   N     0.07014   0.95469   0.70005   0.00000  Uiso   1.00
N229   N     0.16929   0.24752   0.12096   0.00000  Uiso   1.00
N230   N     0.29040   0.56461   0.16959   0.00000  Uiso   1.00
C231   C     0.55758   0.55265   0.92447   0.00000  Uiso   1.00
C232   C     0.55634   0.57174   0.86042   0.00000  Uiso   1.00
C233   C     0.49235   0.56061   0.76658   0.00000  Uiso   1.00
C234   C     0.50310   0.58180   0.72015   0.00000  Uiso   1.00
C235   C     0.49018   0.60675   0.61372   0.00000  Uiso   1.00
C236   C     0.58721   0.65726   0.97792   0.00000  Uiso   1.00
C237   C     0.54918   0.71803   0.98288   0.00000  Uiso   1.00
C238   C     0.58592   0.81119   0.03538   0.00000  Uiso   1.00
C239   C     0.62096   0.96887   0.11143   0.00000  Uiso   1.00
C240   C     0.62025   0.46830   0.99292   0.00000  Uiso   1.00
C241   C     0.61001   0.37020   0.01051   0.00000  Uiso   1.00
C242   C     0.67458   0.30428   0.07565   0.00000  Uiso   1.00
C243   C     0.76091   0.16857   0.17499   0.00000  Uiso   1.00
C244   C     0.69045   0.61005   0.00890   0.00000  Uiso   1.00
C245   C     0.62851   0.60292   0.90628   0.00000  Uiso   1.00
C246   C     0.63936   0.62412   0.85999   0.00000  Uiso   1.00
C247   C     0.57540   0.61303   0.76609   0.00000  Uiso   1.00
C248   C     0.65937   0.68844   0.02378   0.00000  Uiso   1.00
C249   C     0.69619   0.78153   0.07629   0.00000  Uiso   1.00
C250   C     0.65823   0.84243   0.08132   0.00000  Uiso   1.00
C251   C     0.69242   0.49947   0.03878   0.00000  Uiso   1.00
C252   C     0.75702   0.43370   0.10391   0.00000  Uiso   1.00
C253   C     0.74688   0.33552   0.12160   0.00000  Uiso   1.00
H254   H     0.50139   0.52838   0.88877   0.00000  Uiso   1.00
H255   H     0.43651   0.53649   0.73111   0.00000  Uiso   1.00
H256   H     0.49333   0.69387   0.94739   0.00000  Uiso   1.00
H257   H     0.55415   0.34610   0.97501   0.00000  Uiso   1.00
H258   H     0.39639   0.55928   0.57654   0.00000  Uiso   1.00
H259   H     0.51623   0.89110   0.03260   0.00000  Uiso   1.00
H260   H     0.64447   0.15774   0.09085   0.00000  Uiso   1.00
H261   H     0.74664   0.63432   0.04460   0.00000  Uiso   1.00
H262   H     0.69522   0.64825   0.89549   0.00000  Uiso   1.00
H263   H     0.75204   0.80563   0.11177   0.00000  Uiso   1.00
H264   H     0.81286   0.45786   0.13939   0.00000  Uiso   1.00
H265   H     0.60637   0.64999   0.70996   0.00000  Uiso   1.00
H266   H     0.72620   0.98181   0.16602   0.00000  Uiso   1.00
H267   H     0.85445   0.24845   0.22426   0.00000  Uiso   1.00
O268   O     0.46312   0.61192   0.54235   0.00000  Uiso   1.00
O269   O     0.62034   0.04724   0.14069   0.00000  Uiso   1.00
O270   O     0.78860   0.08510   0.21710   0.00000  Uiso   1.00
N271   N     0.45287   0.57869   0.62840   0.00000  Uiso   1.00
N272   N     0.56490   0.88894   0.05478   0.00000  Uiso   1.00
N273   N     0.68481   0.20332   0.10925   0.00000  Uiso   1.00
N274   N     0.56586   0.62750   0.70019   0.00000  Uiso   1.00
N275   N     0.67789   0.93775   0.12657   0.00000  Uiso   1.00
N276   N     0.79779   0.25213   0.18104   0.00000  Uiso   1.00
C277   C     0.94784   0.36779   0.58609   0.00000  Uiso   1.00
C278   C     0.94645   0.39016   0.64741   0.00000  Uiso   1.00
C279   C     0.00900   0.38111   0.74142   0.00000  Uiso   1.00
C280   C     0.99589   0.40519   0.78508   0.00000  Uiso   1.00
C281   C     0.00486   0.43511   0.88770   0.00000  Uiso   1.00
C282   C     0.91913   0.47088   0.53141   0.00000  Uiso   1.00
C283   C     0.95871   0.52969   0.52789   0.00000  Uiso   1.00
C284   C     0.92259   0.62171   0.47390   0.00000  Uiso   1.00
C285   C     0.88912   0.77691   0.39638   0.00000  Uiso   1.00
C286   C     0.88576   0.28267   0.51802   0.00000  Uiso   1.00
C287   C     0.89727   0.18323   0.50322   0.00000  Uiso   1.00
C288   C     0.83305   0.11680   0.43794   0.00000  Uiso   1.00
C289   C     0.74776   0.97977   0.33963   0.00000  Uiso   1.00
C290   C     0.81333   0.42663   0.49645   0.00000  Uiso   1.00
C291   C     0.87339   0.42213   0.59872   0.00000  Uiso   1.00
C292   C     0.86019   0.44622   0.64225   0.00000  Uiso   1.00
C293   C     0.92270   0.43720   0.73631   0.00000  Uiso   1.00
C294   C     0.84608   0.50285   0.48273   0.00000  Uiso   1.00
C295   C     0.80989   0.59479   0.42872   0.00000  Uiso   1.00
C296   C     0.84940   0.65373   0.42512   0.00000  Uiso   1.00
C297   C     0.81270   0.31463   0.46933   0.00000  Uiso   1.00
C298   C     0.74845   0.24834   0.40406   0.00000  Uiso   1.00
C299   C     0.75986   0.14882   0.38916   0.00000  Uiso   1.00
H300   H     0.00472   0.34291   0.62399   0.00000  Uiso   1.00
H301   H     0.06553   0.35638   0.77907   0.00000  Uiso   1.00
H302   H     0.01524   0.50493   0.56556   0.00000  Uiso   1.00
H303   H     0.95381   0.15853   0.54091   0.00000  Uiso   1.00
H304   H     0.10075   0.38545   0.92954   0.00000  Uiso   1.00
H305   H     0.99469   0.69865   0.47933   0.00000  Uiso   1.00
H306   H     0.86516   0.96819   0.42733   0.00000  Uiso   1.00
H307   H     0.75645   0.45152   0.45855   0.00000  Uiso   1.00
H308   H     0.80364   0.47095   0.60456   0.00000  Uiso   1.00
H309   H     0.75335   0.61950   0.39105   0.00000  Uiso   1.00
H310   H     0.69192   0.27310   0.36639   0.00000  Uiso   1.00
H311   H     0.88819   0.47844   0.78790   0.00000  Uiso   1.00
H312   H     0.78213   0.79164   0.33768   0.00000  Uiso   1.00
H313   H     0.65259   0.06118   0.28569   0.00000  Uiso   1.00
O314   O     0.03000   0.44280   0.95776   0.00000  Uiso   1.00
O315   O     0.89085   0.85369   0.36708   0.00000  Uiso   1.00
O316   O     0.72091   0.89535   0.29887   0.00000  Uiso   1.00
N317   N     0.04424   0.40465   0.87617   0.00000  Uiso   1.00
N318   N     0.94509   0.69748   0.45526   0.00000  Uiso   1.00
N319   N     0.82398   0.01458   0.40663   0.00000  Uiso   1.00
N320   N     0.92986   0.45469   0.79995   0.00000  Uiso   1.00
N321   N     0.83071   0.74752   0.37904   0.00000  Uiso   1.00
N322   N     0.70960   0.06461   0.33041   0.00000  Uiso   1.00
C323   C     0.44242   0.05265   0.57553   0.00000  Uiso   1.00
C324   C     0.44366   0.07174   0.63958   0.00000  Uiso   1.00
C325   C     0.50765   0.06061   0.73342   0.00000  Uiso   1.00
C326   C     0.49690   0.08180   0.77985   0.00000  Uiso   1.00
C327   C     0.50982   0.10675   0.88628   0.00000  Uiso   1.00
C328   C     0.41279   0.15726   0.52208   0.00000  Uiso   1.00
C329   C     0.45082   0.21803   0.51712   0.00000  Uiso   1.00
C330   C     0.41408   0.31119   0.46462   0.00000  Uiso   1.00
C331   C     0.37904   0.46887   0.38857   0.00000  Uiso   1.00
C332   C     0.37975   0.96830   0.50708   0.00000  Uiso   1.00
C333   C     0.38999   0.87020   0.48949   0.00000  Uiso   1.00
C334   C     0.32542   0.80428   0.42435   0.00000  Uiso   1.00
C335   C     0.23909   0.66857   0.32501   0.00000  Uiso   1.00
C336   C     0.30955   0.11005   0.49110   0.00000  Uiso   1.00
C337   C     0.37149   0.10292   0.59372   0.00000  Uiso   1.00
C338   C     0.36064   0.12412   0.64001   0.00000  Uiso   1.00
C339   C     0.42460   0.11303   0.73391   0.00000  Uiso   1.00
C340   C     0.34063   0.18844   0.47622   0.00000  Uiso   1.00
C341   C     0.30381   0.28153   0.42371   0.00000  Uiso   1.00
C342   C     0.34177   0.34243   0.41868   0.00000  Uiso   1.00
C343   C     0.30758   0.99947   0.46122   0.00000  Uiso   1.00
C344   C     0.24298   0.93370   0.39609   0.00000  Uiso   1.00
C345   C     0.25312   0.83552   0.37840   0.00000  Uiso   1.00
H346   H     0.49861   0.02838   0.61123   0.00000  Uiso   1.00
H347   H     0.56349   0.03649   0.76889   0.00000  Uiso   1.00
H348   H     0.50667   0.19387   0.55261   0.00000  Uiso   1.00
H349   H     0.44585   0.84610   0.52499   0.00000  Uiso   1.00
H350   H     0.60361   0.05928   0.92346   0.00000  Uiso   1.00
H351   H     0.48377   0.39110   0.46740   0.00000  Uiso   1.00
H352   H     0.35553   0.65774   0.40915   0.00000  Uiso   1.00
H353   H     0.25336   0.13432   0.45540   0.00000  Uiso   1.00
H354   H     0.30478   0.14825   0.60451   0.00000  Uiso   1.00
H355   H     0.24796   0.30563   0.38823   0.00000  Uiso   1.00
H356   H     0.18714   0.95786   0.36061   0.00000  Uiso   1.00
H357   H     0.39363   0.14999   0.79004   0.00000  Uiso   1.00
H358   H     0.27380   0.48181   0.33398   0.00000  Uiso   1.00
H359   H     0.14555   0.74845   0.27574   0.00000  Uiso   1.00
O360   O     0.53688   0.11192   0.95765   0.00000  Uiso   1.00
O361   O     0.37966   0.54724   0.35931   0.00000  Uiso   1.00
O362   O     0.21140   0.58510   0.28290   0.00000  Uiso   1.00
N363   N     0.54713   0.07869   0.87160   0.00000  Uiso   1.00
N364   N     0.43510   0.38894   0.44522   0.00000  Uiso   1.00
N365   N     0.31519   0.70332   0.39075   0.00000  Uiso   1.00
N366   N     0.43414   0.12750   0.79981   0.00000  Uiso   1.00
N367   N     0.32211   0.43775   0.37343   0.00000  Uiso   1.00
N368   N     0.20221   0.75213   0.31896   0.00000  Uiso   1.00
