data_job_04698
_audit_creation_date              2018-12-19
_audit_creation_method            'Materials Studio'
_symmetry_space_group_name_H-M    'P1'
_symmetry_Int_Tables_number       1
_symmetry_cell_setting            triclinic
loop_
_symmetry_equiv_pos_as_xyz
  x,y,z
_cell_length_a                    10.3400
_cell_length_b                    15.4431
_cell_length_c                    43.3046
_cell_angle_alpha                 90.0000
_cell_angle_beta                  105.7738
_cell_angle_gamma                 90.0000
loop_
_atom_site_label
_atom_site_type_symbol
_atom_site_fract_x
_atom_site_fract_y
_atom_site_fract_z
_atom_site_U_iso_or_equiv
_atom_site_adp_type
_atom_site_occupancy
C1     C     0.52944   0.69292   0.17851   0.00000  Uiso   1.00
C2     C     0.65960   0.74143   0.18015   0.00000  Uiso   1.00
C3     C     0.69573   0.82134   0.19458   0.00000  Uiso   1.00
C4     C     0.81903   0.85486   0.19351   0.00000  Uiso   1.00
C5     C     0.00832   0.93703   0.19833   0.00000  Uiso   1.00
C6     C     0.46354   0.67636   0.14299   0.00000  Uiso   1.00
C7     C     0.33482   0.70155   0.12618   0.00000  Uiso   1.00
C8     C     0.29308   0.68028   0.09383   0.00000  Uiso   1.00
C9     C     0.17795   0.66137   0.04096   0.00000  Uiso   1.00
C10    C     0.57123   0.60438   0.19350   0.00000  Uiso   1.00
C11    C     0.53302   0.56903   0.21914   0.00000  Uiso   1.00
C12    C     0.58192   0.48714   0.22931   0.00000  Uiso   1.00
C13    C     0.63398   0.35647   0.25486   0.00000  Uiso   1.00
C14    C     0.68419   0.61034   0.15096   0.00000  Uiso   1.00
C15    C     0.74365   0.69658   0.16519   0.00000  Uiso   1.00
C16    C     0.86694   0.72998   0.16410   0.00000  Uiso   1.00
C17    C     0.90324   0.80992   0.17852   0.00000  Uiso   1.00
C18    C     0.54759   0.63151   0.12803   0.00000  Uiso   1.00
C19    C     0.50603   0.61018   0.09570   0.00000  Uiso   1.00
C20    C     0.37729   0.63534   0.07884   0.00000  Uiso   1.00
C21    C     0.65528   0.55952   0.17854   0.00000  Uiso   1.00
C22    C     0.70424   0.47767   0.18867   0.00000  Uiso   1.00
C23    C     0.66612   0.44220   0.21432   0.00000  Uiso   1.00
H24    H     0.46400   0.72784   0.19015   0.00000  Uiso   1.00
H25    H     0.63064   0.85604   0.20615   0.00000  Uiso   1.00
H26    H     0.26980   0.73626   0.13776   0.00000  Uiso   1.00
H27    H     0.46798   0.60376   0.23072   0.00000  Uiso   1.00
H28    H     0.85245   0.97840   0.21728   0.00000  Uiso   1.00
H29    H     0.09156   0.72581   0.07308   0.00000  Uiso   1.00
H30    H     0.50945   0.44641   0.26909   0.00000  Uiso   1.00
H31    H     0.74963   0.57541   0.13931   0.00000  Uiso   1.00
H32    H     0.93196   0.69525   0.15252   0.00000  Uiso   1.00
H33    H     0.57110   0.57547   0.08413   0.00000  Uiso   1.00
H34    H     0.76928   0.44297   0.17708   0.00000  Uiso   1.00
H35    H     0.09700   0.84791   0.17375   0.00000  Uiso   1.00
H36    H     0.33611   0.59531   0.02955   0.00000  Uiso   1.00
H37    H     0.75401   0.31591   0.22556   0.00000  Uiso   1.00
O38    O     0.08949   0.99475   0.20511   0.00000  Uiso   1.00
O39    O     0.09122   0.66334   0.01593   0.00000  Uiso   1.00
O40    O     0.63950   0.29679   0.27309   0.00000  Uiso   1.00
N41    N     0.88500   0.93124   0.20523   0.00000  Uiso   1.00
N42    N     0.17361   0.69509   0.07041   0.00000  Uiso   1.00
N43    N     0.56428   0.43387   0.25366   0.00000  Uiso   1.00
N44    N     0.01659   0.86102   0.18181   0.00000  Uiso   1.00
N45    N     0.30521   0.62487   0.04698   0.00000  Uiso   1.00
N46    N     0.69587   0.36365   0.23023   0.00000  Uiso   1.00
C47    C     0.01748   0.14526   0.67298   0.00000  Uiso   1.00
C48    C     0.14430   0.19872   0.67597   0.00000  Uiso   1.00
C49    C     0.16783   0.28129   0.68893   0.00000  Uiso   1.00
C50    C     0.29016   0.31925   0.68949   0.00000  Uiso   1.00
C51    C     0.47255   0.40884   0.69595   0.00000  Uiso   1.00
C52    C     0.96444   0.12246   0.63751   0.00000  Uiso   1.00
C53    C     0.83674   0.14090   0.61814   0.00000  Uiso   1.00
C54    C     0.80767   0.11465   0.58632   0.00000  Uiso   1.00
C55    C     0.71081   0.08578   0.53308   0.00000  Uiso   1.00
C56    C     0.06390   0.06018   0.69033   0.00000  Uiso   1.00
C57    C     0.01981   0.02624   0.71536   0.00000  Uiso   1.00
C58    C     0.07445   0.94755   0.72800   0.00000  Uiso   1.00
C59    C     0.13201   0.82199   0.75677   0.00000  Uiso   1.00
C60    C     0.19290   0.06584   0.65092   0.00000  Uiso   1.00
C61    C     0.23957   0.15558   0.66399   0.00000  Uiso   1.00
C62    C     0.36191   0.19343   0.66453   0.00000  Uiso   1.00
C63    C     0.38561   0.27604   0.67749   0.00000  Uiso   1.00
C64    C     0.05972   0.07932   0.62553   0.00000  Uiso   1.00
C65    C     0.03082   0.05304   0.59374   0.00000  Uiso   1.00
C66    C     0.90312   0.07144   0.57432   0.00000  Uiso   1.00
C67    C     0.15918   0.01704   0.67835   0.00000  Uiso   1.00
C68    C     0.21390   0.93838   0.69096   0.00000  Uiso   1.00
C69    C     0.16990   0.90434   0.71601   0.00000  Uiso   1.00
H70    H     0.94329   0.17884   0.68230   0.00000  Uiso   1.00
H71    H     0.09406   0.31465   0.69820   0.00000  Uiso   1.00
H72    H     0.76303   0.17427   0.62741   0.00000  Uiso   1.00
H73    H     0.94607   0.05964   0.72462   0.00000  Uiso   1.00
H74    H     0.30321   0.44622   0.71053   0.00000  Uiso   1.00
H75    H     0.60520   0.15019   0.56128   0.00000  Uiso   1.00
H76    H     0.99117   0.90847   0.76626   0.00000  Uiso   1.00
H77    H     0.26708   0.03226   0.64160   0.00000  Uiso   1.00
H78    H     0.43562   0.16003   0.65526   0.00000  Uiso   1.00
H79    H     0.10458   0.01965   0.58448   0.00000  Uiso   1.00
H80    H     0.28763   0.90502   0.68169   0.00000  Uiso   1.00
H81    H     0.58043   0.32072   0.67568   0.00000  Uiso   1.00
H82    H     0.88241   0.02469   0.52643   0.00000  Uiso   1.00
H83    H     0.26839   0.78297   0.73141   0.00000  Uiso   1.00
O84    O     0.54683   0.47018   0.70282   0.00000  Uiso   1.00
O85    O     0.63106   0.08179   0.50701   0.00000  Uiso   1.00
O86    O     0.13746   0.76466   0.77594   0.00000  Uiso   1.00
N87    N     0.34533   0.39914   0.70046   0.00000  Uiso   1.00
N88    N     0.69274   0.12239   0.56092   0.00000  Uiso   1.00
N89    N     0.05357   0.89638   0.75255   0.00000  Uiso   1.00
N90    N     0.49450   0.33161   0.68171   0.00000  Uiso   1.00
N91    N     0.84191   0.05486   0.54217   0.00000  Uiso   1.00
N92    N     0.20274   0.82885   0.73380   0.00000  Uiso   1.00
C93    C     0.47056   0.19292   0.32149   0.00000  Uiso   1.00
C94    C     0.34040   0.24143   0.31985   0.00000  Uiso   1.00
C95    C     0.30427   0.32134   0.30542   0.00000  Uiso   1.00
C96    C     0.18097   0.35486   0.30649   0.00000  Uiso   1.00
C97    C     0.99168   0.43703   0.30167   0.00000  Uiso   1.00
C98    C     0.53646   0.17636   0.35701   0.00000  Uiso   1.00
C99    C     0.66518   0.20155   0.37382   0.00000  Uiso   1.00
C100   C     0.70692   0.18028   0.40617   0.00000  Uiso   1.00
C101   C     0.82205   0.16137   0.45904   0.00000  Uiso   1.00
C102   C     0.42877   0.10438   0.30650   0.00000  Uiso   1.00
C103   C     0.46698   0.06903   0.28086   0.00000  Uiso   1.00
C104   C     0.41808   0.98714   0.27069   0.00000  Uiso   1.00
C105   C     0.36602   0.85647   0.24514   0.00000  Uiso   1.00
C106   C     0.31581   0.11034   0.34904   0.00000  Uiso   1.00
C107   C     0.25635   0.19658   0.33481   0.00000  Uiso   1.00
C108   C     0.13306   0.22998   0.33590   0.00000  Uiso   1.00
C109   C     0.09676   0.30992   0.32148   0.00000  Uiso   1.00
C110   C     0.45241   0.13151   0.37197   0.00000  Uiso   1.00
C111   C     0.49397   0.11018   0.40430   0.00000  Uiso   1.00
C112   C     0.62271   0.13534   0.42116   0.00000  Uiso   1.00
C113   C     0.34472   0.05952   0.32146   0.00000  Uiso   1.00
C114   C     0.29576   0.97767   0.31133   0.00000  Uiso   1.00
C115   C     0.33388   0.94220   0.28568   0.00000  Uiso   1.00
H116   H     0.53600   0.22784   0.30985   0.00000  Uiso   1.00
H117   H     0.36936   0.35604   0.29385   0.00000  Uiso   1.00
H118   H     0.73020   0.23626   0.36224   0.00000  Uiso   1.00
H119   H     0.53202   0.10376   0.26928   0.00000  Uiso   1.00
H120   H     0.14755   0.47840   0.28272   0.00000  Uiso   1.00
H121   H     0.90844   0.22581   0.42692   0.00000  Uiso   1.00
H122   H     0.49055   0.94641   0.23091   0.00000  Uiso   1.00
H123   H     0.25037   0.07541   0.36069   0.00000  Uiso   1.00
H124   H     0.06804   0.19525   0.34748   0.00000  Uiso   1.00
H125   H     0.42890   0.07547   0.41587   0.00000  Uiso   1.00
H126   H     0.23072   0.94297   0.32292   0.00000  Uiso   1.00
H127   H     0.90300   0.34791   0.32625   0.00000  Uiso   1.00
H128   H     0.66389   0.09531   0.47045   0.00000  Uiso   1.00
H129   H     0.24599   0.81591   0.27444   0.00000  Uiso   1.00
O130   O     0.91051   0.49475   0.29489   0.00000  Uiso   1.00
O131   O     0.90878   0.16334   0.48407   0.00000  Uiso   1.00
O132   O     0.36050   0.79679   0.22691   0.00000  Uiso   1.00
N133   N     0.11500   0.43124   0.29477   0.00000  Uiso   1.00
N134   N     0.82639   0.19509   0.42959   0.00000  Uiso   1.00
N135   N     0.43572   0.93387   0.24634   0.00000  Uiso   1.00
N136   N     0.98341   0.36102   0.31819   0.00000  Uiso   1.00
N137   N     0.69479   0.12487   0.45302   0.00000  Uiso   1.00
N138   N     0.30413   0.86365   0.26977   0.00000  Uiso   1.00
C139   C     0.98252   0.64526   0.82702   0.00000  Uiso   1.00
C140   C     0.85570   0.69872   0.82403   0.00000  Uiso   1.00
C141   C     0.83217   0.78129   0.81107   0.00000  Uiso   1.00
C142   C     0.70984   0.81925   0.81051   0.00000  Uiso   1.00
C143   C     0.52745   0.90884   0.80405   0.00000  Uiso   1.00
C144   C     0.03556   0.62246   0.86249   0.00000  Uiso   1.00
C145   C     0.16326   0.64090   0.88186   0.00000  Uiso   1.00
C146   C     0.19233   0.61465   0.91368   0.00000  Uiso   1.00
C147   C     0.28919   0.58578   0.96692   0.00000  Uiso   1.00
C148   C     0.93610   0.56018   0.80967   0.00000  Uiso   1.00
C149   C     0.98019   0.52624   0.78464   0.00000  Uiso   1.00
C150   C     0.92555   0.44755   0.77200   0.00000  Uiso   1.00
C151   C     0.86799   0.32199   0.74323   0.00000  Uiso   1.00
C152   C     0.80710   0.56584   0.84908   0.00000  Uiso   1.00
C153   C     0.76043   0.65558   0.83601   0.00000  Uiso   1.00
C154   C     0.63809   0.69343   0.83547   0.00000  Uiso   1.00
C155   C     0.61439   0.77604   0.82251   0.00000  Uiso   1.00
C156   C     0.94028   0.57932   0.87447   0.00000  Uiso   1.00
C157   C     0.96918   0.55304   0.90626   0.00000  Uiso   1.00
C158   C     0.09688   0.57144   0.92568   0.00000  Uiso   1.00
C159   C     0.84082   0.51704   0.82165   0.00000  Uiso   1.00
C160   C     0.78610   0.43838   0.80904   0.00000  Uiso   1.00
C161   C     0.83010   0.40434   0.78399   0.00000  Uiso   1.00
H162   H     0.05671   0.67884   0.81770   0.00000  Uiso   1.00
H163   H     0.90594   0.81465   0.80180   0.00000  Uiso   1.00
H164   H     0.23697   0.67427   0.87259   0.00000  Uiso   1.00
H165   H     0.05393   0.55964   0.77538   0.00000  Uiso   1.00
H166   H     0.69679   0.94622   0.78947   0.00000  Uiso   1.00
H167   H     0.39480   0.65019   0.93872   0.00000  Uiso   1.00
H168   H     0.00883   0.40847   0.73374   0.00000  Uiso   1.00
H169   H     0.73292   0.53226   0.85840   0.00000  Uiso   1.00
H170   H     0.56438   0.66003   0.84474   0.00000  Uiso   1.00
H171   H     0.89542   0.51965   0.91552   0.00000  Uiso   1.00
H172   H     0.71237   0.40502   0.81831   0.00000  Uiso   1.00
H173   H     0.41957   0.82072   0.82432   0.00000  Uiso   1.00
H174   H     0.11759   0.52469   0.97357   0.00000  Uiso   1.00
H175   H     0.73161   0.28297   0.76859   0.00000  Uiso   1.00
O176   O     0.45317   0.97018   0.79718   0.00000  Uiso   1.00
O177   O     0.36894   0.58179   0.99299   0.00000  Uiso   1.00
O178   O     0.86254   0.26466   0.72406   0.00000  Uiso   1.00
N179   N     0.65467   0.89914   0.79954   0.00000  Uiso   1.00
N180   N     0.30726   0.62239   0.93908   0.00000  Uiso   1.00
N181   N     0.94643   0.39638   0.74745   0.00000  Uiso   1.00
N182   N     0.50550   0.83161   0.81829   0.00000  Uiso   1.00
N183   N     0.15809   0.55486   0.95783   0.00000  Uiso   1.00
N184   N     0.79726   0.32885   0.76620   0.00000  Uiso   1.00
C185   C     0.47056   0.30708   0.82149   0.00000  Uiso   1.00
C186   C     0.34040   0.25857   0.81985   0.00000  Uiso   1.00
C187   C     0.30427   0.17866   0.80542   0.00000  Uiso   1.00
C188   C     0.18097   0.14514   0.80649   0.00000  Uiso   1.00
C189   C     0.99168   0.06297   0.80167   0.00000  Uiso   1.00
C190   C     0.53646   0.32364   0.85701   0.00000  Uiso   1.00
C191   C     0.66518   0.29845   0.87382   0.00000  Uiso   1.00
C192   C     0.70692   0.31972   0.90617   0.00000  Uiso   1.00
C193   C     0.82205   0.33863   0.95904   0.00000  Uiso   1.00
C194   C     0.42877   0.39562   0.80650   0.00000  Uiso   1.00
C195   C     0.46698   0.43097   0.78086   0.00000  Uiso   1.00
C196   C     0.41808   0.51286   0.77069   0.00000  Uiso   1.00
C197   C     0.36602   0.64353   0.74514   0.00000  Uiso   1.00
C198   C     0.31581   0.38966   0.84904   0.00000  Uiso   1.00
C199   C     0.25635   0.30342   0.83481   0.00000  Uiso   1.00
C200   C     0.13306   0.27002   0.83590   0.00000  Uiso   1.00
C201   C     0.09676   0.19008   0.82148   0.00000  Uiso   1.00
C202   C     0.45241   0.36849   0.87197   0.00000  Uiso   1.00
C203   C     0.49397   0.38982   0.90430   0.00000  Uiso   1.00
C204   C     0.62271   0.36466   0.92116   0.00000  Uiso   1.00
C205   C     0.34472   0.44048   0.82146   0.00000  Uiso   1.00
C206   C     0.29576   0.52233   0.81133   0.00000  Uiso   1.00
C207   C     0.33388   0.55780   0.78568   0.00000  Uiso   1.00
H208   H     0.53600   0.27216   0.80985   0.00000  Uiso   1.00
H209   H     0.36936   0.14396   0.79385   0.00000  Uiso   1.00
H210   H     0.73020   0.26374   0.86224   0.00000  Uiso   1.00
H211   H     0.53202   0.39624   0.76928   0.00000  Uiso   1.00
H212   H     0.14755   0.02160   0.78272   0.00000  Uiso   1.00
H213   H     0.90844   0.27419   0.92692   0.00000  Uiso   1.00
H214   H     0.49055   0.55359   0.73091   0.00000  Uiso   1.00
H215   H     0.25037   0.42459   0.86069   0.00000  Uiso   1.00
H216   H     0.06804   0.30475   0.84748   0.00000  Uiso   1.00
H217   H     0.42890   0.42453   0.91587   0.00000  Uiso   1.00
H218   H     0.23072   0.55703   0.82292   0.00000  Uiso   1.00
H219   H     0.90300   0.15209   0.82625   0.00000  Uiso   1.00
H220   H     0.66389   0.40469   0.97045   0.00000  Uiso   1.00
H221   H     0.24599   0.68409   0.77444   0.00000  Uiso   1.00
O222   O     0.91051   0.00525   0.79489   0.00000  Uiso   1.00
O223   O     0.90878   0.33666   0.98407   0.00000  Uiso   1.00
O224   O     0.36050   0.70321   0.72691   0.00000  Uiso   1.00
N225   N     0.11500   0.06876   0.79477   0.00000  Uiso   1.00
N226   N     0.82639   0.30491   0.92959   0.00000  Uiso   1.00
N227   N     0.43572   0.56613   0.74634   0.00000  Uiso   1.00
N228   N     0.98341   0.13898   0.81819   0.00000  Uiso   1.00
N229   N     0.69479   0.37513   0.95302   0.00000  Uiso   1.00
N230   N     0.30413   0.63635   0.76977   0.00000  Uiso   1.00
C231   C     0.98252   0.85474   0.32702   0.00000  Uiso   1.00
C232   C     0.85570   0.80128   0.32403   0.00000  Uiso   1.00
C233   C     0.83217   0.71871   0.31107   0.00000  Uiso   1.00
C234   C     0.70984   0.68075   0.31051   0.00000  Uiso   1.00
C235   C     0.52745   0.59116   0.30405   0.00000  Uiso   1.00
C236   C     0.03556   0.87754   0.36249   0.00000  Uiso   1.00
C237   C     0.16326   0.85910   0.38186   0.00000  Uiso   1.00
C238   C     0.19233   0.88535   0.41368   0.00000  Uiso   1.00
C239   C     0.28919   0.91422   0.46692   0.00000  Uiso   1.00
C240   C     0.93610   0.93982   0.30967   0.00000  Uiso   1.00
C241   C     0.98019   0.97376   0.28464   0.00000  Uiso   1.00
C242   C     0.92555   0.05245   0.27200   0.00000  Uiso   1.00
C243   C     0.86799   0.17801   0.24323   0.00000  Uiso   1.00
C244   C     0.80710   0.93416   0.34908   0.00000  Uiso   1.00
C245   C     0.76043   0.84442   0.33601   0.00000  Uiso   1.00
C246   C     0.63809   0.80657   0.33547   0.00000  Uiso   1.00
C247   C     0.61439   0.72396   0.32251   0.00000  Uiso   1.00
C248   C     0.94028   0.92068   0.37447   0.00000  Uiso   1.00
C249   C     0.96918   0.94696   0.40626   0.00000  Uiso   1.00
C250   C     0.09688   0.92856   0.42568   0.00000  Uiso   1.00
C251   C     0.84082   0.98296   0.32165   0.00000  Uiso   1.00
C252   C     0.78610   0.06162   0.30904   0.00000  Uiso   1.00
C253   C     0.83010   0.09566   0.28399   0.00000  Uiso   1.00
H254   H     0.05671   0.82116   0.31770   0.00000  Uiso   1.00
H255   H     0.90594   0.68535   0.30180   0.00000  Uiso   1.00
H256   H     0.23697   0.82573   0.37259   0.00000  Uiso   1.00
H257   H     0.05393   0.94036   0.27538   0.00000  Uiso   1.00
H258   H     0.69679   0.55378   0.28947   0.00000  Uiso   1.00
H259   H     0.39480   0.84981   0.43872   0.00000  Uiso   1.00
H260   H     0.00883   0.09153   0.23374   0.00000  Uiso   1.00
H261   H     0.73292   0.96774   0.35840   0.00000  Uiso   1.00
H262   H     0.56438   0.83997   0.34474   0.00000  Uiso   1.00
H263   H     0.89542   0.98035   0.41552   0.00000  Uiso   1.00
H264   H     0.71237   0.09498   0.31831   0.00000  Uiso   1.00
H265   H     0.41957   0.67928   0.32432   0.00000  Uiso   1.00
H266   H     0.11759   0.97531   0.47357   0.00000  Uiso   1.00
H267   H     0.73161   0.21703   0.26859   0.00000  Uiso   1.00
O268   O     0.45317   0.52982   0.29718   0.00000  Uiso   1.00
O269   O     0.36894   0.91821   0.49299   0.00000  Uiso   1.00
O270   O     0.86254   0.23534   0.22406   0.00000  Uiso   1.00
N271   N     0.65467   0.60086   0.29954   0.00000  Uiso   1.00
N272   N     0.30726   0.87761   0.43908   0.00000  Uiso   1.00
N273   N     0.94643   0.10362   0.24745   0.00000  Uiso   1.00
N274   N     0.50550   0.66839   0.31829   0.00000  Uiso   1.00
N275   N     0.15809   0.94514   0.45783   0.00000  Uiso   1.00
N276   N     0.79726   0.17115   0.26620   0.00000  Uiso   1.00
C277   C     0.52944   0.80708   0.67851   0.00000  Uiso   1.00
C278   C     0.65960   0.75857   0.68015   0.00000  Uiso   1.00
C279   C     0.69573   0.67866   0.69458   0.00000  Uiso   1.00
C280   C     0.81903   0.64514   0.69351   0.00000  Uiso   1.00
C281   C     0.00832   0.56297   0.69833   0.00000  Uiso   1.00
C282   C     0.46354   0.82364   0.64299   0.00000  Uiso   1.00
C283   C     0.33482   0.79845   0.62618   0.00000  Uiso   1.00
C284   C     0.29308   0.81972   0.59383   0.00000  Uiso   1.00
C285   C     0.17795   0.83863   0.54096   0.00000  Uiso   1.00
C286   C     0.57123   0.89562   0.69350   0.00000  Uiso   1.00
C287   C     0.53302   0.93097   0.71914   0.00000  Uiso   1.00
C288   C     0.58192   0.01286   0.72931   0.00000  Uiso   1.00
C289   C     0.63398   0.14353   0.75486   0.00000  Uiso   1.00
C290   C     0.68419   0.88966   0.65096   0.00000  Uiso   1.00
C291   C     0.74365   0.80342   0.66519   0.00000  Uiso   1.00
C292   C     0.86694   0.77002   0.66410   0.00000  Uiso   1.00
C293   C     0.90324   0.69008   0.67852   0.00000  Uiso   1.00
C294   C     0.54759   0.86849   0.62803   0.00000  Uiso   1.00
C295   C     0.50603   0.88982   0.59570   0.00000  Uiso   1.00
C296   C     0.37729   0.86466   0.57884   0.00000  Uiso   1.00
C297   C     0.65528   0.94048   0.67854   0.00000  Uiso   1.00
C298   C     0.70424   0.02233   0.68867   0.00000  Uiso   1.00
C299   C     0.66612   0.05780   0.71432   0.00000  Uiso   1.00
H300   H     0.46400   0.77216   0.69015   0.00000  Uiso   1.00
H301   H     0.63064   0.64396   0.70615   0.00000  Uiso   1.00
H302   H     0.26980   0.76374   0.63776   0.00000  Uiso   1.00
H303   H     0.46798   0.89624   0.73072   0.00000  Uiso   1.00
H304   H     0.85245   0.52160   0.71728   0.00000  Uiso   1.00
H305   H     0.09156   0.77419   0.57308   0.00000  Uiso   1.00
H306   H     0.50945   0.05359   0.76909   0.00000  Uiso   1.00
H307   H     0.74963   0.92459   0.63931   0.00000  Uiso   1.00
H308   H     0.93196   0.80475   0.65252   0.00000  Uiso   1.00
H309   H     0.57110   0.92453   0.58413   0.00000  Uiso   1.00
H310   H     0.76928   0.05703   0.67708   0.00000  Uiso   1.00
H311   H     0.09700   0.65209   0.67375   0.00000  Uiso   1.00
H312   H     0.33611   0.90469   0.52955   0.00000  Uiso   1.00
H313   H     0.75401   0.18409   0.72556   0.00000  Uiso   1.00
O314   O     0.08949   0.50525   0.70511   0.00000  Uiso   1.00
O315   O     0.09122   0.83666   0.51593   0.00000  Uiso   1.00
O316   O     0.63950   0.20321   0.77309   0.00000  Uiso   1.00
N317   N     0.88500   0.56876   0.70523   0.00000  Uiso   1.00
N318   N     0.17361   0.80491   0.57041   0.00000  Uiso   1.00
N319   N     0.56428   0.06613   0.75366   0.00000  Uiso   1.00
N320   N     0.01659   0.63898   0.68181   0.00000  Uiso   1.00
N321   N     0.30521   0.87513   0.54698   0.00000  Uiso   1.00
N322   N     0.69587   0.13635   0.73023   0.00000  Uiso   1.00
C323   C     0.01748   0.35474   0.17298   0.00000  Uiso   1.00
C324   C     0.14430   0.30128   0.17597   0.00000  Uiso   1.00
C325   C     0.16783   0.21871   0.18893   0.00000  Uiso   1.00
C326   C     0.29016   0.18075   0.18949   0.00000  Uiso   1.00
C327   C     0.47255   0.09116   0.19595   0.00000  Uiso   1.00
C328   C     0.96444   0.37754   0.13751   0.00000  Uiso   1.00
C329   C     0.83674   0.35910   0.11814   0.00000  Uiso   1.00
C330   C     0.80767   0.38535   0.08632   0.00000  Uiso   1.00
C331   C     0.71081   0.41422   0.03308   0.00000  Uiso   1.00
C332   C     0.06390   0.43982   0.19033   0.00000  Uiso   1.00
C333   C     0.01981   0.47376   0.21536   0.00000  Uiso   1.00
C334   C     0.07445   0.55245   0.22800   0.00000  Uiso   1.00
C335   C     0.13201   0.67801   0.25677   0.00000  Uiso   1.00
C336   C     0.19290   0.43416   0.15092   0.00000  Uiso   1.00
C337   C     0.23957   0.34442   0.16399   0.00000  Uiso   1.00
C338   C     0.36191   0.30657   0.16453   0.00000  Uiso   1.00
C339   C     0.38561   0.22396   0.17749   0.00000  Uiso   1.00
C340   C     0.05972   0.42068   0.12553   0.00000  Uiso   1.00
C341   C     0.03082   0.44696   0.09374   0.00000  Uiso   1.00
C342   C     0.90312   0.42856   0.07432   0.00000  Uiso   1.00
C343   C     0.15918   0.48296   0.17835   0.00000  Uiso   1.00
C344   C     0.21390   0.56162   0.19096   0.00000  Uiso   1.00
C345   C     0.16990   0.59566   0.21601   0.00000  Uiso   1.00
H346   H     0.94329   0.32116   0.18230   0.00000  Uiso   1.00
H347   H     0.09406   0.18535   0.19820   0.00000  Uiso   1.00
H348   H     0.76303   0.32573   0.12741   0.00000  Uiso   1.00
H349   H     0.94607   0.44036   0.22462   0.00000  Uiso   1.00
H350   H     0.30321   0.05378   0.21053   0.00000  Uiso   1.00
H351   H     0.60520   0.34981   0.06128   0.00000  Uiso   1.00
H352   H     0.99117   0.59153   0.26626   0.00000  Uiso   1.00
H353   H     0.26708   0.46774   0.14160   0.00000  Uiso   1.00
H354   H     0.43562   0.33997   0.15526   0.00000  Uiso   1.00
H355   H     0.10458   0.48035   0.08448   0.00000  Uiso   1.00
H356   H     0.28763   0.59498   0.18169   0.00000  Uiso   1.00
H357   H     0.58043   0.17928   0.17568   0.00000  Uiso   1.00
H358   H     0.88241   0.47531   0.02643   0.00000  Uiso   1.00
H359   H     0.26839   0.71703   0.23141   0.00000  Uiso   1.00
O360   O     0.54683   0.02982   0.20282   0.00000  Uiso   1.00
O361   O     0.63106   0.41821   0.00701   0.00000  Uiso   1.00
O362   O     0.13746   0.73534   0.27594   0.00000  Uiso   1.00
N363   N     0.34533   0.10086   0.20046   0.00000  Uiso   1.00
N364   N     0.69274   0.37761   0.06092   0.00000  Uiso   1.00
N365   N     0.05357   0.60362   0.25255   0.00000  Uiso   1.00
N366   N     0.49450   0.16839   0.18171   0.00000  Uiso   1.00
N367   N     0.84191   0.44514   0.04217   0.00000  Uiso   1.00
N368   N     0.20274   0.67115   0.23380   0.00000  Uiso   1.00
