data_job_00104
_audit_creation_date              2018-12-19
_audit_creation_method            'Materials Studio'
_symmetry_space_group_name_H-M    'P1'
_symmetry_Int_Tables_number       1
_symmetry_cell_setting            triclinic
loop_
_symmetry_equiv_pos_as_xyz
  x,y,z
_cell_length_a                    23.3632
_cell_length_b                    7.3146
_cell_length_c                    41.3097
_cell_angle_alpha                 90.0000
_cell_angle_beta                  90.0000
_cell_angle_gamma                 90.0000
loop_
_atom_site_label
_atom_site_type_symbol
_atom_site_fract_x
_atom_site_fract_y
_atom_site_fract_z
_atom_site_U_iso_or_equiv
_atom_site_adp_type
_atom_site_occupancy
C1     C     0.28952   0.07383   0.83922   0.00000  Uiso   1.00
C2     C     0.24211   0.15436   0.81823   0.00000  Uiso   1.00
C3     C     0.20226   0.05511   0.80058   0.00000  Uiso   1.00
C4     C     0.16235   0.15421   0.78290   0.00000  Uiso   1.00
C5     C     0.08876   0.25013   0.75030   0.00000  Uiso   1.00
C6     C     0.34536   0.15436   0.82649   0.00000  Uiso   1.00
C7     C     0.39232   0.05510   0.81579   0.00000  Uiso   1.00
C8     C     0.43933   0.15420   0.80508   0.00000  Uiso   1.00
C9     C     0.52605   0.25011   0.78533   0.00000  Uiso   1.00
C10    C     0.28109   0.15433   0.87293   0.00000  Uiso   1.00
C11    C     0.27402   0.05505   0.90128   0.00000  Uiso   1.00
C12    C     0.26694   0.15413   0.92967   0.00000  Uiso   1.00
C13    C     0.25386   0.24999   0.98202   0.00000  Uiso   1.00
C14    C     0.28952   0.42632   0.83923   0.00000  Uiso   1.00
C15    C     0.24212   0.34582   0.81823   0.00000  Uiso   1.00
C16    C     0.20226   0.44510   0.80059   0.00000  Uiso   1.00
C17    C     0.16235   0.34601   0.78291   0.00000  Uiso   1.00
C18    C     0.34536   0.34581   0.82650   0.00000  Uiso   1.00
C19    C     0.39232   0.44509   0.81580   0.00000  Uiso   1.00
C20    C     0.43933   0.34600   0.80508   0.00000  Uiso   1.00
C21    C     0.28109   0.34579   0.87294   0.00000  Uiso   1.00
C22    C     0.27402   0.44504   0.90129   0.00000  Uiso   1.00
C23    C     0.26694   0.34593   0.92967   0.00000  Uiso   1.00
H24    H     0.28952   0.92477   0.83922   0.00000  Uiso   1.00
H25    H     0.20227   0.90694   0.80058   0.00000  Uiso   1.00
H26    H     0.39231   0.90694   0.81580   0.00000  Uiso   1.00
H27    H     0.27402   0.90689   0.90127   0.00000  Uiso   1.00
H28    H     0.10555   0.97161   0.75774   0.00000  Uiso   1.00
H29    H     0.50626   0.97159   0.78983   0.00000  Uiso   1.00
H30    H     0.25684   0.97148   0.97007   0.00000  Uiso   1.00
H31    H     0.28952   0.57539   0.83923   0.00000  Uiso   1.00
H32    H     0.20227   0.59326   0.80059   0.00000  Uiso   1.00
H33    H     0.39231   0.59325   0.81581   0.00000  Uiso   1.00
H34    H     0.27402   0.59320   0.90128   0.00000  Uiso   1.00
H35    H     0.10555   0.52865   0.75774   0.00000  Uiso   1.00
H36    H     0.50626   0.52863   0.78984   0.00000  Uiso   1.00
H37    H     0.25684   0.52853   0.97008   0.00000  Uiso   1.00
O38    O     0.04817   0.25015   0.73231   0.00000  Uiso   1.00
O39    O     0.57388   0.25012   0.77443   0.00000  Uiso   1.00
O40    O     0.24664   0.24998   0.01090   0.00000  Uiso   1.00
N41    N     0.11752   0.10026   0.76304   0.00000  Uiso   1.00
N42    N     0.49215   0.10024   0.79305   0.00000  Uiso   1.00
N43    N     0.25898   0.10014   0.96156   0.00000  Uiso   1.00
N44    N     0.11752   0.40000   0.76305   0.00000  Uiso   1.00
N45    N     0.49215   0.39997   0.79305   0.00000  Uiso   1.00
N46    N     0.25898   0.39988   0.96156   0.00000  Uiso   1.00
C47    C     0.78952   0.57383   0.83922   0.00000  Uiso   1.00
C48    C     0.74211   0.65436   0.81823   0.00000  Uiso   1.00
C49    C     0.70226   0.55511   0.80058   0.00000  Uiso   1.00
C50    C     0.66235   0.65421   0.78290   0.00000  Uiso   1.00
C51    C     0.58876   0.75013   0.75030   0.00000  Uiso   1.00
C52    C     0.84536   0.65436   0.82649   0.00000  Uiso   1.00
C53    C     0.89232   0.55510   0.81579   0.00000  Uiso   1.00
C54    C     0.93933   0.65420   0.80508   0.00000  Uiso   1.00
C55    C     0.02605   0.75011   0.78533   0.00000  Uiso   1.00
C56    C     0.78109   0.65433   0.87293   0.00000  Uiso   1.00
C57    C     0.77402   0.55505   0.90128   0.00000  Uiso   1.00
C58    C     0.76694   0.65413   0.92967   0.00000  Uiso   1.00
C59    C     0.75386   0.74999   0.98202   0.00000  Uiso   1.00
C60    C     0.78952   0.92632   0.83923   0.00000  Uiso   1.00
C61    C     0.74212   0.84582   0.81823   0.00000  Uiso   1.00
C62    C     0.70226   0.94510   0.80059   0.00000  Uiso   1.00
C63    C     0.66235   0.84601   0.78291   0.00000  Uiso   1.00
C64    C     0.84536   0.84581   0.82650   0.00000  Uiso   1.00
C65    C     0.89232   0.94509   0.81580   0.00000  Uiso   1.00
C66    C     0.93933   0.84600   0.80508   0.00000  Uiso   1.00
C67    C     0.78109   0.84579   0.87294   0.00000  Uiso   1.00
C68    C     0.77402   0.94504   0.90129   0.00000  Uiso   1.00
C69    C     0.76694   0.84593   0.92967   0.00000  Uiso   1.00
H70    H     0.78952   0.42477   0.83922   0.00000  Uiso   1.00
H71    H     0.70227   0.40694   0.80058   0.00000  Uiso   1.00
H72    H     0.89231   0.40694   0.81580   0.00000  Uiso   1.00
H73    H     0.77402   0.40689   0.90127   0.00000  Uiso   1.00
H74    H     0.60555   0.47161   0.75774   0.00000  Uiso   1.00
H75    H     0.00626   0.47159   0.78983   0.00000  Uiso   1.00
H76    H     0.75684   0.47148   0.97007   0.00000  Uiso   1.00
H77    H     0.78952   0.07539   0.83923   0.00000  Uiso   1.00
H78    H     0.70227   0.09326   0.80059   0.00000  Uiso   1.00
H79    H     0.89231   0.09325   0.81581   0.00000  Uiso   1.00
H80    H     0.77402   0.09320   0.90128   0.00000  Uiso   1.00
H81    H     0.60555   0.02865   0.75774   0.00000  Uiso   1.00
H82    H     0.00626   0.02863   0.78984   0.00000  Uiso   1.00
H83    H     0.75684   0.02853   0.97008   0.00000  Uiso   1.00
O84    O     0.54817   0.75015   0.73231   0.00000  Uiso   1.00
O85    O     0.07388   0.75012   0.77443   0.00000  Uiso   1.00
O86    O     0.74664   0.74998   0.01090   0.00000  Uiso   1.00
N87    N     0.61752   0.60026   0.76304   0.00000  Uiso   1.00
N88    N     0.99215   0.60024   0.79305   0.00000  Uiso   1.00
N89    N     0.75898   0.60014   0.96156   0.00000  Uiso   1.00
N90    N     0.61752   0.90000   0.76305   0.00000  Uiso   1.00
N91    N     0.99215   0.89997   0.79305   0.00000  Uiso   1.00
N92    N     0.75898   0.89988   0.96156   0.00000  Uiso   1.00
C93    C     0.71048   0.92617   0.33922   0.00000  Uiso   1.00
C94    C     0.75789   0.84564   0.31823   0.00000  Uiso   1.00
C95    C     0.79774   0.94489   0.30058   0.00000  Uiso   1.00
C96    C     0.83765   0.84579   0.28290   0.00000  Uiso   1.00
C97    C     0.91124   0.74987   0.25030   0.00000  Uiso   1.00
C98    C     0.65464   0.84564   0.32649   0.00000  Uiso   1.00
C99    C     0.60768   0.94490   0.31579   0.00000  Uiso   1.00
C100   C     0.56067   0.84580   0.30508   0.00000  Uiso   1.00
C101   C     0.47395   0.74989   0.28533   0.00000  Uiso   1.00
C102   C     0.71891   0.84567   0.37293   0.00000  Uiso   1.00
C103   C     0.72598   0.94495   0.40128   0.00000  Uiso   1.00
C104   C     0.73306   0.84587   0.42967   0.00000  Uiso   1.00
C105   C     0.74614   0.75001   0.48202   0.00000  Uiso   1.00
C106   C     0.71048   0.57368   0.33923   0.00000  Uiso   1.00
C107   C     0.75788   0.65418   0.31823   0.00000  Uiso   1.00
C108   C     0.79774   0.55490   0.30059   0.00000  Uiso   1.00
C109   C     0.83765   0.65399   0.28291   0.00000  Uiso   1.00
C110   C     0.65464   0.65419   0.32650   0.00000  Uiso   1.00
C111   C     0.60768   0.55491   0.31580   0.00000  Uiso   1.00
C112   C     0.56067   0.65400   0.30508   0.00000  Uiso   1.00
C113   C     0.71891   0.65421   0.37294   0.00000  Uiso   1.00
C114   C     0.72598   0.55496   0.40129   0.00000  Uiso   1.00
C115   C     0.73306   0.65407   0.42967   0.00000  Uiso   1.00
H116   H     0.71048   0.07523   0.33922   0.00000  Uiso   1.00
H117   H     0.79773   0.09306   0.30058   0.00000  Uiso   1.00
H118   H     0.60769   0.09306   0.31580   0.00000  Uiso   1.00
H119   H     0.72598   0.09311   0.40127   0.00000  Uiso   1.00
H120   H     0.89445   0.02839   0.25774   0.00000  Uiso   1.00
H121   H     0.49374   0.02841   0.28983   0.00000  Uiso   1.00
H122   H     0.74316   0.02852   0.47007   0.00000  Uiso   1.00
H123   H     0.71048   0.42461   0.33923   0.00000  Uiso   1.00
H124   H     0.79773   0.40674   0.30059   0.00000  Uiso   1.00
H125   H     0.60769   0.40675   0.31581   0.00000  Uiso   1.00
H126   H     0.72598   0.40680   0.40128   0.00000  Uiso   1.00
H127   H     0.89445   0.47135   0.25774   0.00000  Uiso   1.00
H128   H     0.49374   0.47137   0.28984   0.00000  Uiso   1.00
H129   H     0.74316   0.47147   0.47008   0.00000  Uiso   1.00
O130   O     0.95183   0.74985   0.23231   0.00000  Uiso   1.00
O131   O     0.42612   0.74988   0.27443   0.00000  Uiso   1.00
O132   O     0.75336   0.75002   0.51090   0.00000  Uiso   1.00
N133   N     0.88248   0.89974   0.26304   0.00000  Uiso   1.00
N134   N     0.50785   0.89976   0.29305   0.00000  Uiso   1.00
N135   N     0.74102   0.89986   0.46156   0.00000  Uiso   1.00
N136   N     0.88248   0.60000   0.26305   0.00000  Uiso   1.00
N137   N     0.50785   0.60003   0.29305   0.00000  Uiso   1.00
N138   N     0.74102   0.60012   0.46156   0.00000  Uiso   1.00
C139   C     0.21048   0.42617   0.33922   0.00000  Uiso   1.00
C140   C     0.25789   0.34564   0.31823   0.00000  Uiso   1.00
C141   C     0.29774   0.44489   0.30058   0.00000  Uiso   1.00
C142   C     0.33765   0.34579   0.28290   0.00000  Uiso   1.00
C143   C     0.41124   0.24987   0.25030   0.00000  Uiso   1.00
C144   C     0.15464   0.34564   0.32649   0.00000  Uiso   1.00
C145   C     0.10768   0.44490   0.31579   0.00000  Uiso   1.00
C146   C     0.06067   0.34580   0.30508   0.00000  Uiso   1.00
C147   C     0.97395   0.24989   0.28533   0.00000  Uiso   1.00
C148   C     0.21891   0.34567   0.37293   0.00000  Uiso   1.00
C149   C     0.22598   0.44495   0.40128   0.00000  Uiso   1.00
C150   C     0.23306   0.34587   0.42967   0.00000  Uiso   1.00
C151   C     0.24614   0.25001   0.48202   0.00000  Uiso   1.00
C152   C     0.21048   0.07368   0.33923   0.00000  Uiso   1.00
C153   C     0.25788   0.15418   0.31823   0.00000  Uiso   1.00
C154   C     0.29774   0.05490   0.30059   0.00000  Uiso   1.00
C155   C     0.33765   0.15399   0.28291   0.00000  Uiso   1.00
C156   C     0.15464   0.15419   0.32650   0.00000  Uiso   1.00
C157   C     0.10768   0.05491   0.31580   0.00000  Uiso   1.00
C158   C     0.06067   0.15400   0.30508   0.00000  Uiso   1.00
C159   C     0.21891   0.15421   0.37294   0.00000  Uiso   1.00
C160   C     0.22598   0.05496   0.40129   0.00000  Uiso   1.00
C161   C     0.23306   0.15407   0.42967   0.00000  Uiso   1.00
H162   H     0.21048   0.57523   0.33922   0.00000  Uiso   1.00
H163   H     0.29773   0.59306   0.30058   0.00000  Uiso   1.00
H164   H     0.10769   0.59306   0.31580   0.00000  Uiso   1.00
H165   H     0.22598   0.59311   0.40127   0.00000  Uiso   1.00
H166   H     0.39445   0.52839   0.25774   0.00000  Uiso   1.00
H167   H     0.99374   0.52841   0.28983   0.00000  Uiso   1.00
H168   H     0.24316   0.52852   0.47007   0.00000  Uiso   1.00
H169   H     0.21048   0.92461   0.33923   0.00000  Uiso   1.00
H170   H     0.29773   0.90674   0.30059   0.00000  Uiso   1.00
H171   H     0.10769   0.90675   0.31581   0.00000  Uiso   1.00
H172   H     0.22598   0.90680   0.40128   0.00000  Uiso   1.00
H173   H     0.39445   0.97135   0.25774   0.00000  Uiso   1.00
H174   H     0.99374   0.97137   0.28984   0.00000  Uiso   1.00
H175   H     0.24316   0.97147   0.47008   0.00000  Uiso   1.00
O176   O     0.45183   0.24985   0.23231   0.00000  Uiso   1.00
O177   O     0.92612   0.24988   0.27443   0.00000  Uiso   1.00
O178   O     0.25336   0.25002   0.51090   0.00000  Uiso   1.00
N179   N     0.38248   0.39974   0.26304   0.00000  Uiso   1.00
N180   N     0.00785   0.39976   0.29305   0.00000  Uiso   1.00
N181   N     0.24102   0.39986   0.46156   0.00000  Uiso   1.00
N182   N     0.38248   0.10000   0.26305   0.00000  Uiso   1.00
N183   N     0.00785   0.10003   0.29305   0.00000  Uiso   1.00
N184   N     0.24102   0.10012   0.46156   0.00000  Uiso   1.00
C185   C     0.71048   0.07383   0.66078   0.00000  Uiso   1.00
C186   C     0.75789   0.15436   0.68177   0.00000  Uiso   1.00
C187   C     0.79774   0.05511   0.69942   0.00000  Uiso   1.00
C188   C     0.83765   0.15421   0.71710   0.00000  Uiso   1.00
C189   C     0.91124   0.25013   0.74970   0.00000  Uiso   1.00
C190   C     0.65464   0.15436   0.67351   0.00000  Uiso   1.00
C191   C     0.60768   0.05510   0.68421   0.00000  Uiso   1.00
C192   C     0.56067   0.15420   0.69492   0.00000  Uiso   1.00
C193   C     0.47395   0.25011   0.71467   0.00000  Uiso   1.00
C194   C     0.71891   0.15433   0.62707   0.00000  Uiso   1.00
C195   C     0.72598   0.05505   0.59872   0.00000  Uiso   1.00
C196   C     0.73306   0.15413   0.57033   0.00000  Uiso   1.00
C197   C     0.74614   0.24999   0.51798   0.00000  Uiso   1.00
C198   C     0.71048   0.42632   0.66077   0.00000  Uiso   1.00
C199   C     0.75788   0.34582   0.68177   0.00000  Uiso   1.00
C200   C     0.79774   0.44510   0.69941   0.00000  Uiso   1.00
C201   C     0.83765   0.34601   0.71709   0.00000  Uiso   1.00
C202   C     0.65464   0.34581   0.67350   0.00000  Uiso   1.00
C203   C     0.60768   0.44509   0.68420   0.00000  Uiso   1.00
C204   C     0.56067   0.34600   0.69492   0.00000  Uiso   1.00
C205   C     0.71891   0.34579   0.62706   0.00000  Uiso   1.00
C206   C     0.72598   0.44504   0.59871   0.00000  Uiso   1.00
C207   C     0.73306   0.34593   0.57033   0.00000  Uiso   1.00
H208   H     0.71048   0.92477   0.66078   0.00000  Uiso   1.00
H209   H     0.79773   0.90694   0.69942   0.00000  Uiso   1.00
H210   H     0.60769   0.90694   0.68420   0.00000  Uiso   1.00
H211   H     0.72598   0.90689   0.59873   0.00000  Uiso   1.00
H212   H     0.89445   0.97161   0.74226   0.00000  Uiso   1.00
H213   H     0.49374   0.97159   0.71017   0.00000  Uiso   1.00
H214   H     0.74316   0.97148   0.52993   0.00000  Uiso   1.00
H215   H     0.71048   0.57539   0.66077   0.00000  Uiso   1.00
H216   H     0.79773   0.59326   0.69941   0.00000  Uiso   1.00
H217   H     0.60769   0.59325   0.68419   0.00000  Uiso   1.00
H218   H     0.72598   0.59320   0.59872   0.00000  Uiso   1.00
H219   H     0.89445   0.52865   0.74226   0.00000  Uiso   1.00
H220   H     0.49374   0.52863   0.71016   0.00000  Uiso   1.00
H221   H     0.74316   0.52853   0.52992   0.00000  Uiso   1.00
O222   O     0.95183   0.25015   0.76769   0.00000  Uiso   1.00
O223   O     0.42612   0.25012   0.72557   0.00000  Uiso   1.00
O224   O     0.75336   0.24998   0.48910   0.00000  Uiso   1.00
N225   N     0.88248   0.10026   0.73696   0.00000  Uiso   1.00
N226   N     0.50785   0.10024   0.70695   0.00000  Uiso   1.00
N227   N     0.74102   0.10014   0.53844   0.00000  Uiso   1.00
N228   N     0.88248   0.40000   0.73695   0.00000  Uiso   1.00
N229   N     0.50785   0.39997   0.70695   0.00000  Uiso   1.00
N230   N     0.74102   0.39988   0.53844   0.00000  Uiso   1.00
C231   C     0.21048   0.57383   0.66078   0.00000  Uiso   1.00
C232   C     0.25789   0.65436   0.68177   0.00000  Uiso   1.00
C233   C     0.29774   0.55511   0.69942   0.00000  Uiso   1.00
C234   C     0.33765   0.65421   0.71710   0.00000  Uiso   1.00
C235   C     0.41124   0.75013   0.74970   0.00000  Uiso   1.00
C236   C     0.15464   0.65436   0.67351   0.00000  Uiso   1.00
C237   C     0.10768   0.55510   0.68421   0.00000  Uiso   1.00
C238   C     0.06067   0.65420   0.69492   0.00000  Uiso   1.00
C239   C     0.97395   0.75011   0.71467   0.00000  Uiso   1.00
C240   C     0.21891   0.65433   0.62707   0.00000  Uiso   1.00
C241   C     0.22598   0.55505   0.59872   0.00000  Uiso   1.00
C242   C     0.23306   0.65413   0.57033   0.00000  Uiso   1.00
C243   C     0.24614   0.74999   0.51798   0.00000  Uiso   1.00
C244   C     0.21048   0.92632   0.66077   0.00000  Uiso   1.00
C245   C     0.25788   0.84582   0.68177   0.00000  Uiso   1.00
C246   C     0.29774   0.94510   0.69941   0.00000  Uiso   1.00
C247   C     0.33765   0.84601   0.71709   0.00000  Uiso   1.00
C248   C     0.15464   0.84581   0.67350   0.00000  Uiso   1.00
C249   C     0.10768   0.94509   0.68420   0.00000  Uiso   1.00
C250   C     0.06067   0.84600   0.69492   0.00000  Uiso   1.00
C251   C     0.21891   0.84579   0.62706   0.00000  Uiso   1.00
C252   C     0.22598   0.94504   0.59871   0.00000  Uiso   1.00
C253   C     0.23306   0.84593   0.57033   0.00000  Uiso   1.00
H254   H     0.21048   0.42477   0.66078   0.00000  Uiso   1.00
H255   H     0.29773   0.40694   0.69942   0.00000  Uiso   1.00
H256   H     0.10769   0.40694   0.68420   0.00000  Uiso   1.00
H257   H     0.22598   0.40689   0.59873   0.00000  Uiso   1.00
H258   H     0.39445   0.47161   0.74226   0.00000  Uiso   1.00
H259   H     0.99374   0.47159   0.71017   0.00000  Uiso   1.00
H260   H     0.24316   0.47148   0.52993   0.00000  Uiso   1.00
H261   H     0.21048   0.07539   0.66077   0.00000  Uiso   1.00
H262   H     0.29773   0.09326   0.69941   0.00000  Uiso   1.00
H263   H     0.10769   0.09325   0.68419   0.00000  Uiso   1.00
H264   H     0.22598   0.09320   0.59872   0.00000  Uiso   1.00
H265   H     0.39445   0.02865   0.74226   0.00000  Uiso   1.00
H266   H     0.99374   0.02863   0.71016   0.00000  Uiso   1.00
H267   H     0.24316   0.02853   0.52992   0.00000  Uiso   1.00
O268   O     0.45183   0.75015   0.76769   0.00000  Uiso   1.00
O269   O     0.92612   0.75012   0.72557   0.00000  Uiso   1.00
O270   O     0.25336   0.74998   0.48910   0.00000  Uiso   1.00
N271   N     0.38248   0.60026   0.73696   0.00000  Uiso   1.00
N272   N     0.00785   0.60024   0.70695   0.00000  Uiso   1.00
N273   N     0.24102   0.60014   0.53844   0.00000  Uiso   1.00
N274   N     0.38248   0.90000   0.73695   0.00000  Uiso   1.00
N275   N     0.00785   0.89997   0.70695   0.00000  Uiso   1.00
N276   N     0.24102   0.89988   0.53844   0.00000  Uiso   1.00
C277   C     0.28952   0.92617   0.16078   0.00000  Uiso   1.00
C278   C     0.24211   0.84564   0.18177   0.00000  Uiso   1.00
C279   C     0.20226   0.94489   0.19942   0.00000  Uiso   1.00
C280   C     0.16235   0.84579   0.21710   0.00000  Uiso   1.00
C281   C     0.08876   0.74987   0.24970   0.00000  Uiso   1.00
C282   C     0.34536   0.84564   0.17351   0.00000  Uiso   1.00
C283   C     0.39232   0.94490   0.18421   0.00000  Uiso   1.00
C284   C     0.43933   0.84580   0.19492   0.00000  Uiso   1.00
C285   C     0.52605   0.74989   0.21467   0.00000  Uiso   1.00
C286   C     0.28109   0.84567   0.12707   0.00000  Uiso   1.00
C287   C     0.27402   0.94495   0.09872   0.00000  Uiso   1.00
C288   C     0.26694   0.84587   0.07033   0.00000  Uiso   1.00
C289   C     0.25386   0.75001   0.01798   0.00000  Uiso   1.00
C290   C     0.28952   0.57368   0.16077   0.00000  Uiso   1.00
C291   C     0.24212   0.65418   0.18177   0.00000  Uiso   1.00
C292   C     0.20226   0.55490   0.19941   0.00000  Uiso   1.00
C293   C     0.16235   0.65399   0.21709   0.00000  Uiso   1.00
C294   C     0.34536   0.65419   0.17350   0.00000  Uiso   1.00
C295   C     0.39232   0.55491   0.18420   0.00000  Uiso   1.00
C296   C     0.43933   0.65400   0.19492   0.00000  Uiso   1.00
C297   C     0.28109   0.65421   0.12706   0.00000  Uiso   1.00
C298   C     0.27402   0.55496   0.09871   0.00000  Uiso   1.00
C299   C     0.26694   0.65407   0.07033   0.00000  Uiso   1.00
H300   H     0.28952   0.07523   0.16078   0.00000  Uiso   1.00
H301   H     0.20227   0.09306   0.19942   0.00000  Uiso   1.00
H302   H     0.39231   0.09306   0.18420   0.00000  Uiso   1.00
H303   H     0.27402   0.09311   0.09873   0.00000  Uiso   1.00
H304   H     0.10555   0.02839   0.24226   0.00000  Uiso   1.00
H305   H     0.50626   0.02841   0.21017   0.00000  Uiso   1.00
H306   H     0.25684   0.02852   0.02993   0.00000  Uiso   1.00
H307   H     0.28952   0.42461   0.16077   0.00000  Uiso   1.00
H308   H     0.20227   0.40674   0.19941   0.00000  Uiso   1.00
H309   H     0.39231   0.40675   0.18419   0.00000  Uiso   1.00
H310   H     0.27402   0.40680   0.09872   0.00000  Uiso   1.00
H311   H     0.10555   0.47135   0.24226   0.00000  Uiso   1.00
H312   H     0.50626   0.47137   0.21016   0.00000  Uiso   1.00
H313   H     0.25684   0.47147   0.02992   0.00000  Uiso   1.00
O314   O     0.04817   0.74985   0.26769   0.00000  Uiso   1.00
O315   O     0.57388   0.74988   0.22557   0.00000  Uiso   1.00
O316   O     0.24664   0.75002   0.98910   0.00000  Uiso   1.00
N317   N     0.11752   0.89974   0.23696   0.00000  Uiso   1.00
N318   N     0.49215   0.89976   0.20695   0.00000  Uiso   1.00
N319   N     0.25898   0.89986   0.03844   0.00000  Uiso   1.00
N320   N     0.11752   0.60000   0.23695   0.00000  Uiso   1.00
N321   N     0.49215   0.60003   0.20695   0.00000  Uiso   1.00
N322   N     0.25898   0.60012   0.03844   0.00000  Uiso   1.00
C323   C     0.78952   0.42617   0.16078   0.00000  Uiso   1.00
C324   C     0.74211   0.34564   0.18177   0.00000  Uiso   1.00
C325   C     0.70226   0.44489   0.19942   0.00000  Uiso   1.00
C326   C     0.66235   0.34579   0.21710   0.00000  Uiso   1.00
C327   C     0.58876   0.24987   0.24970   0.00000  Uiso   1.00
C328   C     0.84536   0.34564   0.17351   0.00000  Uiso   1.00
C329   C     0.89232   0.44490   0.18421   0.00000  Uiso   1.00
C330   C     0.93933   0.34580   0.19492   0.00000  Uiso   1.00
C331   C     0.02605   0.24989   0.21467   0.00000  Uiso   1.00
C332   C     0.78109   0.34567   0.12707   0.00000  Uiso   1.00
C333   C     0.77402   0.44495   0.09872   0.00000  Uiso   1.00
C334   C     0.76694   0.34587   0.07033   0.00000  Uiso   1.00
C335   C     0.75386   0.25001   0.01798   0.00000  Uiso   1.00
C336   C     0.78952   0.07368   0.16077   0.00000  Uiso   1.00
C337   C     0.74212   0.15418   0.18177   0.00000  Uiso   1.00
C338   C     0.70226   0.05490   0.19941   0.00000  Uiso   1.00
C339   C     0.66235   0.15399   0.21709   0.00000  Uiso   1.00
C340   C     0.84536   0.15419   0.17350   0.00000  Uiso   1.00
C341   C     0.89232   0.05491   0.18420   0.00000  Uiso   1.00
C342   C     0.93933   0.15400   0.19492   0.00000  Uiso   1.00
C343   C     0.78109   0.15421   0.12706   0.00000  Uiso   1.00
C344   C     0.77402   0.05496   0.09871   0.00000  Uiso   1.00
C345   C     0.76694   0.15407   0.07033   0.00000  Uiso   1.00
H346   H     0.78952   0.57523   0.16078   0.00000  Uiso   1.00
H347   H     0.70227   0.59306   0.19942   0.00000  Uiso   1.00
H348   H     0.89231   0.59306   0.18420   0.00000  Uiso   1.00
H349   H     0.77402   0.59311   0.09873   0.00000  Uiso   1.00
H350   H     0.60555   0.52839   0.24226   0.00000  Uiso   1.00
H351   H     0.00626   0.52841   0.21017   0.00000  Uiso   1.00
H352   H     0.75684   0.52852   0.02993   0.00000  Uiso   1.00
H353   H     0.78952   0.92461   0.16077   0.00000  Uiso   1.00
H354   H     0.70227   0.90674   0.19941   0.00000  Uiso   1.00
H355   H     0.89231   0.90675   0.18419   0.00000  Uiso   1.00
H356   H     0.77402   0.90680   0.09872   0.00000  Uiso   1.00
H357   H     0.60555   0.97135   0.24226   0.00000  Uiso   1.00
H358   H     0.00626   0.97137   0.21016   0.00000  Uiso   1.00
H359   H     0.75684   0.97147   0.02992   0.00000  Uiso   1.00
O360   O     0.54817   0.24985   0.26769   0.00000  Uiso   1.00
O361   O     0.07388   0.24988   0.22557   0.00000  Uiso   1.00
O362   O     0.74664   0.25002   0.98910   0.00000  Uiso   1.00
N363   N     0.61752   0.39974   0.23696   0.00000  Uiso   1.00
N364   N     0.99215   0.39976   0.20695   0.00000  Uiso   1.00
N365   N     0.75898   0.39986   0.03844   0.00000  Uiso   1.00
N366   N     0.61752   0.10000   0.23695   0.00000  Uiso   1.00
N367   N     0.99215   0.10003   0.20695   0.00000  Uiso   1.00
N368   N     0.75898   0.10012   0.03844   0.00000  Uiso   1.00
