data_job_06333
_audit_creation_date              2018-12-19
_audit_creation_method            'Materials Studio'
_symmetry_space_group_name_H-M    'P1'
_symmetry_Int_Tables_number       1
_symmetry_cell_setting            triclinic
loop_
_symmetry_equiv_pos_as_xyz
  x,y,z
_cell_length_a                    16.5953
_cell_length_b                    16.0691
_cell_length_c                    15.7894
_cell_angle_alpha                 85.7847
_cell_angle_beta                  85.5944
_cell_angle_gamma                 85.9132
loop_
_atom_site_label
_atom_site_type_symbol
_atom_site_fract_x
_atom_site_fract_y
_atom_site_fract_z
_atom_site_U_iso_or_equiv
_atom_site_adp_type
_atom_site_occupancy
C1     C     0.54395   0.92311   0.71527   0.00000  Uiso   1.00
C2     C     0.58834   0.91806   0.79674   0.00000  Uiso   1.00
C3     C     0.62557   0.84621   0.83461   0.00000  Uiso   1.00
C4     C     0.66295   0.85462   0.90894   0.00000  Uiso   1.00
C5     C     0.73182   0.83498   0.03011   0.00000  Uiso   1.00
C6     C     0.45882   0.96064   0.73849   0.00000  Uiso   1.00
C7     C     0.38715   0.92459   0.72738   0.00000  Uiso   1.00
C8     C     0.31550   0.96886   0.75267   0.00000  Uiso   1.00
C9     C     0.18329   0.01534   0.78336   0.00000  Uiso   1.00
C10    C     0.58481   0.98844   0.65491   0.00000  Uiso   1.00
C11    C     0.61905   0.97578   0.57351   0.00000  Uiso   1.00
C12    C     0.65345   0.04346   0.52842   0.00000  Uiso   1.00
C13    C     0.71685   0.13312   0.42933   0.00000  Uiso   1.00
C14    C     0.54413   0.06583   0.77994   0.00000  Uiso   1.00
C15    C     0.58844   0.99558   0.83186   0.00000  Uiso   1.00
C16    C     0.62577   0.00411   0.90615   0.00000  Uiso   1.00
C17    C     0.66305   0.93228   0.94413   0.00000  Uiso   1.00
C18    C     0.45892   0.03815   0.77362   0.00000  Uiso   1.00
C19    C     0.38735   0.08249   0.79892   0.00000  Uiso   1.00
C20    C     0.31560   0.04652   0.78786   0.00000  Uiso   1.00
C21    C     0.58491   0.06596   0.69003   0.00000  Uiso   1.00
C22    C     0.61925   0.13368   0.64506   0.00000  Uiso   1.00
C23    C     0.65354   0.12112   0.56360   0.00000  Uiso   1.00
H24    H     0.54387   0.86276   0.68793   0.00000  Uiso   1.00
H25    H     0.62548   0.78623   0.80741   0.00000  Uiso   1.00
H26    H     0.38710   0.86460   0.70019   0.00000  Uiso   1.00
H27    H     0.61897   0.91578   0.54635   0.00000  Uiso   1.00
H28    H     0.71597   0.73555   0.95539   0.00000  Uiso   1.00
H29    H     0.21334   0.90082   0.72928   0.00000  Uiso   1.00
H30    H     0.70226   0.00875   0.40487   0.00000  Uiso   1.00
H31    H     0.54420   0.12619   0.80728   0.00000  Uiso   1.00
H32    H     0.62583   0.06411   0.93332   0.00000  Uiso   1.00
H33    H     0.38745   0.14248   0.82610   0.00000  Uiso   1.00
H34    H     0.61932   0.19366   0.67226   0.00000  Uiso   1.00
H35    H     0.71625   0.96109   0.05758   0.00000  Uiso   1.00
H36    H     0.21362   0.12636   0.83147   0.00000  Uiso   1.00
H37    H     0.70255   0.23429   0.50706   0.00000  Uiso   1.00
O38    O     0.76977   0.80273   0.08725   0.00000  Uiso   1.00
O39    O     0.11034   0.01956   0.79059   0.00000  Uiso   1.00
O40    O     0.75181   0.16115   0.36498   0.00000  Uiso   1.00
N41    N     0.70484   0.79716   0.96213   0.00000  Uiso   1.00
N42    N     0.23491   0.95167   0.75075   0.00000  Uiso   1.00
N43    N     0.69200   0.05258   0.44744   0.00000  Uiso   1.00
N44    N     0.70500   0.91852   0.01712   0.00000  Uiso   1.00
N45    N     0.23507   0.07303   0.80574   0.00000  Uiso   1.00
N46    N     0.69216   0.17394   0.50243   0.00000  Uiso   1.00
C47    C     0.71727   0.54635   0.92117   0.00000  Uiso   1.00
C48    C     0.79505   0.59219   0.91568   0.00000  Uiso   1.00
C49    C     0.83127   0.63077   0.84238   0.00000  Uiso   1.00
C50    C     0.90224   0.66934   0.85064   0.00000  Uiso   1.00
C51    C     0.01795   0.74050   0.83014   0.00000  Uiso   1.00
C52    C     0.73889   0.45839   0.95933   0.00000  Uiso   1.00
C53    C     0.72788   0.38447   0.92273   0.00000  Uiso   1.00
C54    C     0.75156   0.31041   0.96775   0.00000  Uiso   1.00
C55    C     0.78002   0.17384   0.01504   0.00000  Uiso   1.00
C56    C     0.66010   0.58839   0.98786   0.00000  Uiso   1.00
C57    C     0.58282   0.62376   0.97526   0.00000  Uiso   1.00
C58    C     0.54014   0.65913   0.04429   0.00000  Uiso   1.00
C59    C     0.44626   0.72440   0.13587   0.00000  Uiso   1.00
C60    C     0.77889   0.54625   0.06618   0.00000  Uiso   1.00
C61    C     0.82852   0.59213   0.99445   0.00000  Uiso   1.00
C62    C     0.89945   0.63066   0.00283   0.00000  Uiso   1.00
C63    C     0.93577   0.66929   0.92955   0.00000  Uiso   1.00
C64    C     0.77236   0.45833   0.03810   0.00000  Uiso   1.00
C65    C     0.79606   0.38436   0.08318   0.00000  Uiso   1.00
C66    C     0.78509   0.31036   0.04665   0.00000  Uiso   1.00
C67    C     0.69356   0.58834   0.06663   0.00000  Uiso   1.00
C68    C     0.65100   0.62365   0.13570   0.00000  Uiso   1.00
C69    C     0.57367   0.65907   0.12320   0.00000  Uiso   1.00
H70    H     0.69121   0.54639   0.85984   0.00000  Uiso   1.00
H71    H     0.80535   0.63079   0.78144   0.00000  Uiso   1.00
H72    H     0.70197   0.38454   0.86178   0.00000  Uiso   1.00
H73    H     0.55693   0.62379   0.91429   0.00000  Uiso   1.00
H74    H     0.94668   0.72432   0.72924   0.00000  Uiso   1.00
H75    H     0.72867   0.20508   0.89866   0.00000  Uiso   1.00
H76    H     0.42282   0.70959   0.00939   0.00000  Uiso   1.00
H77    H     0.80495   0.54620   0.12751   0.00000  Uiso   1.00
H78    H     0.92534   0.63061   0.06379   0.00000  Uiso   1.00
H79    H     0.82195   0.38434   0.14413   0.00000  Uiso   1.00
H80    H     0.67692   0.62360   0.19664   0.00000  Uiso   1.00
H81    H     0.04407   0.72417   0.95841   0.00000  Uiso   1.00
H82    H     0.82605   0.20492   0.12783   0.00000  Uiso   1.00
H83    H     0.52021   0.70943   0.23856   0.00000  Uiso   1.00
O84    O     0.07253   0.77975   0.79707   0.00000  Uiso   1.00
O85    O     0.78649   0.09852   0.01935   0.00000  Uiso   1.00
O86    O     0.38523   0.76042   0.16463   0.00000  Uiso   1.00
N87    N     0.95307   0.71272   0.79192   0.00000  Uiso   1.00
N88    N     0.74925   0.22725   0.95032   0.00000  Uiso   1.00
N89    N     0.46330   0.69891   0.05384   0.00000  Uiso   1.00
N90    N     0.00547   0.71264   0.91523   0.00000  Uiso   1.00
N91    N     0.80165   0.22717   0.07363   0.00000  Uiso   1.00
N92    N     0.51571   0.69882   0.17716   0.00000  Uiso   1.00
C93    C     0.92665   0.71617   0.54820   0.00000  Uiso   1.00
C94    C     0.92191   0.79638   0.59482   0.00000  Uiso   1.00
C95    C     0.85239   0.83369   0.63434   0.00000  Uiso   1.00
C96    C     0.86068   0.90687   0.67352   0.00000  Uiso   1.00
C97    C     0.84188   0.02618   0.74593   0.00000  Uiso   1.00
C98    C     0.96305   0.73868   0.45851   0.00000  Uiso   1.00
C99    C     0.92812   0.72746   0.38343   0.00000  Uiso   1.00
C100   C     0.97105   0.75206   0.30786   0.00000  Uiso   1.00
C101   C     0.01615   0.78172   0.16865   0.00000  Uiso   1.00
C102   C     0.98982   0.65707   0.59077   0.00000  Uiso   1.00
C103   C     0.97739   0.57722   0.62688   0.00000  Uiso   1.00
C104   C     0.04287   0.53310   0.66265   0.00000  Uiso   1.00
C105   C     0.12951   0.43605   0.72880   0.00000  Uiso   1.00
C106   C     0.06502   0.77980   0.54750   0.00000  Uiso   1.00
C107   C     0.99707   0.83094   0.59444   0.00000  Uiso   1.00
C108   C     0.00548   0.90408   0.63357   0.00000  Uiso   1.00
C109   C     0.93597   0.94149   0.67314   0.00000  Uiso   1.00
C110   C     0.03821   0.77324   0.45813   0.00000  Uiso   1.00
C111   C     0.08121   0.79785   0.38266   0.00000  Uiso   1.00
C112   C     0.04634   0.78668   0.30748   0.00000  Uiso   1.00
C113   C     0.06498   0.69163   0.59040   0.00000  Uiso   1.00
C114   C     0.13048   0.64762   0.62611   0.00000  Uiso   1.00
C115   C     0.11816   0.56772   0.66227   0.00000  Uiso   1.00
H116   H     0.86814   0.68927   0.54849   0.00000  Uiso   1.00
H117   H     0.79423   0.80693   0.63461   0.00000  Uiso   1.00
H118   H     0.86996   0.70070   0.38374   0.00000  Uiso   1.00
H119   H     0.91922   0.55049   0.62716   0.00000  Uiso   1.00
H120   H     0.74543   0.95263   0.72991   0.00000  Uiso   1.00
H121   H     0.90511   0.72863   0.20093   0.00000  Uiso   1.00
H122   H     0.00900   0.41187   0.71422   0.00000  Uiso   1.00
H123   H     0.12354   0.80671   0.54721   0.00000  Uiso   1.00
H124   H     0.06365   0.93081   0.63327   0.00000  Uiso   1.00
H125   H     0.13937   0.82459   0.38239   0.00000  Uiso   1.00
H126   H     0.18864   0.67438   0.62581   0.00000  Uiso   1.00
H127   H     0.96409   0.05319   0.72881   0.00000  Uiso   1.00
H128   H     0.12378   0.82918   0.19983   0.00000  Uiso   1.00
H129   H     0.22766   0.51243   0.71312   0.00000  Uiso   1.00
O130   O     0.81075   0.08245   0.78597   0.00000  Uiso   1.00
O131   O     0.02025   0.78855   0.09197   0.00000  Uiso   1.00
O132   O     0.15654   0.37298   0.76540   0.00000  Uiso   1.00
N133   N     0.80511   0.95926   0.71785   0.00000  Uiso   1.00
N134   N     0.95440   0.74984   0.22329   0.00000  Uiso   1.00
N135   N     0.05153   0.45369   0.70315   0.00000  Uiso   1.00
N136   N     0.92278   0.01336   0.71726   0.00000  Uiso   1.00
N137   N     0.07207   0.80395   0.22270   0.00000  Uiso   1.00
N138   N     0.16920   0.50780   0.70256   0.00000  Uiso   1.00
C139   C     0.45605   0.07689   0.28473   0.00000  Uiso   1.00
C140   C     0.41166   0.08194   0.20326   0.00000  Uiso   1.00
C141   C     0.37443   0.15379   0.16539   0.00000  Uiso   1.00
C142   C     0.33705   0.14538   0.09106   0.00000  Uiso   1.00
C143   C     0.26818   0.16502   0.96989   0.00000  Uiso   1.00
C144   C     0.54118   0.03936   0.26151   0.00000  Uiso   1.00
C145   C     0.61285   0.07541   0.27262   0.00000  Uiso   1.00
C146   C     0.68450   0.03114   0.24733   0.00000  Uiso   1.00
C147   C     0.81671   0.98466   0.21664   0.00000  Uiso   1.00
C148   C     0.41519   0.01156   0.34509   0.00000  Uiso   1.00
C149   C     0.38095   0.02422   0.42649   0.00000  Uiso   1.00
C150   C     0.34655   0.95654   0.47158   0.00000  Uiso   1.00
C151   C     0.28315   0.86688   0.57067   0.00000  Uiso   1.00
C152   C     0.45587   0.93417   0.22006   0.00000  Uiso   1.00
C153   C     0.41156   0.00442   0.16814   0.00000  Uiso   1.00
C154   C     0.37423   0.99589   0.09385   0.00000  Uiso   1.00
C155   C     0.33695   0.06772   0.05587   0.00000  Uiso   1.00
C156   C     0.54108   0.96185   0.22638   0.00000  Uiso   1.00
C157   C     0.61265   0.91751   0.20108   0.00000  Uiso   1.00
C158   C     0.68440   0.95348   0.21214   0.00000  Uiso   1.00
C159   C     0.41509   0.93404   0.30997   0.00000  Uiso   1.00
C160   C     0.38075   0.86632   0.35494   0.00000  Uiso   1.00
C161   C     0.34646   0.87888   0.43640   0.00000  Uiso   1.00
H162   H     0.45613   0.13724   0.31207   0.00000  Uiso   1.00
H163   H     0.37452   0.21377   0.19259   0.00000  Uiso   1.00
H164   H     0.61290   0.13540   0.29981   0.00000  Uiso   1.00
H165   H     0.38103   0.08422   0.45365   0.00000  Uiso   1.00
H166   H     0.28403   0.26445   0.04461   0.00000  Uiso   1.00
H167   H     0.78666   0.09918   0.27072   0.00000  Uiso   1.00
H168   H     0.29774   0.99125   0.59513   0.00000  Uiso   1.00
H169   H     0.45580   0.87381   0.19272   0.00000  Uiso   1.00
H170   H     0.37417   0.93589   0.06668   0.00000  Uiso   1.00
H171   H     0.61255   0.85752   0.17390   0.00000  Uiso   1.00
H172   H     0.38069   0.80634   0.32774   0.00000  Uiso   1.00
H173   H     0.28375   0.03891   0.94242   0.00000  Uiso   1.00
H174   H     0.78638   0.87364   0.16853   0.00000  Uiso   1.00
H175   H     0.29745   0.76571   0.49294   0.00000  Uiso   1.00
O176   O     0.23023   0.19727   0.91275   0.00000  Uiso   1.00
O177   O     0.88966   0.98044   0.20941   0.00000  Uiso   1.00
O178   O     0.24819   0.83885   0.63502   0.00000  Uiso   1.00
N179   N     0.29516   0.20284   0.03787   0.00000  Uiso   1.00
N180   N     0.76509   0.04833   0.24925   0.00000  Uiso   1.00
N181   N     0.30800   0.94742   0.55256   0.00000  Uiso   1.00
N182   N     0.29500   0.08148   0.98288   0.00000  Uiso   1.00
N183   N     0.76493   0.92697   0.19426   0.00000  Uiso   1.00
N184   N     0.30784   0.82606   0.49757   0.00000  Uiso   1.00
C185   C     0.28273   0.45365   0.07883   0.00000  Uiso   1.00
C186   C     0.20495   0.40781   0.08432   0.00000  Uiso   1.00
C187   C     0.16873   0.36923   0.15762   0.00000  Uiso   1.00
C188   C     0.09776   0.33066   0.14936   0.00000  Uiso   1.00
C189   C     0.98205   0.25950   0.16986   0.00000  Uiso   1.00
C190   C     0.26111   0.54161   0.04067   0.00000  Uiso   1.00
C191   C     0.27212   0.61552   0.07727   0.00000  Uiso   1.00
C192   C     0.24844   0.68959   0.03225   0.00000  Uiso   1.00
C193   C     0.21998   0.82616   0.98496   0.00000  Uiso   1.00
C194   C     0.33990   0.41161   0.01214   0.00000  Uiso   1.00
C195   C     0.41718   0.37624   0.02475   0.00000  Uiso   1.00
C196   C     0.45986   0.34087   0.95571   0.00000  Uiso   1.00
C197   C     0.55374   0.27560   0.86413   0.00000  Uiso   1.00
C198   C     0.22111   0.45375   0.93382   0.00000  Uiso   1.00
C199   C     0.17148   0.40787   0.00555   0.00000  Uiso   1.00
C200   C     0.10055   0.36934   0.99717   0.00000  Uiso   1.00
C201   C     0.06423   0.33071   0.07045   0.00000  Uiso   1.00
C202   C     0.22764   0.54167   0.96190   0.00000  Uiso   1.00
C203   C     0.20394   0.61564   0.91682   0.00000  Uiso   1.00
C204   C     0.21491   0.68964   0.95335   0.00000  Uiso   1.00
C205   C     0.30644   0.41166   0.93337   0.00000  Uiso   1.00
C206   C     0.34900   0.37635   0.86430   0.00000  Uiso   1.00
C207   C     0.42633   0.34093   0.87680   0.00000  Uiso   1.00
H208   H     0.30879   0.45361   0.14016   0.00000  Uiso   1.00
H209   H     0.19465   0.36921   0.21856   0.00000  Uiso   1.00
H210   H     0.29803   0.61546   0.13822   0.00000  Uiso   1.00
H211   H     0.44306   0.37621   0.08571   0.00000  Uiso   1.00
H212   H     0.05332   0.27568   0.27076   0.00000  Uiso   1.00
H213   H     0.27133   0.79492   0.10134   0.00000  Uiso   1.00
H214   H     0.57718   0.29041   0.99061   0.00000  Uiso   1.00
H215   H     0.19505   0.45380   0.87249   0.00000  Uiso   1.00
H216   H     0.07466   0.36939   0.93621   0.00000  Uiso   1.00
H217   H     0.17805   0.61566   0.85587   0.00000  Uiso   1.00
H218   H     0.32308   0.37640   0.80336   0.00000  Uiso   1.00
H219   H     0.95593   0.27583   0.04159   0.00000  Uiso   1.00
H220   H     0.17395   0.79508   0.87217   0.00000  Uiso   1.00
H221   H     0.47979   0.29057   0.76144   0.00000  Uiso   1.00
O222   O     0.92747   0.22025   0.20293   0.00000  Uiso   1.00
O223   O     0.21351   0.90148   0.98065   0.00000  Uiso   1.00
O224   O     0.61477   0.23958   0.83537   0.00000  Uiso   1.00
N225   N     0.04693   0.28728   0.20808   0.00000  Uiso   1.00
N226   N     0.25075   0.77275   0.04968   0.00000  Uiso   1.00
N227   N     0.53670   0.30109   0.94616   0.00000  Uiso   1.00
N228   N     0.99453   0.28736   0.08477   0.00000  Uiso   1.00
N229   N     0.19835   0.77283   0.92637   0.00000  Uiso   1.00
N230   N     0.48429   0.30118   0.82284   0.00000  Uiso   1.00
C231   C     0.07335   0.28383   0.45180   0.00000  Uiso   1.00
C232   C     0.07809   0.20362   0.40518   0.00000  Uiso   1.00
C233   C     0.14761   0.16631   0.36566   0.00000  Uiso   1.00
C234   C     0.13932   0.09313   0.32648   0.00000  Uiso   1.00
C235   C     0.15812   0.97382   0.25407   0.00000  Uiso   1.00
C236   C     0.03695   0.26132   0.54149   0.00000  Uiso   1.00
C237   C     0.07188   0.27254   0.61657   0.00000  Uiso   1.00
C238   C     0.02895   0.24794   0.69214   0.00000  Uiso   1.00
C239   C     0.98385   0.21828   0.83135   0.00000  Uiso   1.00
C240   C     0.01018   0.34293   0.40923   0.00000  Uiso   1.00
C241   C     0.02261   0.42278   0.37312   0.00000  Uiso   1.00
C242   C     0.95713   0.46690   0.33735   0.00000  Uiso   1.00
C243   C     0.87048   0.56395   0.27120   0.00000  Uiso   1.00
C244   C     0.93498   0.22020   0.45250   0.00000  Uiso   1.00
C245   C     0.00293   0.16906   0.40556   0.00000  Uiso   1.00
C246   C     0.99452   0.09592   0.36643   0.00000  Uiso   1.00
C247   C     0.06403   0.05851   0.32686   0.00000  Uiso   1.00
C248   C     0.96179   0.22676   0.54187   0.00000  Uiso   1.00
C249   C     0.91879   0.20215   0.61734   0.00000  Uiso   1.00
C250   C     0.95366   0.21332   0.69252   0.00000  Uiso   1.00
C251   C     0.93502   0.30837   0.40960   0.00000  Uiso   1.00
C252   C     0.86952   0.35238   0.37389   0.00000  Uiso   1.00
C253   C     0.88184   0.43228   0.33773   0.00000  Uiso   1.00
H254   H     0.13186   0.31073   0.45151   0.00000  Uiso   1.00
H255   H     0.20577   0.19307   0.36539   0.00000  Uiso   1.00
H256   H     0.13004   0.29930   0.61626   0.00000  Uiso   1.00
H257   H     0.08078   0.44951   0.37284   0.00000  Uiso   1.00
H258   H     0.25457   0.04737   0.27009   0.00000  Uiso   1.00
H259   H     0.09489   0.27137   0.79907   0.00000  Uiso   1.00
H260   H     0.99100   0.58812   0.28578   0.00000  Uiso   1.00
H261   H     0.87646   0.19329   0.45279   0.00000  Uiso   1.00
H262   H     0.93635   0.06919   0.36673   0.00000  Uiso   1.00
H263   H     0.86063   0.17541   0.61761   0.00000  Uiso   1.00
H264   H     0.81137   0.32562   0.37419   0.00000  Uiso   1.00
H265   H     0.03591   0.94681   0.27119   0.00000  Uiso   1.00
H266   H     0.87622   0.17082   0.80017   0.00000  Uiso   1.00
H267   H     0.77234   0.48757   0.28688   0.00000  Uiso   1.00
O268   O     0.18925   0.91755   0.21403   0.00000  Uiso   1.00
O269   O     0.97975   0.21145   0.90803   0.00000  Uiso   1.00
O270   O     0.84345   0.62702   0.23460   0.00000  Uiso   1.00
N271   N     0.19489   0.04074   0.28215   0.00000  Uiso   1.00
N272   N     0.04560   0.25016   0.77671   0.00000  Uiso   1.00
N273   N     0.94847   0.54631   0.29685   0.00000  Uiso   1.00
N274   N     0.07722   0.98664   0.28274   0.00000  Uiso   1.00
N275   N     0.92793   0.19605   0.77730   0.00000  Uiso   1.00
N276   N     0.83080   0.49220   0.29744   0.00000  Uiso   1.00
