data_job_03167
_audit_creation_date              2018-12-19
_audit_creation_method            'Materials Studio'
_symmetry_space_group_name_H-M    'P1'
_symmetry_Int_Tables_number       1
_symmetry_cell_setting            triclinic
loop_
_symmetry_equiv_pos_as_xyz
  x,y,z
_cell_length_a                    15.4182
_cell_length_b                    17.3847
_cell_length_c                    32.5350
_cell_angle_alpha                 90.0000
_cell_angle_beta                  122.0979
_cell_angle_gamma                 90.0000
loop_
_atom_site_label
_atom_site_type_symbol
_atom_site_fract_x
_atom_site_fract_y
_atom_site_fract_z
_atom_site_U_iso_or_equiv
_atom_site_adp_type
_atom_site_occupancy
C1     C     0.49062   0.05253   0.85103   0.00000  Uiso   1.00
C2     C     0.42967   0.99560   0.80974   0.00000  Uiso   1.00
C3     C     0.39995   0.00643   0.76171   0.00000  Uiso   1.00
C4     C     0.34459   0.94751   0.72945   0.00000  Uiso   1.00
C5     C     0.25366   0.86937   0.66301   0.00000  Uiso   1.00
C6     C     0.42602   0.06801   0.87291   0.00000  Uiso   1.00
C7     C     0.39324   0.13972   0.87801   0.00000  Uiso   1.00
C8     C     0.33482   0.14175   0.89893   0.00000  Uiso   1.00
C9     C     0.23828   0.17603   0.93061   0.00000  Uiso   1.00
C10    C     0.58501   0.00907   0.88968   0.00000  Uiso   1.00
C11    C     0.68591   0.03124   0.90889   0.00000  Uiso   1.00
C12    C     0.76135   0.98365   0.94394   0.00000  Uiso   1.00
C13    C     0.91167   0.92642   0.00165   0.00000  Uiso   1.00
C14    C     0.44516   0.92863   0.87913   0.00000  Uiso   1.00
C15    C     0.40498   0.92831   0.82500   0.00000  Uiso   1.00
C16    C     0.34965   0.86935   0.79280   0.00000  Uiso   1.00
C17    C     0.31985   0.88009   0.74474   0.00000  Uiso   1.00
C18    C     0.40133   0.00072   0.88818   0.00000  Uiso   1.00
C19    C     0.34294   0.00264   0.90910   0.00000  Uiso   1.00
C20    C     0.31008   0.07433   0.91423   0.00000  Uiso   1.00
C21    C     0.56032   0.94177   0.90495   0.00000  Uiso   1.00
C22    C     0.63561   0.89415   0.93998   0.00000  Uiso   1.00
C23    C     0.73661   0.91623   0.95923   0.00000  Uiso   1.00
H24    H     0.50984   0.10492   0.83915   0.00000  Uiso   1.00
H25    H     0.41907   0.05852   0.74991   0.00000  Uiso   1.00
H26    H     0.41237   0.19179   0.86620   0.00000  Uiso   1.00
H27    H     0.70499   0.08332   0.89707   0.00000  Uiso   1.00
H28    H     0.30750   0.97741   0.65771   0.00000  Uiso   1.00
H29    H     0.29341   0.25841   0.90292   0.00000  Uiso   1.00
H30    H     0.91046   0.02968   0.96802   0.00000  Uiso   1.00
H31    H     0.42594   0.87624   0.89101   0.00000  Uiso   1.00
H32    H     0.33055   0.81728   0.80463   0.00000  Uiso   1.00
H33    H     0.32386   0.95055   0.92091   0.00000  Uiso   1.00
H34    H     0.61648   0.84208   0.95178   0.00000  Uiso   1.00
H35    H     0.23565   0.78161   0.70212   0.00000  Uiso   1.00
H36    H     0.22157   0.06262   0.94733   0.00000  Uiso   1.00
H37    H     0.83862   0.83388   0.01242   0.00000  Uiso   1.00
O38    O     0.21031   0.84486   0.62215   0.00000  Uiso   1.00
O39    O     0.19185   0.21353   0.94386   0.00000  Uiso   1.00
O40    O     0.00140   0.91344   0.02927   0.00000  Uiso   1.00
N41    N     0.30370   0.93941   0.68002   0.00000  Uiso   1.00
N42    N     0.29051   0.20213   0.90927   0.00000  Uiso   1.00
N43    N     0.86740   0.98830   0.97014   0.00000  Uiso   1.00
N44    N     0.26504   0.83405   0.70392   0.00000  Uiso   1.00
N45    N     0.25185   0.09678   0.93316   0.00000  Uiso   1.00
N46    N     0.82874   0.88294   0.99403   0.00000  Uiso   1.00
C47    C     0.99062   0.55253   0.85103   0.00000  Uiso   1.00
C48    C     0.92967   0.49560   0.80974   0.00000  Uiso   1.00
C49    C     0.89995   0.50643   0.76171   0.00000  Uiso   1.00
C50    C     0.84459   0.44751   0.72945   0.00000  Uiso   1.00
C51    C     0.75366   0.36937   0.66301   0.00000  Uiso   1.00
C52    C     0.92602   0.56801   0.87291   0.00000  Uiso   1.00
C53    C     0.89324   0.63972   0.87801   0.00000  Uiso   1.00
C54    C     0.83482   0.64175   0.89893   0.00000  Uiso   1.00
C55    C     0.73828   0.67603   0.93061   0.00000  Uiso   1.00
C56    C     0.08501   0.50907   0.88968   0.00000  Uiso   1.00
C57    C     0.18591   0.53124   0.90889   0.00000  Uiso   1.00
C58    C     0.26135   0.48365   0.94394   0.00000  Uiso   1.00
C59    C     0.41167   0.42642   0.00165   0.00000  Uiso   1.00
C60    C     0.94516   0.42863   0.87913   0.00000  Uiso   1.00
C61    C     0.90498   0.42831   0.82500   0.00000  Uiso   1.00
C62    C     0.84965   0.36935   0.79280   0.00000  Uiso   1.00
C63    C     0.81985   0.38009   0.74474   0.00000  Uiso   1.00
C64    C     0.90133   0.50072   0.88818   0.00000  Uiso   1.00
C65    C     0.84294   0.50264   0.90910   0.00000  Uiso   1.00
C66    C     0.81008   0.57433   0.91423   0.00000  Uiso   1.00
C67    C     0.06032   0.44177   0.90495   0.00000  Uiso   1.00
C68    C     0.13561   0.39415   0.93998   0.00000  Uiso   1.00
C69    C     0.23661   0.41623   0.95923   0.00000  Uiso   1.00
H70    H     0.00984   0.60492   0.83915   0.00000  Uiso   1.00
H71    H     0.91907   0.55852   0.74991   0.00000  Uiso   1.00
H72    H     0.91237   0.69179   0.86620   0.00000  Uiso   1.00
H73    H     0.20499   0.58332   0.89707   0.00000  Uiso   1.00
H74    H     0.80750   0.47741   0.65771   0.00000  Uiso   1.00
H75    H     0.79341   0.75841   0.90292   0.00000  Uiso   1.00
H76    H     0.41046   0.52968   0.96802   0.00000  Uiso   1.00
H77    H     0.92594   0.37624   0.89101   0.00000  Uiso   1.00
H78    H     0.83055   0.31728   0.80463   0.00000  Uiso   1.00
H79    H     0.82386   0.45055   0.92091   0.00000  Uiso   1.00
H80    H     0.11648   0.34208   0.95178   0.00000  Uiso   1.00
H81    H     0.73565   0.28161   0.70212   0.00000  Uiso   1.00
H82    H     0.72157   0.56262   0.94733   0.00000  Uiso   1.00
H83    H     0.33862   0.33388   0.01242   0.00000  Uiso   1.00
O84    O     0.71031   0.34486   0.62215   0.00000  Uiso   1.00
O85    O     0.69185   0.71353   0.94386   0.00000  Uiso   1.00
O86    O     0.50140   0.41344   0.02927   0.00000  Uiso   1.00
N87    N     0.80370   0.43941   0.68002   0.00000  Uiso   1.00
N88    N     0.79051   0.70213   0.90927   0.00000  Uiso   1.00
N89    N     0.36740   0.48830   0.97014   0.00000  Uiso   1.00
N90    N     0.76504   0.33405   0.70392   0.00000  Uiso   1.00
N91    N     0.75185   0.59678   0.93316   0.00000  Uiso   1.00
N92    N     0.32874   0.38294   0.99403   0.00000  Uiso   1.00
C93    C     0.50938   0.05253   0.64897   0.00000  Uiso   1.00
C94    C     0.57033   0.99560   0.69026   0.00000  Uiso   1.00
C95    C     0.60005   0.00643   0.73829   0.00000  Uiso   1.00
C96    C     0.65541   0.94751   0.77055   0.00000  Uiso   1.00
C97    C     0.74634   0.86937   0.83699   0.00000  Uiso   1.00
C98    C     0.57398   0.06801   0.62709   0.00000  Uiso   1.00
C99    C     0.60676   0.13972   0.62199   0.00000  Uiso   1.00
C100   C     0.66518   0.14175   0.60107   0.00000  Uiso   1.00
C101   C     0.76172   0.17603   0.56939   0.00000  Uiso   1.00
C102   C     0.41499   0.00907   0.61032   0.00000  Uiso   1.00
C103   C     0.31409   0.03124   0.59111   0.00000  Uiso   1.00
C104   C     0.23865   0.98365   0.55606   0.00000  Uiso   1.00
C105   C     0.08833   0.92642   0.49835   0.00000  Uiso   1.00
C106   C     0.55484   0.92863   0.62087   0.00000  Uiso   1.00
C107   C     0.59502   0.92831   0.67500   0.00000  Uiso   1.00
C108   C     0.65035   0.86935   0.70720   0.00000  Uiso   1.00
C109   C     0.68015   0.88009   0.75526   0.00000  Uiso   1.00
C110   C     0.59867   0.00072   0.61182   0.00000  Uiso   1.00
C111   C     0.65706   0.00264   0.59090   0.00000  Uiso   1.00
C112   C     0.68992   0.07433   0.58577   0.00000  Uiso   1.00
C113   C     0.43968   0.94177   0.59505   0.00000  Uiso   1.00
C114   C     0.36439   0.89415   0.56002   0.00000  Uiso   1.00
C115   C     0.26339   0.91623   0.54077   0.00000  Uiso   1.00
H116   H     0.49016   0.10492   0.66085   0.00000  Uiso   1.00
H117   H     0.58093   0.05852   0.75009   0.00000  Uiso   1.00
H118   H     0.58763   0.19179   0.63380   0.00000  Uiso   1.00
H119   H     0.29501   0.08332   0.60293   0.00000  Uiso   1.00
H120   H     0.69250   0.97741   0.84229   0.00000  Uiso   1.00
H121   H     0.70659   0.25841   0.59708   0.00000  Uiso   1.00
H122   H     0.08954   0.02968   0.53198   0.00000  Uiso   1.00
H123   H     0.57406   0.87624   0.60899   0.00000  Uiso   1.00
H124   H     0.66945   0.81728   0.69537   0.00000  Uiso   1.00
H125   H     0.67614   0.95055   0.57909   0.00000  Uiso   1.00
H126   H     0.38352   0.84208   0.54822   0.00000  Uiso   1.00
H127   H     0.76435   0.78161   0.79788   0.00000  Uiso   1.00
H128   H     0.77843   0.06262   0.55267   0.00000  Uiso   1.00
H129   H     0.16138   0.83388   0.48758   0.00000  Uiso   1.00
O130   O     0.78969   0.84486   0.87785   0.00000  Uiso   1.00
O131   O     0.80815   0.21353   0.55614   0.00000  Uiso   1.00
O132   O     0.99860   0.91344   0.47073   0.00000  Uiso   1.00
N133   N     0.69630   0.93941   0.81998   0.00000  Uiso   1.00
N134   N     0.70949   0.20213   0.59073   0.00000  Uiso   1.00
N135   N     0.13260   0.98830   0.52986   0.00000  Uiso   1.00
N136   N     0.73496   0.83405   0.79608   0.00000  Uiso   1.00
N137   N     0.74815   0.09678   0.56684   0.00000  Uiso   1.00
N138   N     0.17126   0.88294   0.50597   0.00000  Uiso   1.00
C139   C     0.00938   0.55253   0.64897   0.00000  Uiso   1.00
C140   C     0.07033   0.49560   0.69026   0.00000  Uiso   1.00
C141   C     0.10005   0.50643   0.73829   0.00000  Uiso   1.00
C142   C     0.15541   0.44751   0.77055   0.00000  Uiso   1.00
C143   C     0.24634   0.36937   0.83699   0.00000  Uiso   1.00
C144   C     0.07398   0.56801   0.62709   0.00000  Uiso   1.00
C145   C     0.10676   0.63972   0.62199   0.00000  Uiso   1.00
C146   C     0.16518   0.64175   0.60107   0.00000  Uiso   1.00
C147   C     0.26172   0.67603   0.56939   0.00000  Uiso   1.00
C148   C     0.91499   0.50907   0.61032   0.00000  Uiso   1.00
C149   C     0.81409   0.53124   0.59111   0.00000  Uiso   1.00
C150   C     0.73865   0.48365   0.55606   0.00000  Uiso   1.00
C151   C     0.58833   0.42642   0.49835   0.00000  Uiso   1.00
C152   C     0.05484   0.42863   0.62087   0.00000  Uiso   1.00
C153   C     0.09502   0.42831   0.67500   0.00000  Uiso   1.00
C154   C     0.15035   0.36935   0.70720   0.00000  Uiso   1.00
C155   C     0.18015   0.38009   0.75526   0.00000  Uiso   1.00
C156   C     0.09867   0.50072   0.61182   0.00000  Uiso   1.00
C157   C     0.15706   0.50264   0.59090   0.00000  Uiso   1.00
C158   C     0.18992   0.57433   0.58577   0.00000  Uiso   1.00
C159   C     0.93968   0.44177   0.59505   0.00000  Uiso   1.00
C160   C     0.86439   0.39415   0.56002   0.00000  Uiso   1.00
C161   C     0.76339   0.41623   0.54077   0.00000  Uiso   1.00
H162   H     0.99016   0.60492   0.66085   0.00000  Uiso   1.00
H163   H     0.08093   0.55852   0.75009   0.00000  Uiso   1.00
H164   H     0.08763   0.69179   0.63380   0.00000  Uiso   1.00
H165   H     0.79501   0.58332   0.60293   0.00000  Uiso   1.00
H166   H     0.19250   0.47741   0.84229   0.00000  Uiso   1.00
H167   H     0.20659   0.75841   0.59708   0.00000  Uiso   1.00
H168   H     0.58954   0.52968   0.53198   0.00000  Uiso   1.00
H169   H     0.07406   0.37624   0.60899   0.00000  Uiso   1.00
H170   H     0.16945   0.31728   0.69537   0.00000  Uiso   1.00
H171   H     0.17614   0.45055   0.57909   0.00000  Uiso   1.00
H172   H     0.88352   0.34208   0.54822   0.00000  Uiso   1.00
H173   H     0.26435   0.28161   0.79788   0.00000  Uiso   1.00
H174   H     0.27843   0.56262   0.55267   0.00000  Uiso   1.00
H175   H     0.66138   0.33388   0.48758   0.00000  Uiso   1.00
O176   O     0.28969   0.34486   0.87785   0.00000  Uiso   1.00
O177   O     0.30815   0.71353   0.55614   0.00000  Uiso   1.00
O178   O     0.49860   0.41344   0.47073   0.00000  Uiso   1.00
N179   N     0.19630   0.43941   0.81998   0.00000  Uiso   1.00
N180   N     0.20949   0.70213   0.59073   0.00000  Uiso   1.00
N181   N     0.63260   0.48830   0.52986   0.00000  Uiso   1.00
N182   N     0.23496   0.33405   0.79608   0.00000  Uiso   1.00
N183   N     0.24815   0.59678   0.56684   0.00000  Uiso   1.00
N184   N     0.67126   0.38294   0.50597   0.00000  Uiso   1.00
C185   C     0.50938   0.94747   0.14897   0.00000  Uiso   1.00
C186   C     0.57033   0.00440   0.19026   0.00000  Uiso   1.00
C187   C     0.60005   0.99357   0.23829   0.00000  Uiso   1.00
C188   C     0.65541   0.05249   0.27055   0.00000  Uiso   1.00
C189   C     0.74634   0.13063   0.33699   0.00000  Uiso   1.00
C190   C     0.57398   0.93199   0.12709   0.00000  Uiso   1.00
C191   C     0.60676   0.86028   0.12199   0.00000  Uiso   1.00
C192   C     0.66518   0.85825   0.10107   0.00000  Uiso   1.00
C193   C     0.76172   0.82397   0.06939   0.00000  Uiso   1.00
C194   C     0.41499   0.99093   0.11032   0.00000  Uiso   1.00
C195   C     0.31409   0.96876   0.09111   0.00000  Uiso   1.00
C196   C     0.23865   0.01635   0.05606   0.00000  Uiso   1.00
C197   C     0.08833   0.07358   0.99835   0.00000  Uiso   1.00
C198   C     0.55484   0.07137   0.12087   0.00000  Uiso   1.00
C199   C     0.59502   0.07169   0.17500   0.00000  Uiso   1.00
C200   C     0.65035   0.13065   0.20720   0.00000  Uiso   1.00
C201   C     0.68015   0.11991   0.25526   0.00000  Uiso   1.00
C202   C     0.59867   0.99928   0.11182   0.00000  Uiso   1.00
C203   C     0.65706   0.99736   0.09090   0.00000  Uiso   1.00
C204   C     0.68992   0.92567   0.08577   0.00000  Uiso   1.00
C205   C     0.43968   0.05823   0.09505   0.00000  Uiso   1.00
C206   C     0.36439   0.10585   0.06002   0.00000  Uiso   1.00
C207   C     0.26339   0.08377   0.04077   0.00000  Uiso   1.00
H208   H     0.49016   0.89508   0.16085   0.00000  Uiso   1.00
H209   H     0.58093   0.94148   0.25009   0.00000  Uiso   1.00
H210   H     0.58763   0.80821   0.13380   0.00000  Uiso   1.00
H211   H     0.29501   0.91668   0.10293   0.00000  Uiso   1.00
H212   H     0.69250   0.02259   0.34229   0.00000  Uiso   1.00
H213   H     0.70659   0.74159   0.09708   0.00000  Uiso   1.00
H214   H     0.08954   0.97032   0.03198   0.00000  Uiso   1.00
H215   H     0.57406   0.12376   0.10899   0.00000  Uiso   1.00
H216   H     0.66945   0.18272   0.19537   0.00000  Uiso   1.00
H217   H     0.67614   0.04945   0.07909   0.00000  Uiso   1.00
H218   H     0.38352   0.15792   0.04822   0.00000  Uiso   1.00
H219   H     0.76435   0.21839   0.29788   0.00000  Uiso   1.00
H220   H     0.77843   0.93738   0.05267   0.00000  Uiso   1.00
H221   H     0.16138   0.16612   0.98758   0.00000  Uiso   1.00
O222   O     0.78969   0.15514   0.37785   0.00000  Uiso   1.00
O223   O     0.80815   0.78647   0.05614   0.00000  Uiso   1.00
O224   O     0.99860   0.08656   0.97073   0.00000  Uiso   1.00
N225   N     0.69630   0.06059   0.31998   0.00000  Uiso   1.00
N226   N     0.70949   0.79787   0.09073   0.00000  Uiso   1.00
N227   N     0.13260   0.01170   0.02986   0.00000  Uiso   1.00
N228   N     0.73496   0.16595   0.29608   0.00000  Uiso   1.00
N229   N     0.74815   0.90322   0.06684   0.00000  Uiso   1.00
N230   N     0.17126   0.11706   0.00597   0.00000  Uiso   1.00
C231   C     0.00938   0.44747   0.14897   0.00000  Uiso   1.00
C232   C     0.07033   0.50440   0.19026   0.00000  Uiso   1.00
C233   C     0.10005   0.49357   0.23829   0.00000  Uiso   1.00
C234   C     0.15541   0.55249   0.27055   0.00000  Uiso   1.00
C235   C     0.24634   0.63063   0.33699   0.00000  Uiso   1.00
C236   C     0.07398   0.43199   0.12709   0.00000  Uiso   1.00
C237   C     0.10676   0.36028   0.12199   0.00000  Uiso   1.00
C238   C     0.16518   0.35825   0.10107   0.00000  Uiso   1.00
C239   C     0.26172   0.32397   0.06939   0.00000  Uiso   1.00
C240   C     0.91499   0.49093   0.11032   0.00000  Uiso   1.00
C241   C     0.81409   0.46876   0.09111   0.00000  Uiso   1.00
C242   C     0.73865   0.51635   0.05606   0.00000  Uiso   1.00
C243   C     0.58833   0.57358   0.99835   0.00000  Uiso   1.00
C244   C     0.05484   0.57137   0.12087   0.00000  Uiso   1.00
C245   C     0.09502   0.57169   0.17500   0.00000  Uiso   1.00
C246   C     0.15035   0.63065   0.20720   0.00000  Uiso   1.00
C247   C     0.18015   0.61991   0.25526   0.00000  Uiso   1.00
C248   C     0.09867   0.49928   0.11182   0.00000  Uiso   1.00
C249   C     0.15706   0.49736   0.09090   0.00000  Uiso   1.00
C250   C     0.18992   0.42567   0.08577   0.00000  Uiso   1.00
C251   C     0.93968   0.55823   0.09505   0.00000  Uiso   1.00
C252   C     0.86439   0.60585   0.06002   0.00000  Uiso   1.00
C253   C     0.76339   0.58377   0.04077   0.00000  Uiso   1.00
H254   H     0.99016   0.39508   0.16085   0.00000  Uiso   1.00
H255   H     0.08093   0.44148   0.25009   0.00000  Uiso   1.00
H256   H     0.08763   0.30821   0.13380   0.00000  Uiso   1.00
H257   H     0.79501   0.41668   0.10293   0.00000  Uiso   1.00
H258   H     0.19250   0.52259   0.34229   0.00000  Uiso   1.00
H259   H     0.20659   0.24159   0.09708   0.00000  Uiso   1.00
H260   H     0.58954   0.47032   0.03198   0.00000  Uiso   1.00
H261   H     0.07406   0.62376   0.10899   0.00000  Uiso   1.00
H262   H     0.16945   0.68272   0.19537   0.00000  Uiso   1.00
H263   H     0.17614   0.54945   0.07909   0.00000  Uiso   1.00
H264   H     0.88352   0.65792   0.04822   0.00000  Uiso   1.00
H265   H     0.26435   0.71839   0.29788   0.00000  Uiso   1.00
H266   H     0.27843   0.43738   0.05267   0.00000  Uiso   1.00
H267   H     0.66138   0.66612   0.98758   0.00000  Uiso   1.00
O268   O     0.28969   0.65514   0.37785   0.00000  Uiso   1.00
O269   O     0.30815   0.28647   0.05614   0.00000  Uiso   1.00
O270   O     0.49860   0.58656   0.97073   0.00000  Uiso   1.00
N271   N     0.19630   0.56059   0.31998   0.00000  Uiso   1.00
N272   N     0.20949   0.29787   0.09073   0.00000  Uiso   1.00
N273   N     0.63260   0.51170   0.02986   0.00000  Uiso   1.00
N274   N     0.23496   0.66595   0.29608   0.00000  Uiso   1.00
N275   N     0.24815   0.40322   0.06684   0.00000  Uiso   1.00
N276   N     0.67126   0.61706   0.00597   0.00000  Uiso   1.00
C277   C     0.49062   0.94747   0.35103   0.00000  Uiso   1.00
C278   C     0.42967   0.00440   0.30974   0.00000  Uiso   1.00
C279   C     0.39995   0.99357   0.26171   0.00000  Uiso   1.00
C280   C     0.34459   0.05249   0.22945   0.00000  Uiso   1.00
C281   C     0.25366   0.13063   0.16301   0.00000  Uiso   1.00
C282   C     0.42602   0.93199   0.37291   0.00000  Uiso   1.00
C283   C     0.39324   0.86028   0.37801   0.00000  Uiso   1.00
C284   C     0.33482   0.85825   0.39893   0.00000  Uiso   1.00
C285   C     0.23828   0.82397   0.43061   0.00000  Uiso   1.00
C286   C     0.58501   0.99093   0.38968   0.00000  Uiso   1.00
C287   C     0.68591   0.96876   0.40889   0.00000  Uiso   1.00
C288   C     0.76135   0.01635   0.44394   0.00000  Uiso   1.00
C289   C     0.91167   0.07358   0.50165   0.00000  Uiso   1.00
C290   C     0.44516   0.07137   0.37913   0.00000  Uiso   1.00
C291   C     0.40498   0.07169   0.32500   0.00000  Uiso   1.00
C292   C     0.34965   0.13065   0.29280   0.00000  Uiso   1.00
C293   C     0.31985   0.11991   0.24474   0.00000  Uiso   1.00
C294   C     0.40133   0.99928   0.38818   0.00000  Uiso   1.00
C295   C     0.34294   0.99736   0.40910   0.00000  Uiso   1.00
C296   C     0.31008   0.92567   0.41423   0.00000  Uiso   1.00
C297   C     0.56032   0.05823   0.40495   0.00000  Uiso   1.00
C298   C     0.63561   0.10585   0.43998   0.00000  Uiso   1.00
C299   C     0.73661   0.08377   0.45923   0.00000  Uiso   1.00
H300   H     0.50984   0.89508   0.33915   0.00000  Uiso   1.00
H301   H     0.41907   0.94148   0.24991   0.00000  Uiso   1.00
H302   H     0.41237   0.80821   0.36620   0.00000  Uiso   1.00
H303   H     0.70499   0.91668   0.39707   0.00000  Uiso   1.00
H304   H     0.30750   0.02259   0.15771   0.00000  Uiso   1.00
H305   H     0.29341   0.74159   0.40292   0.00000  Uiso   1.00
H306   H     0.91046   0.97032   0.46802   0.00000  Uiso   1.00
H307   H     0.42594   0.12376   0.39101   0.00000  Uiso   1.00
H308   H     0.33055   0.18272   0.30463   0.00000  Uiso   1.00
H309   H     0.32386   0.04945   0.42091   0.00000  Uiso   1.00
H310   H     0.61648   0.15792   0.45178   0.00000  Uiso   1.00
H311   H     0.23565   0.21839   0.20212   0.00000  Uiso   1.00
H312   H     0.22157   0.93738   0.44733   0.00000  Uiso   1.00
H313   H     0.83862   0.16612   0.51242   0.00000  Uiso   1.00
O314   O     0.21031   0.15514   0.12215   0.00000  Uiso   1.00
O315   O     0.19185   0.78647   0.44386   0.00000  Uiso   1.00
O316   O     0.00140   0.08656   0.52927   0.00000  Uiso   1.00
N317   N     0.30370   0.06059   0.18002   0.00000  Uiso   1.00
N318   N     0.29051   0.79787   0.40927   0.00000  Uiso   1.00
N319   N     0.86740   0.01170   0.47014   0.00000  Uiso   1.00
N320   N     0.26504   0.16595   0.20392   0.00000  Uiso   1.00
N321   N     0.25185   0.90322   0.43316   0.00000  Uiso   1.00
N322   N     0.82874   0.11706   0.49403   0.00000  Uiso   1.00
C323   C     0.99062   0.44747   0.35103   0.00000  Uiso   1.00
C324   C     0.92967   0.50440   0.30974   0.00000  Uiso   1.00
C325   C     0.89995   0.49357   0.26171   0.00000  Uiso   1.00
C326   C     0.84459   0.55249   0.22945   0.00000  Uiso   1.00
C327   C     0.75366   0.63063   0.16301   0.00000  Uiso   1.00
C328   C     0.92602   0.43199   0.37291   0.00000  Uiso   1.00
C329   C     0.89324   0.36028   0.37801   0.00000  Uiso   1.00
C330   C     0.83482   0.35825   0.39893   0.00000  Uiso   1.00
C331   C     0.73828   0.32397   0.43061   0.00000  Uiso   1.00
C332   C     0.08501   0.49093   0.38968   0.00000  Uiso   1.00
C333   C     0.18591   0.46876   0.40889   0.00000  Uiso   1.00
C334   C     0.26135   0.51635   0.44394   0.00000  Uiso   1.00
C335   C     0.41167   0.57358   0.50165   0.00000  Uiso   1.00
C336   C     0.94516   0.57137   0.37913   0.00000  Uiso   1.00
C337   C     0.90498   0.57169   0.32500   0.00000  Uiso   1.00
C338   C     0.84965   0.63065   0.29280   0.00000  Uiso   1.00
C339   C     0.81985   0.61991   0.24474   0.00000  Uiso   1.00
C340   C     0.90133   0.49928   0.38818   0.00000  Uiso   1.00
C341   C     0.84294   0.49736   0.40910   0.00000  Uiso   1.00
C342   C     0.81008   0.42567   0.41423   0.00000  Uiso   1.00
C343   C     0.06032   0.55823   0.40495   0.00000  Uiso   1.00
C344   C     0.13561   0.60585   0.43998   0.00000  Uiso   1.00
C345   C     0.23661   0.58377   0.45923   0.00000  Uiso   1.00
H346   H     0.00984   0.39508   0.33915   0.00000  Uiso   1.00
H347   H     0.91907   0.44148   0.24991   0.00000  Uiso   1.00
H348   H     0.91237   0.30821   0.36620   0.00000  Uiso   1.00
H349   H     0.20499   0.41668   0.39707   0.00000  Uiso   1.00
H350   H     0.80750   0.52259   0.15771   0.00000  Uiso   1.00
H351   H     0.79341   0.24159   0.40292   0.00000  Uiso   1.00
H352   H     0.41046   0.47032   0.46802   0.00000  Uiso   1.00
H353   H     0.92594   0.62376   0.39101   0.00000  Uiso   1.00
H354   H     0.83055   0.68272   0.30463   0.00000  Uiso   1.00
H355   H     0.82386   0.54945   0.42091   0.00000  Uiso   1.00
H356   H     0.11648   0.65792   0.45178   0.00000  Uiso   1.00
H357   H     0.73565   0.71839   0.20212   0.00000  Uiso   1.00
H358   H     0.72157   0.43738   0.44733   0.00000  Uiso   1.00
H359   H     0.33862   0.66612   0.51242   0.00000  Uiso   1.00
O360   O     0.71031   0.65514   0.12215   0.00000  Uiso   1.00
O361   O     0.69185   0.28647   0.44386   0.00000  Uiso   1.00
O362   O     0.50140   0.58656   0.52927   0.00000  Uiso   1.00
N363   N     0.80370   0.56059   0.18002   0.00000  Uiso   1.00
N364   N     0.79051   0.29787   0.40927   0.00000  Uiso   1.00
N365   N     0.36740   0.51170   0.47014   0.00000  Uiso   1.00
N366   N     0.76504   0.66595   0.20392   0.00000  Uiso   1.00
N367   N     0.75185   0.40322   0.43316   0.00000  Uiso   1.00
N368   N     0.32874   0.61706   0.49403   0.00000  Uiso   1.00
