data_job_05041
_audit_creation_date              2018-12-19
_audit_creation_method            'Materials Studio'
_symmetry_space_group_name_H-M    'P1'
_symmetry_Int_Tables_number       1
_symmetry_cell_setting            triclinic
loop_
_symmetry_equiv_pos_as_xyz
  x,y,z
_cell_length_a                    12.4005
_cell_length_b                    27.3875
_cell_length_c                    7.2648
_cell_angle_alpha                 90.0000
_cell_angle_beta                  90.0000
_cell_angle_gamma                 90.0000
loop_
_atom_site_label
_atom_site_type_symbol
_atom_site_fract_x
_atom_site_fract_y
_atom_site_fract_z
_atom_site_U_iso_or_equiv
_atom_site_adp_type
_atom_site_occupancy
C1     C     0.82930   0.87724   0.92132   0.00000  Uiso   1.00
C2     C     0.72439   0.85333   0.98356   0.00000  Uiso   1.00
C3     C     0.66231   0.82132   0.88016   0.00000  Uiso   1.00
C4     C     0.56909   0.80343   0.96174   0.00000  Uiso   1.00
C5     C     0.41073   0.76424   0.03120   0.00000  Uiso   1.00
C6     C     0.81204   0.93213   0.94070   0.00000  Uiso   1.00
C7     C     0.82366   0.96636   0.80126   0.00000  Uiso   1.00
C8     C     0.80423   0.01481   0.84677   0.00000  Uiso   1.00
C9     C     0.78203   0.09796   0.84971   0.00000  Uiso   1.00
C10    C     0.91366   0.86351   0.06499   0.00000  Uiso   1.00
C11    C     0.01073   0.84006   0.03005   0.00000  Uiso   1.00
C12    C     0.07688   0.83074   0.18021   0.00000  Uiso   1.00
C13    C     0.21244   0.80735   0.37613   0.00000  Uiso   1.00
C14    C     0.77415   0.90240   0.25010   0.00000  Uiso   1.00
C15    C     0.69444   0.86700   0.16214   0.00000  Uiso   1.00
C16    C     0.60129   0.84915   0.24392   0.00000  Uiso   1.00
C17    C     0.53908   0.81712   0.14065   0.00000  Uiso   1.00
C18    C     0.78209   0.94580   0.11927   0.00000  Uiso   1.00
C19    C     0.76265   0.99420   0.16501   0.00000  Uiso   1.00
C20    C     0.77423   0.02850   0.02568   0.00000  Uiso   1.00
C21    C     0.88370   0.87717   0.24357   0.00000  Uiso   1.00
C22    C     0.94971   0.86789   0.39381   0.00000  Uiso   1.00
C23    C     0.04687   0.84443   0.35911   0.00000  Uiso   1.00
H24    H     0.85262   0.86660   0.78228   0.00000  Uiso   1.00
H25    H     0.68551   0.81075   0.74195   0.00000  Uiso   1.00
H26    H     0.84685   0.95578   0.66308   0.00000  Uiso   1.00
H27    H     0.03389   0.82949   0.89184   0.00000  Uiso   1.00
H28    H     0.48701   0.75487   0.77597   0.00000  Uiso   1.00
H29    H     0.82724   0.06067   0.60967   0.00000  Uiso   1.00
H30    H     0.22165   0.79436   0.09205   0.00000  Uiso   1.00
H31    H     0.75083   0.91304   0.38914   0.00000  Uiso   1.00
H32    H     0.57813   0.85974   0.38211   0.00000  Uiso   1.00
H33    H     0.73947   0.00476   0.30323   0.00000  Uiso   1.00
H34    H     0.92651   0.87847   0.53199   0.00000  Uiso   1.00
H35    H     0.39986   0.79463   0.29554   0.00000  Uiso   1.00
H36    H     0.74009   0.10043   0.12924   0.00000  Uiso   1.00
H37    H     0.13450   0.83412   0.61163   0.00000  Uiso   1.00
O38    O     0.33165   0.73886   0.02016   0.00000  Uiso   1.00
O39    O     0.77804   0.14005   0.80199   0.00000  Uiso   1.00
O40    O     0.29549   0.79066   0.43486   0.00000  Uiso   1.00
N41    N     0.49021   0.77154   0.89923   0.00000  Uiso   1.00
N42    N     0.80829   0.05744   0.74374   0.00000  Uiso   1.00
N43    N     0.17704   0.80847   0.19472   0.00000  Uiso   1.00
N44    N     0.44332   0.79293   0.17881   0.00000  Uiso   1.00
N45    N     0.76139   0.07883   0.02332   0.00000  Uiso   1.00
N46    N     0.13014   0.82987   0.47430   0.00000  Uiso   1.00
C47    C     0.17070   0.12276   0.92132   0.00000  Uiso   1.00
C48    C     0.27561   0.14667   0.98356   0.00000  Uiso   1.00
C49    C     0.33769   0.17868   0.88016   0.00000  Uiso   1.00
C50    C     0.43091   0.19657   0.96174   0.00000  Uiso   1.00
C51    C     0.58927   0.23576   0.03120   0.00000  Uiso   1.00
C52    C     0.18796   0.06787   0.94070   0.00000  Uiso   1.00
C53    C     0.17634   0.03364   0.80126   0.00000  Uiso   1.00
C54    C     0.19577   0.98519   0.84677   0.00000  Uiso   1.00
C55    C     0.21797   0.90204   0.84971   0.00000  Uiso   1.00
C56    C     0.08634   0.13649   0.06499   0.00000  Uiso   1.00
C57    C     0.98927   0.15994   0.03005   0.00000  Uiso   1.00
C58    C     0.92312   0.16926   0.18021   0.00000  Uiso   1.00
C59    C     0.78756   0.19265   0.37613   0.00000  Uiso   1.00
C60    C     0.22585   0.09760   0.25010   0.00000  Uiso   1.00
C61    C     0.30556   0.13300   0.16214   0.00000  Uiso   1.00
C62    C     0.39871   0.15085   0.24392   0.00000  Uiso   1.00
C63    C     0.46092   0.18288   0.14065   0.00000  Uiso   1.00
C64    C     0.21791   0.05420   0.11927   0.00000  Uiso   1.00
C65    C     0.23735   0.00580   0.16501   0.00000  Uiso   1.00
C66    C     0.22577   0.97150   0.02568   0.00000  Uiso   1.00
C67    C     0.11630   0.12283   0.24357   0.00000  Uiso   1.00
C68    C     0.05029   0.13211   0.39381   0.00000  Uiso   1.00
C69    C     0.95313   0.15557   0.35911   0.00000  Uiso   1.00
H70    H     0.14738   0.13340   0.78228   0.00000  Uiso   1.00
H71    H     0.31449   0.18925   0.74195   0.00000  Uiso   1.00
H72    H     0.15315   0.04422   0.66308   0.00000  Uiso   1.00
H73    H     0.96611   0.17051   0.89184   0.00000  Uiso   1.00
H74    H     0.51299   0.24513   0.77597   0.00000  Uiso   1.00
H75    H     0.17276   0.93933   0.60967   0.00000  Uiso   1.00
H76    H     0.77835   0.20564   0.09205   0.00000  Uiso   1.00
H77    H     0.24917   0.08696   0.38914   0.00000  Uiso   1.00
H78    H     0.42187   0.14026   0.38211   0.00000  Uiso   1.00
H79    H     0.26053   0.99524   0.30323   0.00000  Uiso   1.00
H80    H     0.07349   0.12153   0.53199   0.00000  Uiso   1.00
H81    H     0.60014   0.20537   0.29554   0.00000  Uiso   1.00
H82    H     0.25991   0.89957   0.12924   0.00000  Uiso   1.00
H83    H     0.86550   0.16588   0.61163   0.00000  Uiso   1.00
O84    O     0.66835   0.26114   0.02016   0.00000  Uiso   1.00
O85    O     0.22196   0.85995   0.80199   0.00000  Uiso   1.00
O86    O     0.70451   0.20934   0.43486   0.00000  Uiso   1.00
N87    N     0.50979   0.22846   0.89923   0.00000  Uiso   1.00
N88    N     0.19171   0.94256   0.74374   0.00000  Uiso   1.00
N89    N     0.82296   0.19153   0.19472   0.00000  Uiso   1.00
N90    N     0.55668   0.20707   0.17881   0.00000  Uiso   1.00
N91    N     0.23861   0.92117   0.02332   0.00000  Uiso   1.00
N92    N     0.86986   0.17013   0.47430   0.00000  Uiso   1.00
C93    C     0.32930   0.62276   0.42132   0.00000  Uiso   1.00
C94    C     0.22439   0.64667   0.48356   0.00000  Uiso   1.00
C95    C     0.16231   0.67868   0.38016   0.00000  Uiso   1.00
C96    C     0.06909   0.69657   0.46174   0.00000  Uiso   1.00
C97    C     0.91073   0.73576   0.53120   0.00000  Uiso   1.00
C98    C     0.31204   0.56787   0.44070   0.00000  Uiso   1.00
C99    C     0.32366   0.53364   0.30126   0.00000  Uiso   1.00
C100   C     0.30423   0.48519   0.34677   0.00000  Uiso   1.00
C101   C     0.28203   0.40204   0.34971   0.00000  Uiso   1.00
C102   C     0.41366   0.63649   0.56499   0.00000  Uiso   1.00
C103   C     0.51073   0.65994   0.53005   0.00000  Uiso   1.00
C104   C     0.57688   0.66926   0.68021   0.00000  Uiso   1.00
C105   C     0.71244   0.69265   0.87613   0.00000  Uiso   1.00
C106   C     0.27415   0.59760   0.75010   0.00000  Uiso   1.00
C107   C     0.19444   0.63300   0.66214   0.00000  Uiso   1.00
C108   C     0.10129   0.65085   0.74392   0.00000  Uiso   1.00
C109   C     0.03908   0.68288   0.64065   0.00000  Uiso   1.00
C110   C     0.28209   0.55420   0.61927   0.00000  Uiso   1.00
C111   C     0.26265   0.50580   0.66501   0.00000  Uiso   1.00
C112   C     0.27423   0.47150   0.52568   0.00000  Uiso   1.00
C113   C     0.38370   0.62283   0.74357   0.00000  Uiso   1.00
C114   C     0.44971   0.63211   0.89381   0.00000  Uiso   1.00
C115   C     0.54687   0.65557   0.85911   0.00000  Uiso   1.00
H116   H     0.35262   0.63340   0.28228   0.00000  Uiso   1.00
H117   H     0.18551   0.68925   0.24195   0.00000  Uiso   1.00
H118   H     0.34685   0.54422   0.16308   0.00000  Uiso   1.00
H119   H     0.53389   0.67051   0.39184   0.00000  Uiso   1.00
H120   H     0.98701   0.74513   0.27597   0.00000  Uiso   1.00
H121   H     0.32724   0.43933   0.10967   0.00000  Uiso   1.00
H122   H     0.72165   0.70564   0.59205   0.00000  Uiso   1.00
H123   H     0.25083   0.58696   0.88914   0.00000  Uiso   1.00
H124   H     0.07813   0.64026   0.88211   0.00000  Uiso   1.00
H125   H     0.23947   0.49524   0.80323   0.00000  Uiso   1.00
H126   H     0.42651   0.62153   0.03199   0.00000  Uiso   1.00
H127   H     0.89986   0.70537   0.79554   0.00000  Uiso   1.00
H128   H     0.24009   0.39957   0.62924   0.00000  Uiso   1.00
H129   H     0.63450   0.66588   0.11163   0.00000  Uiso   1.00
O130   O     0.83165   0.76114   0.52016   0.00000  Uiso   1.00
O131   O     0.27804   0.35995   0.30199   0.00000  Uiso   1.00
O132   O     0.79549   0.70934   0.93486   0.00000  Uiso   1.00
N133   N     0.99021   0.72846   0.39923   0.00000  Uiso   1.00
N134   N     0.30829   0.44256   0.24374   0.00000  Uiso   1.00
N135   N     0.67704   0.69153   0.69472   0.00000  Uiso   1.00
N136   N     0.94332   0.70707   0.67881   0.00000  Uiso   1.00
N137   N     0.26139   0.42117   0.52332   0.00000  Uiso   1.00
N138   N     0.63014   0.67013   0.97430   0.00000  Uiso   1.00
C139   C     0.67070   0.37724   0.42132   0.00000  Uiso   1.00
C140   C     0.77561   0.35333   0.48356   0.00000  Uiso   1.00
C141   C     0.83769   0.32132   0.38016   0.00000  Uiso   1.00
C142   C     0.93091   0.30343   0.46174   0.00000  Uiso   1.00
C143   C     0.08927   0.26424   0.53120   0.00000  Uiso   1.00
C144   C     0.68796   0.43213   0.44070   0.00000  Uiso   1.00
C145   C     0.67634   0.46636   0.30126   0.00000  Uiso   1.00
C146   C     0.69577   0.51481   0.34677   0.00000  Uiso   1.00
C147   C     0.71797   0.59796   0.34971   0.00000  Uiso   1.00
C148   C     0.58634   0.36351   0.56499   0.00000  Uiso   1.00
C149   C     0.48927   0.34006   0.53005   0.00000  Uiso   1.00
C150   C     0.42312   0.33074   0.68021   0.00000  Uiso   1.00
C151   C     0.28756   0.30735   0.87613   0.00000  Uiso   1.00
C152   C     0.72585   0.40240   0.75010   0.00000  Uiso   1.00
C153   C     0.80556   0.36700   0.66214   0.00000  Uiso   1.00
C154   C     0.89871   0.34915   0.74392   0.00000  Uiso   1.00
C155   C     0.96092   0.31712   0.64065   0.00000  Uiso   1.00
C156   C     0.71791   0.44580   0.61927   0.00000  Uiso   1.00
C157   C     0.73735   0.49420   0.66501   0.00000  Uiso   1.00
C158   C     0.72577   0.52850   0.52568   0.00000  Uiso   1.00
C159   C     0.61630   0.37717   0.74357   0.00000  Uiso   1.00
C160   C     0.55029   0.36789   0.89381   0.00000  Uiso   1.00
C161   C     0.45313   0.34443   0.85911   0.00000  Uiso   1.00
H162   H     0.64738   0.36660   0.28228   0.00000  Uiso   1.00
H163   H     0.81449   0.31075   0.24195   0.00000  Uiso   1.00
H164   H     0.65315   0.45578   0.16308   0.00000  Uiso   1.00
H165   H     0.46611   0.32949   0.39184   0.00000  Uiso   1.00
H166   H     0.01299   0.25487   0.27597   0.00000  Uiso   1.00
H167   H     0.67276   0.56067   0.10967   0.00000  Uiso   1.00
H168   H     0.27835   0.29436   0.59205   0.00000  Uiso   1.00
H169   H     0.74917   0.41304   0.88914   0.00000  Uiso   1.00
H170   H     0.92187   0.35974   0.88211   0.00000  Uiso   1.00
H171   H     0.76053   0.50476   0.80323   0.00000  Uiso   1.00
H172   H     0.57349   0.37847   0.03199   0.00000  Uiso   1.00
H173   H     0.10014   0.29463   0.79554   0.00000  Uiso   1.00
H174   H     0.75991   0.60043   0.62924   0.00000  Uiso   1.00
H175   H     0.36550   0.33412   0.11163   0.00000  Uiso   1.00
O176   O     0.16835   0.23886   0.52016   0.00000  Uiso   1.00
O177   O     0.72196   0.64005   0.30199   0.00000  Uiso   1.00
O178   O     0.20451   0.29066   0.93486   0.00000  Uiso   1.00
N179   N     0.00979   0.27154   0.39923   0.00000  Uiso   1.00
N180   N     0.69171   0.55744   0.24374   0.00000  Uiso   1.00
N181   N     0.32296   0.30847   0.69472   0.00000  Uiso   1.00
N182   N     0.05668   0.29293   0.67881   0.00000  Uiso   1.00
N183   N     0.73861   0.57883   0.52332   0.00000  Uiso   1.00
N184   N     0.36986   0.32987   0.97430   0.00000  Uiso   1.00
