data_job_01079
_audit_creation_date              2018-12-19
_audit_creation_method            'Materials Studio'
_symmetry_space_group_name_H-M    'P1'
_symmetry_Int_Tables_number       1
_symmetry_cell_setting            triclinic
loop_
_symmetry_equiv_pos_as_xyz
  x,y,z
_cell_length_a                    10.2658
_cell_length_b                    20.4196
_cell_length_c                    14.5847
_cell_angle_alpha                 90.0000
_cell_angle_beta                  124.4311
_cell_angle_gamma                 90.0000
loop_
_atom_site_label
_atom_site_type_symbol
_atom_site_fract_x
_atom_site_fract_y
_atom_site_fract_z
_atom_site_U_iso_or_equiv
_atom_site_adp_type
_atom_site_occupancy
C1     C     0.06828   0.23547   0.63779   0.00000  Uiso   1.00
C2     C     0.05139   0.18701   0.71002   0.00000  Uiso   1.00
C3     C     0.02316   0.12034   0.69014   0.00000  Uiso   1.00
C4     C     0.01154   0.08441   0.76604   0.00000  Uiso   1.00
C5     C     0.98279   0.00465   0.86410   0.00000  Uiso   1.00
C6     C     0.94513   0.28862   0.60560   0.00000  Uiso   1.00
C7     C     0.82759   0.30739   0.49794   0.00000  Uiso   1.00
C8     C     0.72654   0.35700   0.48595   0.00000  Uiso   1.00
C9     C     0.53290   0.43503   0.42191   0.00000  Uiso   1.00
C10    C     0.22855   0.26827   0.71435   0.00000  Uiso   1.00
C11    C     0.34930   0.26996   0.69810   0.00000  Uiso   1.00
C12    C     0.48686   0.30246   0.77766   0.00000  Uiso   1.00
C13    C     0.73327   0.34890   0.88246   0.00000  Uiso   1.00
C14    C     0.09784   0.29019   0.80794   0.00000  Uiso   1.00
C15    C     0.06744   0.21673   0.80243   0.00000  Uiso   1.00
C16    C     0.05587   0.18089   0.87839   0.00000  Uiso   1.00
C17    C     0.02763   0.11418   0.85863   0.00000  Uiso   1.00
C18    C     0.96118   0.31834   0.69802   0.00000  Uiso   1.00
C19    C     0.86029   0.36794   0.68619   0.00000  Uiso   1.00
C20    C     0.74262   0.38678   0.57854   0.00000  Uiso   1.00
C21    C     0.24461   0.29800   0.80677   0.00000  Uiso   1.00
C22    C     0.38200   0.33050   0.88636   0.00000  Uiso   1.00
C23    C     0.50294   0.33224   0.87024   0.00000  Uiso   1.00
H24    H     0.05577   0.21233   0.56583   0.00000  Uiso   1.00
H25    H     0.01073   0.09736   0.61860   0.00000  Uiso   1.00
H26    H     0.81520   0.28439   0.42644   0.00000  Uiso   1.00
H27    H     0.33683   0.24696   0.62657   0.00000  Uiso   1.00
H28    H     0.96782   0.98301   0.71784   0.00000  Uiso   1.00
H29    H     0.55557   0.37738   0.31265   0.00000  Uiso   1.00
H30    H     0.65553   0.29846   0.73467   0.00000  Uiso   1.00
H31    H     0.11033   0.31333   0.87990   0.00000  Uiso   1.00
H32    H     0.06829   0.20390   0.94990   0.00000  Uiso   1.00
H33    H     0.87276   0.39093   0.75773   0.00000  Uiso   1.00
H34    H     0.39439   0.35350   0.95787   0.00000  Uiso   1.00
H35    H     0.01453   0.06948   0.98673   0.00000  Uiso   1.00
H36    H     0.60228   0.46385   0.58153   0.00000  Uiso   1.00
H37    H     0.70224   0.38493   0.00356   0.00000  Uiso   1.00
O38    O     0.96248   0.95244   0.89265   0.00000  Uiso   1.00
O39    O     0.42165   0.46985   0.36105   0.00000  Uiso   1.00
O40    O     0.86476   0.36630   0.91474   0.00000  Uiso   1.00
N41    N     0.98461   0.01838   0.77153   0.00000  Uiso   1.00
N42    N     0.59917   0.38708   0.39269   0.00000  Uiso   1.00
N43    N     0.62752   0.31331   0.78724   0.00000  Uiso   1.00
N44    N     0.00975   0.06491   0.91622   0.00000  Uiso   1.00
N45    N     0.62430   0.43361   0.53738   0.00000  Uiso   1.00
N46    N     0.65266   0.35984   0.93193   0.00000  Uiso   1.00
C47    C     0.93172   0.73547   0.86221   0.00000  Uiso   1.00
C48    C     0.94861   0.68701   0.78998   0.00000  Uiso   1.00
C49    C     0.97684   0.62034   0.80986   0.00000  Uiso   1.00
C50    C     0.98846   0.58441   0.73396   0.00000  Uiso   1.00
C51    C     0.01721   0.50465   0.63590   0.00000  Uiso   1.00
C52    C     0.05487   0.78862   0.89440   0.00000  Uiso   1.00
C53    C     0.17241   0.80739   0.00206   0.00000  Uiso   1.00
C54    C     0.27346   0.85700   0.01405   0.00000  Uiso   1.00
C55    C     0.46710   0.93503   0.07809   0.00000  Uiso   1.00
C56    C     0.77145   0.76827   0.78565   0.00000  Uiso   1.00
C57    C     0.65070   0.76996   0.80190   0.00000  Uiso   1.00
C58    C     0.51314   0.80246   0.72234   0.00000  Uiso   1.00
C59    C     0.26673   0.84890   0.61754   0.00000  Uiso   1.00
C60    C     0.90216   0.79019   0.69206   0.00000  Uiso   1.00
C61    C     0.93256   0.71673   0.69757   0.00000  Uiso   1.00
C62    C     0.94413   0.68089   0.62161   0.00000  Uiso   1.00
C63    C     0.97237   0.61418   0.64137   0.00000  Uiso   1.00
C64    C     0.03882   0.81834   0.80198   0.00000  Uiso   1.00
C65    C     0.13971   0.86794   0.81381   0.00000  Uiso   1.00
C66    C     0.25738   0.88678   0.92146   0.00000  Uiso   1.00
C67    C     0.75539   0.79800   0.69323   0.00000  Uiso   1.00
C68    C     0.61800   0.83050   0.61364   0.00000  Uiso   1.00
C69    C     0.49706   0.83224   0.62976   0.00000  Uiso   1.00
H70    H     0.94423   0.71233   0.93417   0.00000  Uiso   1.00
H71    H     0.98927   0.59736   0.88140   0.00000  Uiso   1.00
H72    H     0.18480   0.78439   0.07356   0.00000  Uiso   1.00
H73    H     0.66317   0.74696   0.87343   0.00000  Uiso   1.00
H74    H     0.03218   0.48301   0.78216   0.00000  Uiso   1.00
H75    H     0.44443   0.87738   0.18735   0.00000  Uiso   1.00
H76    H     0.34447   0.79846   0.76533   0.00000  Uiso   1.00
H77    H     0.88967   0.81333   0.62010   0.00000  Uiso   1.00
H78    H     0.93171   0.70390   0.55010   0.00000  Uiso   1.00
H79    H     0.12724   0.89093   0.74227   0.00000  Uiso   1.00
H80    H     0.60561   0.85350   0.54213   0.00000  Uiso   1.00
H81    H     0.98547   0.56948   0.51327   0.00000  Uiso   1.00
H82    H     0.39772   0.96385   0.91847   0.00000  Uiso   1.00
H83    H     0.29776   0.88493   0.49644   0.00000  Uiso   1.00
O84    O     0.03752   0.45244   0.60735   0.00000  Uiso   1.00
O85    O     0.57835   0.96985   0.13895   0.00000  Uiso   1.00
O86    O     0.13524   0.86630   0.58526   0.00000  Uiso   1.00
N87    N     0.01539   0.51838   0.72847   0.00000  Uiso   1.00
N88    N     0.40083   0.88708   0.10731   0.00000  Uiso   1.00
N89    N     0.37248   0.81331   0.71276   0.00000  Uiso   1.00
N90    N     0.99025   0.56491   0.58378   0.00000  Uiso   1.00
N91    N     0.37570   0.93361   0.96262   0.00000  Uiso   1.00
N92    N     0.34734   0.85984   0.56807   0.00000  Uiso   1.00
C93    C     0.93172   0.76453   0.36221   0.00000  Uiso   1.00
C94    C     0.94861   0.81299   0.28998   0.00000  Uiso   1.00
C95    C     0.97684   0.87966   0.30986   0.00000  Uiso   1.00
C96    C     0.98846   0.91559   0.23396   0.00000  Uiso   1.00
C97    C     0.01721   0.99535   0.13590   0.00000  Uiso   1.00
C98    C     0.05487   0.71138   0.39440   0.00000  Uiso   1.00
C99    C     0.17241   0.69261   0.50206   0.00000  Uiso   1.00
C100   C     0.27346   0.64300   0.51405   0.00000  Uiso   1.00
C101   C     0.46710   0.56497   0.57809   0.00000  Uiso   1.00
C102   C     0.77145   0.73173   0.28565   0.00000  Uiso   1.00
C103   C     0.65070   0.73004   0.30190   0.00000  Uiso   1.00
C104   C     0.51314   0.69754   0.22234   0.00000  Uiso   1.00
C105   C     0.26673   0.65110   0.11754   0.00000  Uiso   1.00
C106   C     0.90216   0.70981   0.19206   0.00000  Uiso   1.00
C107   C     0.93256   0.78327   0.19757   0.00000  Uiso   1.00
C108   C     0.94413   0.81911   0.12161   0.00000  Uiso   1.00
C109   C     0.97237   0.88582   0.14137   0.00000  Uiso   1.00
C110   C     0.03882   0.68166   0.30198   0.00000  Uiso   1.00
C111   C     0.13971   0.63206   0.31381   0.00000  Uiso   1.00
C112   C     0.25738   0.61322   0.42146   0.00000  Uiso   1.00
C113   C     0.75539   0.70200   0.19323   0.00000  Uiso   1.00
C114   C     0.61800   0.66950   0.11364   0.00000  Uiso   1.00
C115   C     0.49706   0.66776   0.12976   0.00000  Uiso   1.00
H116   H     0.94423   0.78767   0.43417   0.00000  Uiso   1.00
H117   H     0.98927   0.90264   0.38140   0.00000  Uiso   1.00
H118   H     0.18480   0.71561   0.57356   0.00000  Uiso   1.00
H119   H     0.66317   0.75304   0.37343   0.00000  Uiso   1.00
H120   H     0.03218   0.01699   0.28216   0.00000  Uiso   1.00
H121   H     0.44443   0.62262   0.68735   0.00000  Uiso   1.00
H122   H     0.34447   0.70154   0.26533   0.00000  Uiso   1.00
H123   H     0.88967   0.68667   0.12010   0.00000  Uiso   1.00
H124   H     0.93171   0.79610   0.05010   0.00000  Uiso   1.00
H125   H     0.12724   0.60907   0.24227   0.00000  Uiso   1.00
H126   H     0.60561   0.64650   0.04213   0.00000  Uiso   1.00
H127   H     0.98547   0.93052   0.01327   0.00000  Uiso   1.00
H128   H     0.39772   0.53615   0.41847   0.00000  Uiso   1.00
H129   H     0.29776   0.61507   0.99644   0.00000  Uiso   1.00
O130   O     0.03752   0.04756   0.10735   0.00000  Uiso   1.00
O131   O     0.57835   0.53015   0.63895   0.00000  Uiso   1.00
O132   O     0.13524   0.63370   0.08526   0.00000  Uiso   1.00
N133   N     0.01539   0.98162   0.22847   0.00000  Uiso   1.00
N134   N     0.40083   0.61292   0.60731   0.00000  Uiso   1.00
N135   N     0.37248   0.68669   0.21276   0.00000  Uiso   1.00
N136   N     0.99025   0.93509   0.08378   0.00000  Uiso   1.00
N137   N     0.37570   0.56639   0.46262   0.00000  Uiso   1.00
N138   N     0.34734   0.64016   0.06807   0.00000  Uiso   1.00
C139   C     0.06828   0.26453   0.13779   0.00000  Uiso   1.00
C140   C     0.05139   0.31299   0.21002   0.00000  Uiso   1.00
C141   C     0.02316   0.37966   0.19014   0.00000  Uiso   1.00
C142   C     0.01154   0.41559   0.26604   0.00000  Uiso   1.00
C143   C     0.98279   0.49535   0.36410   0.00000  Uiso   1.00
C144   C     0.94513   0.21138   0.10560   0.00000  Uiso   1.00
C145   C     0.82759   0.19261   0.99794   0.00000  Uiso   1.00
C146   C     0.72654   0.14300   0.98595   0.00000  Uiso   1.00
C147   C     0.53290   0.06497   0.92191   0.00000  Uiso   1.00
C148   C     0.22855   0.23173   0.21435   0.00000  Uiso   1.00
C149   C     0.34930   0.23004   0.19810   0.00000  Uiso   1.00
C150   C     0.48686   0.19754   0.27766   0.00000  Uiso   1.00
C151   C     0.73327   0.15110   0.38246   0.00000  Uiso   1.00
C152   C     0.09784   0.20981   0.30794   0.00000  Uiso   1.00
C153   C     0.06744   0.28327   0.30243   0.00000  Uiso   1.00
C154   C     0.05587   0.31911   0.37839   0.00000  Uiso   1.00
C155   C     0.02763   0.38582   0.35863   0.00000  Uiso   1.00
C156   C     0.96118   0.18166   0.19802   0.00000  Uiso   1.00
C157   C     0.86029   0.13206   0.18619   0.00000  Uiso   1.00
C158   C     0.74262   0.11322   0.07854   0.00000  Uiso   1.00
C159   C     0.24461   0.20200   0.30677   0.00000  Uiso   1.00
C160   C     0.38200   0.16950   0.38636   0.00000  Uiso   1.00
C161   C     0.50294   0.16776   0.37024   0.00000  Uiso   1.00
H162   H     0.05577   0.28767   0.06583   0.00000  Uiso   1.00
H163   H     0.01073   0.40264   0.11860   0.00000  Uiso   1.00
H164   H     0.81520   0.21561   0.92644   0.00000  Uiso   1.00
H165   H     0.33683   0.25304   0.12657   0.00000  Uiso   1.00
H166   H     0.96782   0.51699   0.21784   0.00000  Uiso   1.00
H167   H     0.55557   0.12262   0.81265   0.00000  Uiso   1.00
H168   H     0.65553   0.20154   0.23467   0.00000  Uiso   1.00
H169   H     0.11033   0.18667   0.37990   0.00000  Uiso   1.00
H170   H     0.06829   0.29610   0.44990   0.00000  Uiso   1.00
H171   H     0.87276   0.10907   0.25773   0.00000  Uiso   1.00
H172   H     0.39439   0.14650   0.45787   0.00000  Uiso   1.00
H173   H     0.01453   0.43052   0.48673   0.00000  Uiso   1.00
H174   H     0.60228   0.03615   0.08153   0.00000  Uiso   1.00
H175   H     0.70224   0.11507   0.50356   0.00000  Uiso   1.00
O176   O     0.96248   0.54756   0.39265   0.00000  Uiso   1.00
O177   O     0.42165   0.03015   0.86105   0.00000  Uiso   1.00
O178   O     0.86476   0.13370   0.41474   0.00000  Uiso   1.00
N179   N     0.98461   0.48162   0.27153   0.00000  Uiso   1.00
N180   N     0.59917   0.11292   0.89269   0.00000  Uiso   1.00
N181   N     0.62752   0.18669   0.28724   0.00000  Uiso   1.00
N182   N     0.00975   0.43509   0.41622   0.00000  Uiso   1.00
N183   N     0.62430   0.06639   0.03738   0.00000  Uiso   1.00
N184   N     0.65266   0.14016   0.43193   0.00000  Uiso   1.00
