data_job_06648
_audit_creation_date              2018-12-19
_audit_creation_method            'Materials Studio'
_symmetry_space_group_name_H-M    'P1'
_symmetry_Int_Tables_number       1
_symmetry_cell_setting            triclinic
loop_
_symmetry_equiv_pos_as_xyz
  x,y,z
_cell_length_a                    20.3108
_cell_length_b                    20.5838
_cell_length_c                    21.7944
_cell_angle_alpha                 77.4801
_cell_angle_beta                  78.2099
_cell_angle_gamma                 68.3020
loop_
_atom_site_label
_atom_site_type_symbol
_atom_site_fract_x
_atom_site_fract_y
_atom_site_fract_z
_atom_site_U_iso_or_equiv
_atom_site_adp_type
_atom_site_occupancy
C1     C     0.00217   0.27499   0.98982   0.00000  Uiso   1.00
C2     C     0.06862   0.28270   0.00521   0.00000  Uiso   1.00
C3     C     0.12877   0.22745   0.02384   0.00000  Uiso   1.00
C4     C     0.18390   0.24551   0.03574   0.00000  Uiso   1.00
C5     C     0.28781   0.24672   0.06065   0.00000  Uiso   1.00
C6     C     0.93925   0.31707   0.03335   0.00000  Uiso   1.00
C7     C     0.89063   0.29072   0.07564   0.00000  Uiso   1.00
C8     C     0.83686   0.33772   0.11122   0.00000  Uiso   1.00
C9     C     0.73990   0.39229   0.17979   0.00000  Uiso   1.00
C10    C     0.99243   0.31450   0.92268   0.00000  Uiso   1.00
C11    C     0.98850   0.28601   0.87192   0.00000  Uiso   1.00
C12    C     0.97948   0.33086   0.81433   0.00000  Uiso   1.00
C13    C     0.96508   0.38145   0.71107   0.00000  Uiso   1.00
C14    C     0.99312   0.40530   0.97780   0.00000  Uiso   1.00
C15    C     0.06370   0.35348   0.99868   0.00000  Uiso   1.00
C16    C     0.11876   0.37163   0.01054   0.00000  Uiso   1.00
C17    C     0.17898   0.31642   0.02919   0.00000  Uiso   1.00
C18    C     0.93434   0.38784   0.02682   0.00000  Uiso   1.00
C19    C     0.88062   0.43489   0.06234   0.00000  Uiso   1.00
C20    C     0.83194   0.40863   0.10468   0.00000  Uiso   1.00
C21    C     0.98751   0.38528   0.91615   0.00000  Uiso   1.00
C22    C     0.97849   0.43018   0.85863   0.00000  Uiso   1.00
C23    C     0.97456   0.40176   0.80779   0.00000  Uiso   1.00
H24    H     0.00599   0.21988   0.99491   0.00000  Uiso   1.00
H25    H     0.13255   0.17268   0.02890   0.00000  Uiso   1.00
H26    H     0.89444   0.23595   0.08068   0.00000  Uiso   1.00
H27    H     0.99230   0.23124   0.87700   0.00000  Uiso   1.00
H28    H     0.27068   0.15157   0.06372   0.00000  Uiso   1.00
H29    H     0.76862   0.28496   0.17289   0.00000  Uiso   1.00
H30    H     0.97496   0.27503   0.74339   0.00000  Uiso   1.00
H31    H     0.98929   0.46041   0.97272   0.00000  Uiso   1.00
H32    H     0.11494   0.42640   0.00549   0.00000  Uiso   1.00
H33    H     0.87683   0.48966   0.05727   0.00000  Uiso   1.00
H34    H     0.97469   0.48495   0.85359   0.00000  Uiso   1.00
H35    H     0.25639   0.35750   0.04473   0.00000  Uiso   1.00
H36    H     0.75432   0.49089   0.15389   0.00000  Uiso   1.00
H37    H     0.96067   0.48096   0.72439   0.00000  Uiso   1.00
O38    O     0.34648   0.22783   0.07620   0.00000  Uiso   1.00
O39    O     0.68778   0.40284   0.21942   0.00000  Uiso   1.00
O40    O     0.95851   0.38980   0.65592   0.00000  Uiso   1.00
N41    N     0.25008   0.20470   0.05474   0.00000  Uiso   1.00
N42    N     0.78069   0.32941   0.15682   0.00000  Uiso   1.00
N43    N     0.97359   0.32013   0.75527   0.00000  Uiso   1.00
N44    N     0.24239   0.31551   0.04452   0.00000  Uiso   1.00
N45    N     0.77300   0.44022   0.14659   0.00000  Uiso   1.00
N46    N     0.96590   0.43094   0.74505   0.00000  Uiso   1.00
C47    C     0.32791   0.70537   0.06865   0.00000  Uiso   1.00
C48    C     0.31762   0.63359   0.08751   0.00000  Uiso   1.00
C49    C     0.25642   0.62145   0.12131   0.00000  Uiso   1.00
C50    C     0.25761   0.55199   0.13384   0.00000  Uiso   1.00
C51    C     0.23248   0.44894   0.16628   0.00000  Uiso   1.00
C52    C     0.39444   0.69754   0.09579   0.00000  Uiso   1.00
C53    C     0.39781   0.73918   0.13653   0.00000  Uiso   1.00
C54    C     0.46367   0.72355   0.15601   0.00000  Uiso   1.00
C55    C     0.55780   0.71982   0.20126   0.00000  Uiso   1.00
C56    C     0.34773   0.71521   0.99672   0.00000  Uiso   1.00
C57    C     0.31184   0.77173   0.95417   0.00000  Uiso   1.00
C58    C     0.33838   0.77098   0.89025   0.00000  Uiso   1.00
C59    C     0.35999   0.79469   0.78169   0.00000  Uiso   1.00
C60    C     0.43887   0.60357   0.03080   0.00000  Uiso   1.00
C61    C     0.37790   0.57830   0.06696   0.00000  Uiso   1.00
C62    C     0.37918   0.50883   0.07944   0.00000  Uiso   1.00
C63    C     0.31799   0.49660   0.11324   0.00000  Uiso   1.00
C64    C     0.45470   0.64225   0.07523   0.00000  Uiso   1.00
C65    C     0.52057   0.62656   0.09466   0.00000  Uiso   1.00
C66    C     0.52405   0.66816   0.13542   0.00000  Uiso   1.00
C67    C     0.40799   0.65992   0.97616   0.00000  Uiso   1.00
C68    C     0.43460   0.65910   0.91230   0.00000  Uiso   1.00
C69    C     0.39876   0.71559   0.86966   0.00000  Uiso   1.00
H70    H     0.28100   0.74841   0.08466   0.00000  Uiso   1.00
H71    H     0.20979   0.66426   0.13721   0.00000  Uiso   1.00
H72    H     0.35116   0.78197   0.15242   0.00000  Uiso   1.00
H73    H     0.26520   0.81450   0.97010   0.00000  Uiso   1.00
H74    H     0.15744   0.54657   0.18644   0.00000  Uiso   1.00
H75    H     0.45553   0.79478   0.21849   0.00000  Uiso   1.00
H76    H     0.27427   0.86339   0.83402   0.00000  Uiso   1.00
H77    H     0.48580   0.56053   0.01480   0.00000  Uiso   1.00
H78    H     0.42583   0.46606   0.06352   0.00000  Uiso   1.00
H79    H     0.56720   0.58377   0.07873   0.00000  Uiso   1.00
H80    H     0.48124   0.61630   0.89641   0.00000  Uiso   1.00
H81    H     0.33278   0.38570   0.12663   0.00000  Uiso   1.00
H82    H     0.63088   0.63392   0.15868   0.00000  Uiso   1.00
H83    H     0.44961   0.70252   0.77421   0.00000  Uiso   1.00
O84    O     0.20198   0.40737   0.18986   0.00000  Uiso   1.00
O85    O     0.59306   0.73303   0.23191   0.00000  Uiso   1.00
O86    O     0.35525   0.82304   0.72749   0.00000  Uiso   1.00
N87    N     0.20693   0.52167   0.16566   0.00000  Uiso   1.00
N88    N     0.48563   0.75373   0.19564   0.00000  Uiso   1.00
N89    N     0.31617   0.81788   0.83619   0.00000  Uiso   1.00
N90    N     0.30128   0.43511   0.13348   0.00000  Uiso   1.00
N91    N     0.57998   0.66717   0.16346   0.00000  Uiso   1.00
N92    N     0.41052   0.73132   0.80401   0.00000  Uiso   1.00
C93    C     0.72691   0.06484   0.93691   0.00000  Uiso   1.00
C94    C     0.65884   0.12740   0.94937   0.00000  Uiso   1.00
C95    C     0.63029   0.15084   0.00739   0.00000  Uiso   1.00
C96    C     0.56760   0.20897   0.00898   0.00000  Uiso   1.00
C97    C     0.46688   0.30100   0.03664   0.00000  Uiso   1.00
C98    C     0.70524   0.01532   0.90867   0.00000  Uiso   1.00
C99    C     0.71572   0.94452   0.93246   0.00000  Uiso   1.00
C100   C     0.69210   0.90830   0.89978   0.00000  Uiso   1.00
C101   C     0.66348   0.82632   0.86422   0.00000  Uiso   1.00
C102   C     0.77514   0.09397   0.88390   0.00000  Uiso   1.00
C103   C     0.84440   0.08928   0.88686   0.00000  Uiso   1.00
C104   C     0.87963   0.11927   0.83332   0.00000  Uiso   1.00
C105   C     0.95953   0.15940   0.75930   0.00000  Uiso   1.00
C106   C     0.66635   0.12639   0.83655   0.00000  Uiso   1.00
C107   C     0.62594   0.16083   0.89486   0.00000  Uiso   1.00
C108   C     0.56328   0.21894   0.89636   0.00000  Uiso   1.00
C109   C     0.53464   0.24246   0.95437   0.00000  Uiso   1.00
C110   C     0.67235   0.04875   0.85417   0.00000  Uiso   1.00
C111   C     0.64871   0.01263   0.82144   0.00000  Uiso   1.00
C112   C     0.65914   0.94179   0.84518   0.00000  Uiso   1.00
C113   C     0.74225   0.12741   0.82939   0.00000  Uiso   1.00
C114   C     0.77738   0.15739   0.77583   0.00000  Uiso   1.00
C115   C     0.84668   0.15276   0.77871   0.00000  Uiso   1.00
H116   H     0.75252   0.03880   0.97934   0.00000  Uiso   1.00
H117   H     0.65576   0.12494   0.04957   0.00000  Uiso   1.00
H118   H     0.74118   0.91866   0.97464   0.00000  Uiso   1.00
H119   H     0.86983   0.06341   0.92905   0.00000  Uiso   1.00
H120   H     0.53396   0.23518   0.10339   0.00000  Uiso   1.00
H121   H     0.71410   0.80021   0.94540   0.00000  Uiso   1.00
H122   H     0.98539   0.10543   0.84926   0.00000  Uiso   1.00
H123   H     0.64074   0.15242   0.79411   0.00000  Uiso   1.00
H124   H     0.53784   0.24481   0.85417   0.00000  Uiso   1.00
H125   H     0.62326   0.03852   0.77925   0.00000  Uiso   1.00
H126   H     0.75191   0.18326   0.73366   0.00000  Uiso   1.00
H127   H     0.43824   0.33246   0.94480   0.00000  Uiso   1.00
H128   H     0.61840   0.89749   0.78682   0.00000  Uiso   1.00
H129   H     0.88968   0.20271   0.69067   0.00000  Uiso   1.00
O130   O     0.42041   0.34252   0.06695   0.00000  Uiso   1.00
O131   O     0.65677   0.77186   0.85967   0.00000  Uiso   1.00
O132   O     0.01269   0.17231   0.73354   0.00000  Uiso   1.00
N133   N     0.52556   0.24540   0.05782   0.00000  Uiso   1.00
N134   N     0.69398   0.83873   0.91012   0.00000  Uiso   1.00
N135   N     0.94761   0.12408   0.82023   0.00000  Uiso   1.00
N136   N     0.47406   0.29775   0.97248   0.00000  Uiso   1.00
N137   N     0.64247   0.89108   0.82478   0.00000  Uiso   1.00
N138   N     0.89611   0.17643   0.73489   0.00000  Uiso   1.00
C139   C     0.50279   0.17963   0.49107   0.00000  Uiso   1.00
C140   C     0.54470   0.10319   0.51611   0.00000  Uiso   1.00
C141   C     0.58580   0.08137   0.56527   0.00000  Uiso   1.00
C142   C     0.61997   0.00905   0.58109   0.00000  Uiso   1.00
C143   C     0.68603   0.89776   0.62490   0.00000  Uiso   1.00
C144   C     0.42553   0.18331   0.49615   0.00000  Uiso   1.00
C145   C     0.36643   0.22886   0.52852   0.00000  Uiso   1.00
C146   C     0.30028   0.22400   0.52752   0.00000  Uiso   1.00
C147   C     0.18133   0.23714   0.54030   0.00000  Uiso   1.00
C148   C     0.52965   0.19098   0.42030   0.00000  Uiso   1.00
C149   C     0.55808   0.24299   0.38889   0.00000  Uiso   1.00
C150   C     0.57958   0.24460   0.32403   0.00000  Uiso   1.00
C151   C     0.62229   0.26964   0.21904   0.00000  Uiso   1.00
C152   C     0.49040   0.09002   0.43175   0.00000  Uiso   1.00
C153   C     0.53797   0.05452   0.48389   0.00000  Uiso   1.00
C154   C     0.57209   0.98222   0.49964   0.00000  Uiso   1.00
C155   C     0.61323   0.96029   0.54881   0.00000  Uiso   1.00
C156   C     0.41880   0.13464   0.46393   0.00000  Uiso   1.00
C157   C     0.35272   0.12971   0.46289   0.00000  Uiso   1.00
C158   C     0.29354   0.17524   0.49525   0.00000  Uiso   1.00
C159   C     0.52292   0.14231   0.38808   0.00000  Uiso   1.00
C160   C     0.54438   0.14384   0.32326   0.00000  Uiso   1.00
C161   C     0.57284   0.19584   0.29175   0.00000  Uiso   1.00
H162   H     0.50803   0.21753   0.51615   0.00000  Uiso   1.00
H163   H     0.59099   0.11905   0.59020   0.00000  Uiso   1.00
H164   H     0.37165   0.26653   0.55344   0.00000  Uiso   1.00
H165   H     0.56328   0.28065   0.41383   0.00000  Uiso   1.00
H166   H     0.67997   0.98840   0.65809   0.00000  Uiso   1.00
H167   H     0.21749   0.29938   0.58057   0.00000  Uiso   1.00
H168   H     0.62157   0.32917   0.28619   0.00000  Uiso   1.00
H169   H     0.48516   0.05212   0.40666   0.00000  Uiso   1.00
H170   H     0.56687   0.94456   0.47470   0.00000  Uiso   1.00
H171   H     0.34753   0.09204   0.43794   0.00000  Uiso   1.00
H172   H     0.53916   0.10616   0.29834   0.00000  Uiso   1.00
H173   H     0.66039   0.84678   0.56435   0.00000  Uiso   1.00
H174   H     0.19791   0.15777   0.48683   0.00000  Uiso   1.00
H175   H     0.60200   0.18754   0.19245   0.00000  Uiso   1.00
O176   O     0.72432   0.84982   0.65797   0.00000  Uiso   1.00
O177   O     0.11757   0.25783   0.55626   0.00000  Uiso   1.00
O178   O     0.64772   0.29690   0.17003   0.00000  Uiso   1.00
N179   N     0.66416   0.96983   0.62669   0.00000  Uiso   1.00
N180   N     0.23177   0.26058   0.55422   0.00000  Uiso   1.00
N181   N     0.60954   0.28843   0.27899   0.00000  Uiso   1.00
N182   N     0.65363   0.89363   0.57625   0.00000  Uiso   1.00
N183   N     0.22124   0.18437   0.50378   0.00000  Uiso   1.00
N184   N     0.59901   0.21223   0.22855   0.00000  Uiso   1.00
C185   C     0.72144   0.40668   0.51328   0.00000  Uiso   1.00
C186   C     0.69468   0.46009   0.55934   0.00000  Uiso   1.00
C187   C     0.63077   0.47382   0.60027   0.00000  Uiso   1.00
C188   C     0.61602   0.52462   0.63864   0.00000  Uiso   1.00
C189   C     0.56726   0.60209   0.71057   0.00000  Uiso   1.00
C190   C     0.79480   0.35687   0.52953   0.00000  Uiso   1.00
C191   C     0.81505   0.28380   0.54540   0.00000  Uiso   1.00
C192   C     0.88458   0.24770   0.55867   0.00000  Uiso   1.00
C193   C     0.99127   0.16490   0.58427   0.00000  Uiso   1.00
C194   C     0.73477   0.44819   0.44778   0.00000  Uiso   1.00
C195   C     0.70458   0.45189   0.39491   0.00000  Uiso   1.00
C196   C     0.72358   0.49267   0.33935   0.00000  Uiso   1.00
C197   C     0.73708   0.55166   0.23802   0.00000  Uiso   1.00
C198   C     0.80890   0.47250   0.50862   0.00000  Uiso   1.00
C199   C     0.74219   0.49584   0.55681   0.00000  Uiso   1.00
C200   C     0.72753   0.54664   0.59512   0.00000  Uiso   1.00
C201   C     0.66360   0.56044   0.63611   0.00000  Uiso   1.00
C202   C     0.84230   0.39261   0.52700   0.00000  Uiso   1.00
C203   C     0.91182   0.35662   0.54024   0.00000  Uiso   1.00
C204   C     0.93217   0.28352   0.55613   0.00000  Uiso   1.00
C205   C     0.78228   0.48394   0.44525   0.00000  Uiso   1.00
C206   C     0.80134   0.52472   0.38976   0.00000  Uiso   1.00
C207   C     0.77117   0.52848   0.33681   0.00000  Uiso   1.00
H208   H     0.68446   0.37884   0.51525   0.00000  Uiso   1.00
H209   H     0.59402   0.44613   0.60222   0.00000  Uiso   1.00
H210   H     0.77828   0.25614   0.54734   0.00000  Uiso   1.00
H211   H     0.66782   0.42422   0.39688   0.00000  Uiso   1.00
H212   H     0.51472   0.53648   0.69755   0.00000  Uiso   1.00
H213   H     0.90325   0.13588   0.58182   0.00000  Uiso   1.00
H214   H     0.67032   0.49029   0.26454   0.00000  Uiso   1.00
H215   H     0.84588   0.50034   0.50665   0.00000  Uiso   1.00
H216   H     0.76430   0.57430   0.59315   0.00000  Uiso   1.00
H217   H     0.94856   0.38430   0.53828   0.00000  Uiso   1.00
H218   H     0.83810   0.55238   0.38782   0.00000  Uiso   1.00
H219   H     0.65293   0.64050   0.69019   0.00000  Uiso   1.00
H220   H     0.04146   0.23989   0.57446   0.00000  Uiso   1.00
H221   H     0.80852   0.59431   0.25718   0.00000  Uiso   1.00
O222   O     0.52725   0.63494   0.75094   0.00000  Uiso   1.00
O223   O     0.03699   0.10936   0.59910   0.00000  Uiso   1.00
O224   O     0.73139   0.57434   0.18284   0.00000  Uiso   1.00
N225   N     0.55844   0.55083   0.68394   0.00000  Uiso   1.00
N226   N     0.92168   0.17628   0.57575   0.00000  Uiso   1.00
N227   N     0.70393   0.50761   0.27911   0.00000  Uiso   1.00
N228   N     0.63280   0.60680   0.67998   0.00000  Uiso   1.00
N229   N     0.99605   0.23225   0.57179   0.00000  Uiso   1.00
N230   N     0.77829   0.56358   0.27515   0.00000  Uiso   1.00
C231   C     0.18257   0.75084   0.53988   0.00000  Uiso   1.00
C232   C     0.11793   0.72723   0.56533   0.00000  Uiso   1.00
C233   C     0.12027   0.65935   0.59375   0.00000  Uiso   1.00
C234   C     0.05522   0.64847   0.61387   0.00000  Uiso   1.00
C235   C     0.96472   0.60343   0.65464   0.00000  Uiso   1.00
C236   C     0.17186   0.81225   0.57375   0.00000  Uiso   1.00
C237   C     0.21956   0.81586   0.60923   0.00000  Uiso   1.00
C238   C     0.19991   0.87656   0.63643   0.00000  Uiso   1.00
C239   C     0.19317   0.96355   0.69023   0.00000  Uiso   1.00
C240   C     0.17590   0.78254   0.47044   0.00000  Uiso   1.00
C241   C     0.22701   0.76118   0.41905   0.00000  Uiso   1.00
C242   C     0.21077   0.79689   0.35926   0.00000  Uiso   1.00
C243   C     0.21031   0.83774   0.25265   0.00000  Uiso   1.00
C244   C     0.06287   0.85225   0.52509   0.00000  Uiso   1.00
C245   C     0.05291   0.78231   0.55730   0.00000  Uiso   1.00
C246   C     0.98783   0.77153   0.57738   0.00000  Uiso   1.00
C247   C     0.99008   0.70365   0.60582   0.00000  Uiso   1.00
C248   C     0.10685   0.86733   0.56572   0.00000  Uiso   1.00
C249   C     0.08712   0.92805   0.59287   0.00000  Uiso   1.00
C250   C     0.13477   0.93174   0.62838   0.00000  Uiso   1.00
C251   C     0.11088   0.83762   0.46240   0.00000  Uiso   1.00
C252   C     0.09457   0.87337   0.40268   0.00000  Uiso   1.00
C253   C     0.14563   0.85206   0.35121   0.00000  Uiso   1.00
H254   H     0.23319   0.70797   0.54614   0.00000  Uiso   1.00
H255   H     0.17060   0.61674   0.59996   0.00000  Uiso   1.00
H256   H     0.26987   0.77323   0.61543   0.00000  Uiso   1.00
H257   H     0.27731   0.71856   0.42528   0.00000  Uiso   1.00
H258   H     0.07252   0.53989   0.65611   0.00000  Uiso   1.00
H259   H     0.28186   0.86987   0.68872   0.00000  Uiso   1.00
H260   H     0.29756   0.75459   0.28774   0.00000  Uiso   1.00
H261   H     0.01225   0.89513   0.51884   0.00000  Uiso   1.00
H262   H     0.93753   0.81417   0.57116   0.00000  Uiso   1.00
H263   H     0.03680   0.97066   0.58664   0.00000  Uiso   1.00
H264   H     0.04425   0.91599   0.39649   0.00000  Uiso   1.00
H265   H     0.88336   0.70013   0.63274   0.00000  Uiso   1.00
H266   H     0.09270   0.03011   0.66535   0.00000  Uiso   1.00
H267   H     0.10839   0.91483   0.26437   0.00000  Uiso   1.00
O268   O     0.93277   0.56338   0.67935   0.00000  Uiso   1.00
O269   O     0.20742   0.99630   0.72213   0.00000  Uiso   1.00
O270   O     0.22801   0.84505   0.19606   0.00000  Uiso   1.00
N271   N     0.03826   0.58871   0.64342   0.00000  Uiso   1.00
N272   N     0.23397   0.89722   0.67392   0.00000  Uiso   1.00
N273   N     0.24866   0.78945   0.29904   0.00000  Uiso   1.00
N274   N     0.93647   0.67493   0.63084   0.00000  Uiso   1.00
N275   N     0.13218   0.98344   0.66134   0.00000  Uiso   1.00
N276   N     0.14687   0.87567   0.28646   0.00000  Uiso   1.00
C277   C     0.96929   0.81105   0.93000   0.00000  Uiso   1.00
C278   C     0.92353   0.83670   0.87631   0.00000  Uiso   1.00
C279   C     0.89940   0.90560   0.84473   0.00000  Uiso   1.00
C280   C     0.85820   0.91832   0.79698   0.00000  Uiso   1.00
C281   C     0.78968   0.96639   0.71596   0.00000  Uiso   1.00
C282   C     0.03575   0.75114   0.90841   0.00000  Uiso   1.00
C283   C     0.10596   0.74810   0.90384   0.00000  Uiso   1.00
C284   C     0.15923   0.68879   0.88312   0.00000  Uiso   1.00
C285   C     0.26493   0.60401   0.85199   0.00000  Uiso   1.00
C286   C     0.92787   0.77683   0.98563   0.00000  Uiso   1.00
C287   C     0.90739   0.79537   0.04599   0.00000  Uiso   1.00
C288   C     0.86984   0.75767   0.09029   0.00000  Uiso   1.00
C289   C     0.80804   0.71277   0.17905   0.00000  Uiso   1.00
C290   C     0.93905   0.71111   0.90134   0.00000  Uiso   1.00
C291   C     0.90711   0.78241   0.86074   0.00000  Uiso   1.00
C292   C     0.86594   0.79503   0.81303   0.00000  Uiso   1.00
C293   C     0.84174   0.86394   0.78139   0.00000  Uiso   1.00
C294   C     0.01933   0.69686   0.89284   0.00000  Uiso   1.00
C295   C     0.07250   0.63753   0.87213   0.00000  Uiso   1.00
C296   C     0.14278   0.63440   0.86752   0.00000  Uiso   1.00
C297   C     0.91144   0.72254   0.97006   0.00000  Uiso   1.00
C298   C     0.87393   0.68480   0.01428   0.00000  Uiso   1.00
C299   C     0.85339   0.70328   0.07469   0.00000  Uiso   1.00
H300   H     0.98209   0.85331   0.94212   0.00000  Uiso   1.00
H301   H     0.91213   0.94760   0.85679   0.00000  Uiso   1.00
H302   H     0.11866   0.79012   0.91589   0.00000  Uiso   1.00
H303   H     0.92011   0.83738   0.05802   0.00000  Uiso   1.00
H304   H     0.82734   0.02818   0.75531   0.00000  Uiso   1.00
H305   H     0.26283   0.69612   0.87995   0.00000  Uiso   1.00
H306   H     0.84416   0.79578   0.17966   0.00000  Uiso   1.00
H307   H     0.92626   0.66885   0.88922   0.00000  Uiso   1.00
H308   H     0.85323   0.75301   0.80099   0.00000  Uiso   1.00
H309   H     0.05977   0.59553   0.86009   0.00000  Uiso   1.00
H310   H     0.86123   0.64279   0.00222   0.00000  Uiso   1.00
H311   H     0.77954   0.87025   0.71002   0.00000  Uiso   1.00
H312   H     0.21504   0.53818   0.83466   0.00000  Uiso   1.00
H313   H     0.79636   0.63785   0.13436   0.00000  Uiso   1.00
O314   O     0.75643   0.00790   0.67557   0.00000  Uiso   1.00
O315   O     0.32777   0.57224   0.83911   0.00000  Uiso   1.00
O316   O     0.77848   0.70300   0.23230   0.00000  Uiso   1.00
N317   N     0.82610   0.97946   0.75677   0.00000  Uiso   1.00
N318   N     0.23326   0.66901   0.87329   0.00000  Uiso   1.00
N319   N     0.84185   0.76217   0.15349   0.00000  Uiso   1.00
N320   N     0.80038   0.89448   0.73240   0.00000  Uiso   1.00
N321   N     0.20754   0.58403   0.84892   0.00000  Uiso   1.00
N322   N     0.81613   0.67719   0.12912   0.00000  Uiso   1.00
C323   C     0.72139   0.36429   0.80984   0.00000  Uiso   1.00
C324   C     0.72150   0.43917   0.80569   0.00000  Uiso   1.00
C325   C     0.77085   0.46745   0.76711   0.00000  Uiso   1.00
C326   C     0.76170   0.53699   0.77018   0.00000  Uiso   1.00
C327   C     0.77044   0.64721   0.75759   0.00000  Uiso   1.00
C328   C     0.64822   0.37255   0.79509   0.00000  Uiso   1.00
C329   C     0.63597   0.34482   0.74758   0.00000  Uiso   1.00
C330   C     0.56514   0.35827   0.74174   0.00000  Uiso   1.00
C331   C     0.46013   0.36503   0.71271   0.00000  Uiso   1.00
C332   C     0.72316   0.33132   0.87952   0.00000  Uiso   1.00
C333   C     0.77390   0.26891   0.90301   0.00000  Uiso   1.00
C334   C     0.76615   0.24765   0.96825   0.00000  Uiso   1.00
C335   C     0.77748   0.19039   0.07032   0.00000  Uiso   1.00
C336   C     0.61737   0.43749   0.88394   0.00000  Uiso   1.00
C337   C     0.66500   0.47892   0.84594   0.00000  Uiso   1.00
C338   C     0.65577   0.54843   0.84908   0.00000  Uiso   1.00
C339   C     0.70510   0.57682   0.81050   0.00000  Uiso   1.00
C340   C     0.59173   0.41231   0.83533   0.00000  Uiso   1.00
C341   C     0.52089   0.42580   0.82956   0.00000  Uiso   1.00
C342   C     0.50854   0.39810   0.78206   0.00000  Uiso   1.00
C343   C     0.66666   0.37108   0.91976   0.00000  Uiso   1.00
C344   C     0.65882   0.34990   0.98498   0.00000  Uiso   1.00
C345   C     0.70955   0.28748   0.00857   0.00000  Uiso   1.00
H346   H     0.76537   0.33334   0.77851   0.00000  Uiso   1.00
H347   H     0.81456   0.43667   0.73596   0.00000  Uiso   1.00
H348   H     0.67970   0.31405   0.71645   0.00000  Uiso   1.00
H349   H     0.81761   0.23816   0.87185   0.00000  Uiso   1.00
H350   H     0.84417   0.56877   0.70652   0.00000  Uiso   1.00
H351   H     0.55982   0.31020   0.66539   0.00000  Uiso   1.00
H352   H     0.85062   0.15017   0.99309   0.00000  Uiso   1.00
H353   H     0.57339   0.46844   0.91527   0.00000  Uiso   1.00
H354   H     0.61205   0.57919   0.88022   0.00000  Uiso   1.00
H355   H     0.47719   0.45657   0.86071   0.00000  Uiso   1.00
H356   H     0.61510   0.38068   0.01611   0.00000  Uiso   1.00
H357   H     0.67980   0.68444   0.82360   0.00000  Uiso   1.00
H358   H     0.39545   0.42587   0.78248   0.00000  Uiso   1.00
H359   H     0.68625   0.26585   0.11017   0.00000  Uiso   1.00
O360   O     0.79087   0.69703   0.73953   0.00000  Uiso   1.00
O361   O     0.41781   0.35778   0.68558   0.00000  Uiso   1.00
O362   O     0.79934   0.14784   0.11550   0.00000  Uiso   1.00
N363   N     0.80019   0.58079   0.73890   0.00000  Uiso   1.00
N364   N     0.53434   0.33905   0.70044   0.00000  Uiso   1.00
N365   N     0.80620   0.18943   0.00680   0.00000  Uiso   1.00
N366   N     0.71174   0.64303   0.80190   0.00000  Uiso   1.00
N367   N     0.44589   0.40129   0.76344   0.00000  Uiso   1.00
N368   N     0.71776   0.25167   0.06980   0.00000  Uiso   1.00
C369   C     0.29336   0.03484   0.85542   0.00000  Uiso   1.00
C370   C     0.36211   0.97723   0.83387   0.00000  Uiso   1.00
C371   C     0.38025   0.95505   0.77502   0.00000  Uiso   1.00
C372   C     0.44557   0.90164   0.76451   0.00000  Uiso   1.00
C373   C     0.54541   0.81680   0.72393   0.00000  Uiso   1.00
C374   C     0.31657   0.08889   0.87523   0.00000  Uiso   1.00
C375   C     0.29641   0.16058   0.85115   0.00000  Uiso   1.00
C376   C     0.32339   0.20116   0.87546   0.00000  Uiso   1.00
C377   C     0.35249   0.28968   0.89912   0.00000  Uiso   1.00
C378   C     0.25879   0.00043   0.91609   0.00000  Uiso   1.00
C379   C     0.19005   0.99776   0.92639   0.00000  Uiso   1.00
C380   C     0.16838   0.96389   0.98511   0.00000  Uiso   1.00
C381   C     0.10778   0.91506   0.07222   0.00000  Uiso   1.00
C382   C     0.37710   0.97943   0.94141   0.00000  Uiso   1.00
C383   C     0.40759   0.94714   0.88058   0.00000  Uiso   1.00
C384   C     0.47290   0.89375   0.87016   0.00000  Uiso   1.00
C385   C     0.49113   0.87149   0.81130   0.00000  Uiso   1.00
C386   C     0.36205   0.05880   0.92193   0.00000  Uiso   1.00
C387   C     0.38906   0.09928   0.94629   0.00000  Uiso   1.00
C388   C     0.36895   0.17102   0.92225   0.00000  Uiso   1.00
C389   C     0.30428   0.97033   0.96280   0.00000  Uiso   1.00
C390   C     0.28271   0.93646   0.02152   0.00000  Uiso   1.00
C391   C     0.21395   0.93374   0.03190   0.00000  Uiso   1.00
H392   H     0.25795   0.05827   0.81906   0.00000  Uiso   1.00
H393   H     0.34504   0.97836   0.73888   0.00000  Uiso   1.00
H394   H     0.26121   0.18385   0.81501   0.00000  Uiso   1.00
H395   H     0.15487   0.02106   0.89023   0.00000  Uiso   1.00
H396   H     0.46166   0.87650   0.67058   0.00000  Uiso   1.00
H397   H     0.28488   0.30981   0.83111   0.00000  Uiso   1.00
H398   H     0.06064   0.96653   0.98974   0.00000  Uiso   1.00
H399   H     0.41251   0.95601   0.97778   0.00000  Uiso   1.00
H400   H     0.50809   0.87047   0.90631   0.00000  Uiso   1.00
H401   H     0.42426   0.07598   0.98243   0.00000  Uiso   1.00
H402   H     0.31792   0.91318   0.05766   0.00000  Uiso   1.00
H403   H     0.59400   0.78895   0.80647   0.00000  Uiso   1.00
H404   H     0.41722   0.22226   0.96700   0.00000  Uiso   1.00
H405   H     0.19298   0.87897   0.12563   0.00000  Uiso   1.00
O406   O     0.58792   0.77832   0.68864   0.00000  Uiso   1.00
O407   O     0.35598   0.34681   0.89926   0.00000  Uiso   1.00
O408   O     0.06179   0.89643   0.10737   0.00000  Uiso   1.00
N409   N     0.47968   0.86762   0.71238   0.00000  Uiso   1.00
N410   N     0.31441   0.27274   0.86245   0.00000  Uiso   1.00
N411   N     0.10476   0.95182   0.01076   0.00000  Uiso   1.00
N412   N     0.55089   0.82051   0.78550   0.00000  Uiso   1.00
N413   N     0.38562   0.22563   0.93557   0.00000  Uiso   1.00
N414   N     0.17597   0.90470   0.08388   0.00000  Uiso   1.00
C415   C     0.43158   0.73101   0.48103   0.00000  Uiso   1.00
C416   C     0.38648   0.80784   0.48694   0.00000  Uiso   1.00
C417   C     0.34129   0.85442   0.44458   0.00000  Uiso   1.00
C418   C     0.30469   0.92248   0.45841   0.00000  Uiso   1.00
C419   C     0.23342   0.03864   0.45931   0.00000  Uiso   1.00
C420   C     0.50860   0.72439   0.48235   0.00000  Uiso   1.00
C421   C     0.56610   0.70081   0.43613   0.00000  Uiso   1.00
C422   C     0.63230   0.69862   0.44611   0.00000  Uiso   1.00
C423   C     0.75063   0.68518   0.43990   0.00000  Uiso   1.00
C424   C     0.41019   0.68686   0.54228   0.00000  Uiso   1.00
C425   C     0.38496   0.63171   0.54645   0.00000  Uiso   1.00
C426   C     0.36833   0.59790   0.60688   0.00000  Uiso   1.00
C427   C     0.33387   0.52619   0.69372   0.00000  Uiso   1.00
C428   C     0.44693   0.76903   0.58094   0.00000  Uiso   1.00
C429   C     0.39482   0.82849   0.54121   0.00000  Uiso   1.00
C430   C     0.35827   0.89649   0.55511   0.00000  Uiso   1.00
C431   C     0.31304   0.94317   0.51278   0.00000  Uiso   1.00
C432   C     0.51694   0.74504   0.53661   0.00000  Uiso   1.00
C433   C     0.58307   0.74288   0.54667   0.00000  Uiso   1.00
C434   C     0.64065   0.71931   0.50047   0.00000  Uiso   1.00
C435   C     0.41853   0.70751   0.59654   0.00000  Uiso   1.00
C436   C     0.40194   0.67378   0.65699   0.00000  Uiso   1.00
C437   C     0.37668   0.61859   0.66125   0.00000  Uiso   1.00
H438   H     0.42510   0.71493   0.43878   0.00000  Uiso   1.00
H439   H     0.33486   0.83842   0.40258   0.00000  Uiso   1.00
H440   H     0.55963   0.68483   0.39414   0.00000  Uiso   1.00
H441   H     0.37852   0.61574   0.50444   0.00000  Uiso   1.00
H442   H     0.23852   0.98445   0.38637   0.00000  Uiso   1.00
H443   H     0.71245   0.66057   0.36858   0.00000  Uiso   1.00
H444   H     0.33055   0.51488   0.60117   0.00000  Uiso   1.00
H445   H     0.45342   0.78511   0.62319   0.00000  Uiso   1.00
H446   H     0.36473   0.91246   0.59711   0.00000  Uiso   1.00
H447   H     0.58950   0.75886   0.58867   0.00000  Uiso   1.00
H448   H     0.40839   0.68978   0.69897   0.00000  Uiso   1.00
H449   H     0.26276   0.04454   0.54425   0.00000  Uiso   1.00
H450   H     0.73670   0.72065   0.52646   0.00000  Uiso   1.00
H451   H     0.35480   0.57497   0.75905   0.00000  Uiso   1.00
O452   O     0.19181   0.09701   0.44481   0.00000  Uiso   1.00
O453   O     0.81359   0.67207   0.42148   0.00000  Uiso   1.00
O454   O     0.31255   0.48094   0.72663   0.00000  Uiso   1.00
N455   N     0.25638   0.98111   0.42711   0.00000  Uiso   1.00
N456   N     0.69948   0.67831   0.41047   0.00000  Uiso   1.00
N457   N     0.34246   0.54209   0.62793   0.00000  Uiso   1.00
N458   N     0.26943   0.01345   0.51207   0.00000  Uiso   1.00
N459   N     0.71253   0.71064   0.49543   0.00000  Uiso   1.00
N460   N     0.35550   0.57443   0.71288   0.00000  Uiso   1.00
C461   C     0.21287   0.49809   0.46731   0.00000  Uiso   1.00
C462   C     0.23229   0.44129   0.42553   0.00000  Uiso   1.00
C463   C     0.29504   0.41979   0.38397   0.00000  Uiso   1.00
C464   C     0.30267   0.36706   0.35000   0.00000  Uiso   1.00
C465   C     0.34090   0.28347   0.28398   0.00000  Uiso   1.00
C466   C     0.14147   0.55233   0.45055   0.00000  Uiso   1.00
C467   C     0.12788   0.62419   0.43003   0.00000  Uiso   1.00
C468   C     0.05906   0.66493   0.41713   0.00000  Uiso   1.00
C469   C     0.95629   0.75374   0.38999   0.00000  Uiso   1.00
C470   C     0.19767   0.46267   0.53515   0.00000  Uiso   1.00
C471   C     0.23130   0.45916   0.58576   0.00000  Uiso   1.00
C472   C     0.20979   0.42443   0.64409   0.00000  Uiso   1.00
C473   C     0.19426   0.37403   0.74830   0.00000  Uiso   1.00
C474   C     0.11483   0.44266   0.48088   0.00000  Uiso   1.00
C475   C     0.17903   0.41118   0.43290   0.00000  Uiso   1.00
C476   C     0.18657   0.35847   0.39899   0.00000  Uiso   1.00
C477   C     0.24933   0.33690   0.35738   0.00000  Uiso   1.00
C478   C     0.08822   0.52222   0.45792   0.00000  Uiso   1.00
C479   C     0.01941   0.56287   0.44505   0.00000  Uiso   1.00
C480   C     0.00571   0.63478   0.42451   0.00000  Uiso   1.00
C481   C     0.14441   0.43256   0.54252   0.00000  Uiso   1.00
C482   C     0.12283   0.39784   0.60078   0.00000  Uiso   1.00
C483   C     0.15643   0.39427   0.65147   0.00000  Uiso   1.00
H484   H     0.25433   0.52153   0.46157   0.00000  Uiso   1.00
H485   H     0.33624   0.44311   0.37828   0.00000  Uiso   1.00
H486   H     0.16910   0.64748   0.42434   0.00000  Uiso   1.00
H487   H     0.27251   0.48247   0.58004   0.00000  Uiso   1.00
H488   H     0.40355   0.34291   0.28916   0.00000  Uiso   1.00
H489   H     0.05113   0.77383   0.38630   0.00000  Uiso   1.00
H490   H     0.26919   0.42588   0.71464   0.00000  Uiso   1.00
H491   H     0.07337   0.41922   0.48662   0.00000  Uiso   1.00
H492   H     0.14535   0.33518   0.40470   0.00000  Uiso   1.00
H493   H     0.97821   0.53955   0.45076   0.00000  Uiso   1.00
H494   H     0.08162   0.37454   0.60646   0.00000  Uiso   1.00
H495   H     0.24862   0.25531   0.31060   0.00000  Uiso   1.00
H496   H     0.89619   0.68624   0.40775   0.00000  Uiso   1.00
H497   H     0.11426   0.33829   0.73608   0.00000  Uiso   1.00
O498   O     0.37669   0.24569   0.24552   0.00000  Uiso   1.00
O499   O     0.91432   0.81105   0.37298   0.00000  Uiso   1.00
O500   O     0.20042   0.35454   0.80375   0.00000  Uiso   1.00
N501   N     0.35722   0.33381   0.30546   0.00000  Uiso   1.00
N502   N     0.02772   0.73670   0.39627   0.00000  Uiso   1.00
N503   N     0.23158   0.41141   0.70324   0.00000  Uiso   1.00
N504   N     0.27385   0.28668   0.31700   0.00000  Uiso   1.00
N505   N     0.94435   0.68957   0.40781   0.00000  Uiso   1.00
N506   N     0.14821   0.36428   0.71478   0.00000  Uiso   1.00
C507   C     0.83224   0.17697   0.34019   0.00000  Uiso   1.00
C508   C     0.90731   0.17525   0.34292   0.00000  Uiso   1.00
C509   C     0.93734   0.22577   0.31059   0.00000  Uiso   1.00
C510   C     0.00674   0.21457   0.31936   0.00000  Uiso   1.00
C511   C     0.11754   0.22094   0.31753   0.00000  Uiso   1.00
C512   C     0.84181   0.10768   0.31913   0.00000  Uiso   1.00
C513   C     0.81676   0.10140   0.26680   0.00000  Uiso   1.00
C514   C     0.83102   0.03331   0.25555   0.00000  Uiso   1.00
C515   C     0.84009   0.93478   0.21681   0.00000  Uiso   1.00
C516   C     0.79549   0.17278   0.40861   0.00000  Uiso   1.00
C517   C     0.73147   0.22122   0.43152   0.00000  Uiso   1.00
C518   C     0.70672   0.20794   0.49561   0.00000  Uiso   1.00
C519   C     0.64386   0.21048   0.59581   0.00000  Uiso   1.00
C520   C     0.90211   0.06722   0.41328   0.00000  Uiso   1.00
C521   C     0.94526   0.11563   0.38262   0.00000  Uiso   1.00
C522   C     0.01463   0.10435   0.39145   0.00000  Uiso   1.00
C523   C     0.04476   0.15485   0.35914   0.00000  Uiso   1.00
C524   C     0.87976   0.04807   0.35882   0.00000  Uiso   1.00
C525   C     0.89406   0.97997   0.34766   0.00000  Uiso   1.00
C526   C     0.86904   0.97359   0.29532   0.00000  Uiso   1.00
C527   C     0.83343   0.11316   0.44831   0.00000  Uiso   1.00
C528   C     0.80877   0.09980   0.51238   0.00000  Uiso   1.00
C529   C     0.74474   0.14822   0.53538   0.00000  Uiso   1.00
H530   H     0.80270   0.22338   0.30928   0.00000  Uiso   1.00
H531   H     0.90796   0.27190   0.27986   0.00000  Uiso   1.00
H532   H     0.78739   0.14754   0.23609   0.00000  Uiso   1.00
H533   H     0.70212   0.26735   0.40078   0.00000  Uiso   1.00
H534   H     0.04139   0.29938   0.26473   0.00000  Uiso   1.00
H535   H     0.78716   0.03718   0.17244   0.00000  Uiso   1.00
H536   H     0.60735   0.28981   0.51973   0.00000  Uiso   1.00
H537   H     0.93165   0.02081   0.44419   0.00000  Uiso   1.00
H538   H     0.04399   0.05821   0.42217   0.00000  Uiso   1.00
H539   H     0.92342   0.93385   0.37839   0.00000  Uiso   1.00
H540   H     0.83815   0.05366   0.54309   0.00000  Uiso   1.00
H541   H     0.15180   0.12595   0.38023   0.00000  Uiso   1.00
H542   H     0.89756   0.86374   0.28794   0.00000  Uiso   1.00
H543   H     0.71775   0.11637   0.63523   0.00000  Uiso   1.00
O544   O     0.16818   0.24091   0.30555   0.00000  Uiso   1.00
O545   O     0.83462   0.89691   0.18447   0.00000  Uiso   1.00
O546   O     0.59871   0.22836   0.64011   0.00000  Uiso   1.00
N547   N     0.05196   0.25344   0.29495   0.00000  Uiso   1.00
N548   N     0.81427   0.00829   0.20865   0.00000  Uiso   1.00
N549   N     0.64615   0.24447   0.53334   0.00000  Uiso   1.00
N550   N     0.11137   0.16011   0.35710   0.00000  Uiso   1.00
N551   N     0.87368   0.91496   0.27080   0.00000  Uiso   1.00
N552   N     0.70556   0.15115   0.59549   0.00000  Uiso   1.00
