data_job_01341
_audit_creation_date              2018-12-19
_audit_creation_method            'Materials Studio'
_symmetry_space_group_name_H-M    'P1'
_symmetry_Int_Tables_number       1
_symmetry_cell_setting            triclinic
loop_
_symmetry_equiv_pos_as_xyz
  x,y,z
_cell_length_a                    13.6836
_cell_length_b                    17.2679
_cell_length_c                    21.9957
_cell_angle_alpha                 90.0000
_cell_angle_beta                  90.0000
_cell_angle_gamma                 90.0000
loop_
_atom_site_label
_atom_site_type_symbol
_atom_site_fract_x
_atom_site_fract_y
_atom_site_fract_z
_atom_site_U_iso_or_equiv
_atom_site_adp_type
_atom_site_occupancy
C1     C     0.65384   0.40506   0.74920   0.00000  Uiso   1.00
C2     C     0.63404   0.40668   0.68099   0.00000  Uiso   1.00
C3     C     0.70175   0.39078   0.63570   0.00000  Uiso   1.00
C4     C     0.66926   0.39536   0.57601   0.00000  Uiso   1.00
C5     C     0.65322   0.39481   0.47220   0.00000  Uiso   1.00
C6     C     0.57995   0.34856   0.77614   0.00000  Uiso   1.00
C7     C     0.60218   0.28380   0.81086   0.00000  Uiso   1.00
C8     C     0.52415   0.23946   0.83128   0.00000  Uiso   1.00
C9     C     0.42413   0.14873   0.87523   0.00000  Uiso   1.00
C10    C     0.62548   0.48489   0.77302   0.00000  Uiso   1.00
C11    C     0.68598   0.53476   0.80513   0.00000  Uiso   1.00
C12    C     0.64628   0.60520   0.82294   0.00000  Uiso   1.00
C13    C     0.61695   0.72614   0.86204   0.00000  Uiso   1.00
C14    C     0.47575   0.44146   0.72372   0.00000  Uiso   1.00
C15    C     0.53731   0.42644   0.66715   0.00000  Uiso   1.00
C16    C     0.50471   0.43105   0.60751   0.00000  Uiso   1.00
C17    C     0.57236   0.41516   0.56215   0.00000  Uiso   1.00
C18    C     0.48322   0.36833   0.76230   0.00000  Uiso   1.00
C19    C     0.40514   0.32407   0.78267   0.00000  Uiso   1.00
C20    C     0.42725   0.25927   0.81742   0.00000  Uiso   1.00
C21    C     0.52875   0.50466   0.75918   0.00000  Uiso   1.00
C22    C     0.48894   0.57504   0.77694   0.00000  Uiso   1.00
C23    C     0.54937   0.62501   0.80907   0.00000  Uiso   1.00
H24    H     0.72914   0.38967   0.75998   0.00000  Uiso   1.00
H25    H     0.77660   0.37547   0.64643   0.00000  Uiso   1.00
H26    H     0.67704   0.26852   0.82157   0.00000  Uiso   1.00
H27    H     0.76083   0.51945   0.81583   0.00000  Uiso   1.00
H28    H     0.78654   0.36843   0.51444   0.00000  Uiso   1.00
H29    H     0.57662   0.14293   0.88374   0.00000  Uiso   1.00
H30    H     0.75331   0.67205   0.87166   0.00000  Uiso   1.00
H31    H     0.40043   0.45685   0.71295   0.00000  Uiso   1.00
H32    H     0.42985   0.44635   0.59682   0.00000  Uiso   1.00
H33    H     0.33030   0.33939   0.77196   0.00000  Uiso   1.00
H34    H     0.41409   0.59032   0.76623   0.00000  Uiso   1.00
H35    H     0.50511   0.42595   0.47417   0.00000  Uiso   1.00
H36    H     0.29519   0.20045   0.84348   0.00000  Uiso   1.00
H37    H     0.47187   0.72957   0.83139   0.00000  Uiso   1.00
O38    O     0.67110   0.38904   0.41876   0.00000  Uiso   1.00
O39    O     0.39569   0.09321   0.90329   0.00000  Uiso   1.00
O40    O     0.62750   0.78740   0.88743   0.00000  Uiso   1.00
N41    N     0.71627   0.38342   0.52090   0.00000  Uiso   1.00
N42    N     0.52001   0.17259   0.86617   0.00000  Uiso   1.00
N43    N     0.68519   0.66726   0.85489   0.00000  Uiso   1.00
N44    N     0.56484   0.41438   0.49923   0.00000  Uiso   1.00
N45    N     0.36857   0.20354   0.84450   0.00000  Uiso   1.00
N46    N     0.53375   0.69821   0.83322   0.00000  Uiso   1.00
C47    C     0.84616   0.09494   0.74920   0.00000  Uiso   1.00
C48    C     0.86596   0.09332   0.68099   0.00000  Uiso   1.00
C49    C     0.79825   0.10922   0.63570   0.00000  Uiso   1.00
C50    C     0.83074   0.10464   0.57601   0.00000  Uiso   1.00
C51    C     0.84678   0.10519   0.47220   0.00000  Uiso   1.00
C52    C     0.92005   0.15144   0.77614   0.00000  Uiso   1.00
C53    C     0.89782   0.21620   0.81086   0.00000  Uiso   1.00
C54    C     0.97585   0.26054   0.83128   0.00000  Uiso   1.00
C55    C     0.07587   0.35127   0.87523   0.00000  Uiso   1.00
C56    C     0.87452   0.01511   0.77302   0.00000  Uiso   1.00
C57    C     0.81402   0.96524   0.80513   0.00000  Uiso   1.00
C58    C     0.85372   0.89480   0.82294   0.00000  Uiso   1.00
C59    C     0.88305   0.77386   0.86204   0.00000  Uiso   1.00
C60    C     0.02425   0.05854   0.72372   0.00000  Uiso   1.00
C61    C     0.96269   0.07356   0.66715   0.00000  Uiso   1.00
C62    C     0.99529   0.06895   0.60751   0.00000  Uiso   1.00
C63    C     0.92764   0.08484   0.56215   0.00000  Uiso   1.00
C64    C     0.01678   0.13167   0.76230   0.00000  Uiso   1.00
C65    C     0.09486   0.17593   0.78267   0.00000  Uiso   1.00
C66    C     0.07275   0.24073   0.81742   0.00000  Uiso   1.00
C67    C     0.97125   0.99534   0.75918   0.00000  Uiso   1.00
C68    C     0.01106   0.92496   0.77694   0.00000  Uiso   1.00
C69    C     0.95063   0.87499   0.80907   0.00000  Uiso   1.00
H70    H     0.77086   0.11033   0.75998   0.00000  Uiso   1.00
H71    H     0.72340   0.12453   0.64643   0.00000  Uiso   1.00
H72    H     0.82296   0.23148   0.82157   0.00000  Uiso   1.00
H73    H     0.73917   0.98055   0.81583   0.00000  Uiso   1.00
H74    H     0.71346   0.13157   0.51444   0.00000  Uiso   1.00
H75    H     0.92338   0.35707   0.88374   0.00000  Uiso   1.00
H76    H     0.74669   0.82795   0.87166   0.00000  Uiso   1.00
H77    H     0.09957   0.04315   0.71295   0.00000  Uiso   1.00
H78    H     0.07015   0.05365   0.59682   0.00000  Uiso   1.00
H79    H     0.16970   0.16061   0.77196   0.00000  Uiso   1.00
H80    H     0.08591   0.90968   0.76623   0.00000  Uiso   1.00
H81    H     0.99489   0.07405   0.47417   0.00000  Uiso   1.00
H82    H     0.20481   0.29955   0.84348   0.00000  Uiso   1.00
H83    H     0.02813   0.77043   0.83139   0.00000  Uiso   1.00
O84    O     0.82890   0.11096   0.41876   0.00000  Uiso   1.00
O85    O     0.10431   0.40679   0.90329   0.00000  Uiso   1.00
O86    O     0.87250   0.71260   0.88743   0.00000  Uiso   1.00
N87    N     0.78373   0.11658   0.52090   0.00000  Uiso   1.00
N88    N     0.97999   0.32741   0.86617   0.00000  Uiso   1.00
N89    N     0.81481   0.83274   0.85489   0.00000  Uiso   1.00
N90    N     0.93516   0.08562   0.49923   0.00000  Uiso   1.00
N91    N     0.13143   0.29646   0.84450   0.00000  Uiso   1.00
N92    N     0.96625   0.80179   0.83322   0.00000  Uiso   1.00
C93    C     0.34616   0.90506   0.75080   0.00000  Uiso   1.00
C94    C     0.36596   0.90668   0.81901   0.00000  Uiso   1.00
C95    C     0.29825   0.89078   0.86430   0.00000  Uiso   1.00
C96    C     0.33074   0.89536   0.92399   0.00000  Uiso   1.00
C97    C     0.34678   0.89481   0.02780   0.00000  Uiso   1.00
C98    C     0.42005   0.84856   0.72386   0.00000  Uiso   1.00
C99    C     0.39782   0.78380   0.68914   0.00000  Uiso   1.00
C100   C     0.47585   0.73946   0.66872   0.00000  Uiso   1.00
C101   C     0.57587   0.64873   0.62477   0.00000  Uiso   1.00
C102   C     0.37452   0.98489   0.72698   0.00000  Uiso   1.00
C103   C     0.31402   0.03476   0.69487   0.00000  Uiso   1.00
C104   C     0.35372   0.10520   0.67706   0.00000  Uiso   1.00
C105   C     0.38305   0.22614   0.63796   0.00000  Uiso   1.00
C106   C     0.52425   0.94146   0.77628   0.00000  Uiso   1.00
C107   C     0.46269   0.92644   0.83285   0.00000  Uiso   1.00
C108   C     0.49529   0.93105   0.89249   0.00000  Uiso   1.00
C109   C     0.42764   0.91516   0.93785   0.00000  Uiso   1.00
C110   C     0.51678   0.86833   0.73770   0.00000  Uiso   1.00
C111   C     0.59486   0.82407   0.71733   0.00000  Uiso   1.00
C112   C     0.57275   0.75927   0.68258   0.00000  Uiso   1.00
C113   C     0.47125   0.00466   0.74082   0.00000  Uiso   1.00
C114   C     0.51106   0.07504   0.72306   0.00000  Uiso   1.00
C115   C     0.45063   0.12501   0.69093   0.00000  Uiso   1.00
H116   H     0.27086   0.88967   0.74002   0.00000  Uiso   1.00
H117   H     0.22340   0.87547   0.85357   0.00000  Uiso   1.00
H118   H     0.32296   0.76852   0.67843   0.00000  Uiso   1.00
H119   H     0.23917   0.01945   0.68417   0.00000  Uiso   1.00
H120   H     0.21346   0.86843   0.98556   0.00000  Uiso   1.00
H121   H     0.42338   0.64293   0.61626   0.00000  Uiso   1.00
H122   H     0.24669   0.17205   0.62834   0.00000  Uiso   1.00
H123   H     0.59957   0.95685   0.78705   0.00000  Uiso   1.00
H124   H     0.57015   0.94635   0.90318   0.00000  Uiso   1.00
H125   H     0.66970   0.83939   0.72804   0.00000  Uiso   1.00
H126   H     0.58591   0.09032   0.73377   0.00000  Uiso   1.00
H127   H     0.49489   0.92595   0.02583   0.00000  Uiso   1.00
H128   H     0.70481   0.70045   0.65652   0.00000  Uiso   1.00
H129   H     0.52813   0.22957   0.66861   0.00000  Uiso   1.00
O130   O     0.32890   0.88904   0.08124   0.00000  Uiso   1.00
O131   O     0.60431   0.59321   0.59671   0.00000  Uiso   1.00
O132   O     0.37250   0.28740   0.61257   0.00000  Uiso   1.00
N133   N     0.28373   0.88342   0.97910   0.00000  Uiso   1.00
N134   N     0.47999   0.67259   0.63383   0.00000  Uiso   1.00
N135   N     0.31481   0.16726   0.64511   0.00000  Uiso   1.00
N136   N     0.43516   0.91438   0.00077   0.00000  Uiso   1.00
N137   N     0.63143   0.70354   0.65550   0.00000  Uiso   1.00
N138   N     0.46625   0.19821   0.66678   0.00000  Uiso   1.00
C139   C     0.15384   0.59494   0.75080   0.00000  Uiso   1.00
C140   C     0.13404   0.59332   0.81901   0.00000  Uiso   1.00
C141   C     0.20175   0.60922   0.86430   0.00000  Uiso   1.00
C142   C     0.16926   0.60464   0.92399   0.00000  Uiso   1.00
C143   C     0.15322   0.60519   0.02780   0.00000  Uiso   1.00
C144   C     0.07995   0.65144   0.72386   0.00000  Uiso   1.00
C145   C     0.10218   0.71620   0.68914   0.00000  Uiso   1.00
C146   C     0.02415   0.76054   0.66872   0.00000  Uiso   1.00
C147   C     0.92413   0.85127   0.62477   0.00000  Uiso   1.00
C148   C     0.12548   0.51511   0.72698   0.00000  Uiso   1.00
C149   C     0.18598   0.46524   0.69487   0.00000  Uiso   1.00
C150   C     0.14628   0.39480   0.67706   0.00000  Uiso   1.00
C151   C     0.11695   0.27386   0.63796   0.00000  Uiso   1.00
C152   C     0.97575   0.55854   0.77628   0.00000  Uiso   1.00
C153   C     0.03731   0.57356   0.83285   0.00000  Uiso   1.00
C154   C     0.00471   0.56895   0.89249   0.00000  Uiso   1.00
C155   C     0.07236   0.58484   0.93785   0.00000  Uiso   1.00
C156   C     0.98322   0.63167   0.73770   0.00000  Uiso   1.00
C157   C     0.90514   0.67593   0.71733   0.00000  Uiso   1.00
C158   C     0.92725   0.74073   0.68258   0.00000  Uiso   1.00
C159   C     0.02875   0.49534   0.74082   0.00000  Uiso   1.00
C160   C     0.98894   0.42496   0.72306   0.00000  Uiso   1.00
C161   C     0.04937   0.37499   0.69093   0.00000  Uiso   1.00
H162   H     0.22914   0.61033   0.74002   0.00000  Uiso   1.00
H163   H     0.27660   0.62453   0.85357   0.00000  Uiso   1.00
H164   H     0.17704   0.73148   0.67843   0.00000  Uiso   1.00
H165   H     0.26083   0.48055   0.68417   0.00000  Uiso   1.00
H166   H     0.28654   0.63157   0.98556   0.00000  Uiso   1.00
H167   H     0.07662   0.85707   0.61626   0.00000  Uiso   1.00
H168   H     0.25331   0.32795   0.62834   0.00000  Uiso   1.00
H169   H     0.90043   0.54315   0.78705   0.00000  Uiso   1.00
H170   H     0.92985   0.55365   0.90318   0.00000  Uiso   1.00
H171   H     0.83030   0.66061   0.72804   0.00000  Uiso   1.00
H172   H     0.91409   0.40968   0.73377   0.00000  Uiso   1.00
H173   H     0.00511   0.57405   0.02583   0.00000  Uiso   1.00
H174   H     0.79519   0.79955   0.65652   0.00000  Uiso   1.00
H175   H     0.97187   0.27043   0.66861   0.00000  Uiso   1.00
O176   O     0.17110   0.61096   0.08124   0.00000  Uiso   1.00
O177   O     0.89569   0.90679   0.59671   0.00000  Uiso   1.00
O178   O     0.12750   0.21260   0.61257   0.00000  Uiso   1.00
N179   N     0.21627   0.61658   0.97910   0.00000  Uiso   1.00
N180   N     0.02001   0.82741   0.63383   0.00000  Uiso   1.00
N181   N     0.18519   0.33274   0.64511   0.00000  Uiso   1.00
N182   N     0.06484   0.58562   0.00077   0.00000  Uiso   1.00
N183   N     0.86857   0.79646   0.65550   0.00000  Uiso   1.00
N184   N     0.03375   0.30179   0.66678   0.00000  Uiso   1.00
C185   C     0.34616   0.59494   0.25080   0.00000  Uiso   1.00
C186   C     0.36596   0.59332   0.31901   0.00000  Uiso   1.00
C187   C     0.29825   0.60922   0.36430   0.00000  Uiso   1.00
C188   C     0.33074   0.60464   0.42399   0.00000  Uiso   1.00
C189   C     0.34678   0.60519   0.52780   0.00000  Uiso   1.00
C190   C     0.42005   0.65144   0.22386   0.00000  Uiso   1.00
C191   C     0.39782   0.71620   0.18914   0.00000  Uiso   1.00
C192   C     0.47585   0.76054   0.16872   0.00000  Uiso   1.00
C193   C     0.57587   0.85127   0.12477   0.00000  Uiso   1.00
C194   C     0.37452   0.51511   0.22698   0.00000  Uiso   1.00
C195   C     0.31402   0.46524   0.19487   0.00000  Uiso   1.00
C196   C     0.35372   0.39480   0.17706   0.00000  Uiso   1.00
C197   C     0.38305   0.27386   0.13796   0.00000  Uiso   1.00
C198   C     0.52425   0.55854   0.27628   0.00000  Uiso   1.00
C199   C     0.46269   0.57356   0.33285   0.00000  Uiso   1.00
C200   C     0.49529   0.56895   0.39249   0.00000  Uiso   1.00
C201   C     0.42764   0.58484   0.43785   0.00000  Uiso   1.00
C202   C     0.51678   0.63167   0.23770   0.00000  Uiso   1.00
C203   C     0.59486   0.67593   0.21733   0.00000  Uiso   1.00
C204   C     0.57275   0.74073   0.18258   0.00000  Uiso   1.00
C205   C     0.47125   0.49534   0.24082   0.00000  Uiso   1.00
C206   C     0.51106   0.42496   0.22306   0.00000  Uiso   1.00
C207   C     0.45063   0.37499   0.19093   0.00000  Uiso   1.00
H208   H     0.27086   0.61033   0.24002   0.00000  Uiso   1.00
H209   H     0.22340   0.62453   0.35357   0.00000  Uiso   1.00
H210   H     0.32296   0.73148   0.17843   0.00000  Uiso   1.00
H211   H     0.23917   0.48055   0.18417   0.00000  Uiso   1.00
H212   H     0.21346   0.63157   0.48556   0.00000  Uiso   1.00
H213   H     0.42338   0.85707   0.11626   0.00000  Uiso   1.00
H214   H     0.24669   0.32795   0.12834   0.00000  Uiso   1.00
H215   H     0.59957   0.54315   0.28705   0.00000  Uiso   1.00
H216   H     0.57015   0.55365   0.40318   0.00000  Uiso   1.00
H217   H     0.66970   0.66061   0.22804   0.00000  Uiso   1.00
H218   H     0.58591   0.40968   0.23377   0.00000  Uiso   1.00
H219   H     0.49489   0.57405   0.52583   0.00000  Uiso   1.00
H220   H     0.70481   0.79955   0.15652   0.00000  Uiso   1.00
H221   H     0.52813   0.27043   0.16861   0.00000  Uiso   1.00
O222   O     0.32890   0.61096   0.58124   0.00000  Uiso   1.00
O223   O     0.60431   0.90679   0.09671   0.00000  Uiso   1.00
O224   O     0.37250   0.21260   0.11257   0.00000  Uiso   1.00
N225   N     0.28373   0.61658   0.47910   0.00000  Uiso   1.00
N226   N     0.47999   0.82741   0.13383   0.00000  Uiso   1.00
N227   N     0.31481   0.33274   0.14511   0.00000  Uiso   1.00
N228   N     0.43516   0.58562   0.50077   0.00000  Uiso   1.00
N229   N     0.63143   0.79646   0.15550   0.00000  Uiso   1.00
N230   N     0.46625   0.30179   0.16678   0.00000  Uiso   1.00
C231   C     0.15384   0.90506   0.25080   0.00000  Uiso   1.00
C232   C     0.13404   0.90668   0.31901   0.00000  Uiso   1.00
C233   C     0.20175   0.89078   0.36430   0.00000  Uiso   1.00
C234   C     0.16926   0.89536   0.42399   0.00000  Uiso   1.00
C235   C     0.15322   0.89481   0.52780   0.00000  Uiso   1.00
C236   C     0.07995   0.84856   0.22386   0.00000  Uiso   1.00
C237   C     0.10218   0.78380   0.18914   0.00000  Uiso   1.00
C238   C     0.02415   0.73946   0.16872   0.00000  Uiso   1.00
C239   C     0.92413   0.64873   0.12477   0.00000  Uiso   1.00
C240   C     0.12548   0.98489   0.22698   0.00000  Uiso   1.00
C241   C     0.18598   0.03476   0.19487   0.00000  Uiso   1.00
C242   C     0.14628   0.10520   0.17706   0.00000  Uiso   1.00
C243   C     0.11695   0.22614   0.13796   0.00000  Uiso   1.00
C244   C     0.97575   0.94146   0.27628   0.00000  Uiso   1.00
C245   C     0.03731   0.92644   0.33285   0.00000  Uiso   1.00
C246   C     0.00471   0.93105   0.39249   0.00000  Uiso   1.00
C247   C     0.07236   0.91516   0.43785   0.00000  Uiso   1.00
C248   C     0.98322   0.86833   0.23770   0.00000  Uiso   1.00
C249   C     0.90514   0.82407   0.21733   0.00000  Uiso   1.00
C250   C     0.92725   0.75927   0.18258   0.00000  Uiso   1.00
C251   C     0.02875   0.00466   0.24082   0.00000  Uiso   1.00
C252   C     0.98894   0.07504   0.22306   0.00000  Uiso   1.00
C253   C     0.04937   0.12501   0.19093   0.00000  Uiso   1.00
H254   H     0.22914   0.88967   0.24002   0.00000  Uiso   1.00
H255   H     0.27660   0.87547   0.35357   0.00000  Uiso   1.00
H256   H     0.17704   0.76852   0.17843   0.00000  Uiso   1.00
H257   H     0.26083   0.01945   0.18417   0.00000  Uiso   1.00
H258   H     0.28654   0.86843   0.48556   0.00000  Uiso   1.00
H259   H     0.07662   0.64293   0.11626   0.00000  Uiso   1.00
H260   H     0.25331   0.17205   0.12834   0.00000  Uiso   1.00
H261   H     0.90043   0.95685   0.28705   0.00000  Uiso   1.00
H262   H     0.92985   0.94635   0.40318   0.00000  Uiso   1.00
H263   H     0.83030   0.83939   0.22804   0.00000  Uiso   1.00
H264   H     0.91409   0.09032   0.23377   0.00000  Uiso   1.00
H265   H     0.00511   0.92595   0.52583   0.00000  Uiso   1.00
H266   H     0.79519   0.70045   0.15652   0.00000  Uiso   1.00
H267   H     0.97187   0.22957   0.16861   0.00000  Uiso   1.00
O268   O     0.17110   0.88904   0.58124   0.00000  Uiso   1.00
O269   O     0.89569   0.59321   0.09671   0.00000  Uiso   1.00
O270   O     0.12750   0.28740   0.11257   0.00000  Uiso   1.00
N271   N     0.21627   0.88342   0.47910   0.00000  Uiso   1.00
N272   N     0.02001   0.67259   0.13383   0.00000  Uiso   1.00
N273   N     0.18519   0.16726   0.14511   0.00000  Uiso   1.00
N274   N     0.06484   0.91438   0.50077   0.00000  Uiso   1.00
N275   N     0.86857   0.70354   0.15550   0.00000  Uiso   1.00
N276   N     0.03375   0.19821   0.16678   0.00000  Uiso   1.00
C277   C     0.65384   0.09494   0.24920   0.00000  Uiso   1.00
C278   C     0.63404   0.09332   0.18099   0.00000  Uiso   1.00
C279   C     0.70175   0.10922   0.13570   0.00000  Uiso   1.00
C280   C     0.66926   0.10464   0.07601   0.00000  Uiso   1.00
C281   C     0.65322   0.10519   0.97220   0.00000  Uiso   1.00
C282   C     0.57995   0.15144   0.27614   0.00000  Uiso   1.00
C283   C     0.60218   0.21620   0.31086   0.00000  Uiso   1.00
C284   C     0.52415   0.26054   0.33128   0.00000  Uiso   1.00
C285   C     0.42413   0.35127   0.37523   0.00000  Uiso   1.00
C286   C     0.62548   0.01511   0.27302   0.00000  Uiso   1.00
C287   C     0.68598   0.96524   0.30513   0.00000  Uiso   1.00
C288   C     0.64628   0.89480   0.32294   0.00000  Uiso   1.00
C289   C     0.61695   0.77386   0.36204   0.00000  Uiso   1.00
C290   C     0.47575   0.05854   0.22372   0.00000  Uiso   1.00
C291   C     0.53731   0.07356   0.16715   0.00000  Uiso   1.00
C292   C     0.50471   0.06895   0.10751   0.00000  Uiso   1.00
C293   C     0.57236   0.08484   0.06215   0.00000  Uiso   1.00
C294   C     0.48322   0.13167   0.26230   0.00000  Uiso   1.00
C295   C     0.40514   0.17593   0.28267   0.00000  Uiso   1.00
C296   C     0.42725   0.24073   0.31742   0.00000  Uiso   1.00
C297   C     0.52875   0.99534   0.25918   0.00000  Uiso   1.00
C298   C     0.48894   0.92496   0.27694   0.00000  Uiso   1.00
C299   C     0.54937   0.87499   0.30907   0.00000  Uiso   1.00
H300   H     0.72914   0.11033   0.25998   0.00000  Uiso   1.00
H301   H     0.77660   0.12453   0.14643   0.00000  Uiso   1.00
H302   H     0.67704   0.23148   0.32157   0.00000  Uiso   1.00
H303   H     0.76083   0.98055   0.31583   0.00000  Uiso   1.00
H304   H     0.78654   0.13157   0.01444   0.00000  Uiso   1.00
H305   H     0.57662   0.35707   0.38374   0.00000  Uiso   1.00
H306   H     0.75331   0.82795   0.37166   0.00000  Uiso   1.00
H307   H     0.40043   0.04315   0.21295   0.00000  Uiso   1.00
H308   H     0.42985   0.05365   0.09682   0.00000  Uiso   1.00
H309   H     0.33030   0.16061   0.27196   0.00000  Uiso   1.00
H310   H     0.41409   0.90968   0.26623   0.00000  Uiso   1.00
H311   H     0.50511   0.07405   0.97417   0.00000  Uiso   1.00
H312   H     0.29519   0.29955   0.34348   0.00000  Uiso   1.00
H313   H     0.47187   0.77043   0.33139   0.00000  Uiso   1.00
O314   O     0.67110   0.11096   0.91876   0.00000  Uiso   1.00
O315   O     0.39569   0.40679   0.40329   0.00000  Uiso   1.00
O316   O     0.62750   0.71260   0.38743   0.00000  Uiso   1.00
N317   N     0.71627   0.11658   0.02090   0.00000  Uiso   1.00
N318   N     0.52001   0.32741   0.36617   0.00000  Uiso   1.00
N319   N     0.68519   0.83274   0.35489   0.00000  Uiso   1.00
N320   N     0.56484   0.08562   0.99923   0.00000  Uiso   1.00
N321   N     0.36857   0.29646   0.34450   0.00000  Uiso   1.00
N322   N     0.53375   0.80179   0.33322   0.00000  Uiso   1.00
C323   C     0.84616   0.40506   0.24920   0.00000  Uiso   1.00
C324   C     0.86596   0.40668   0.18099   0.00000  Uiso   1.00
C325   C     0.79825   0.39078   0.13570   0.00000  Uiso   1.00
C326   C     0.83074   0.39536   0.07601   0.00000  Uiso   1.00
C327   C     0.84678   0.39481   0.97220   0.00000  Uiso   1.00
C328   C     0.92005   0.34856   0.27614   0.00000  Uiso   1.00
C329   C     0.89782   0.28380   0.31086   0.00000  Uiso   1.00
C330   C     0.97585   0.23946   0.33128   0.00000  Uiso   1.00
C331   C     0.07587   0.14873   0.37523   0.00000  Uiso   1.00
C332   C     0.87452   0.48489   0.27302   0.00000  Uiso   1.00
C333   C     0.81402   0.53476   0.30513   0.00000  Uiso   1.00
C334   C     0.85372   0.60520   0.32294   0.00000  Uiso   1.00
C335   C     0.88305   0.72614   0.36204   0.00000  Uiso   1.00
C336   C     0.02425   0.44146   0.22372   0.00000  Uiso   1.00
C337   C     0.96269   0.42644   0.16715   0.00000  Uiso   1.00
C338   C     0.99529   0.43105   0.10751   0.00000  Uiso   1.00
C339   C     0.92764   0.41516   0.06215   0.00000  Uiso   1.00
C340   C     0.01678   0.36833   0.26230   0.00000  Uiso   1.00
C341   C     0.09486   0.32407   0.28267   0.00000  Uiso   1.00
C342   C     0.07275   0.25927   0.31742   0.00000  Uiso   1.00
C343   C     0.97125   0.50466   0.25918   0.00000  Uiso   1.00
C344   C     0.01106   0.57504   0.27694   0.00000  Uiso   1.00
C345   C     0.95063   0.62501   0.30907   0.00000  Uiso   1.00
H346   H     0.77086   0.38967   0.25998   0.00000  Uiso   1.00
H347   H     0.72340   0.37547   0.14643   0.00000  Uiso   1.00
H348   H     0.82296   0.26852   0.32157   0.00000  Uiso   1.00
H349   H     0.73917   0.51945   0.31583   0.00000  Uiso   1.00
H350   H     0.71346   0.36843   0.01444   0.00000  Uiso   1.00
H351   H     0.92338   0.14293   0.38374   0.00000  Uiso   1.00
H352   H     0.74669   0.67205   0.37166   0.00000  Uiso   1.00
H353   H     0.09957   0.45685   0.21295   0.00000  Uiso   1.00
H354   H     0.07015   0.44635   0.09682   0.00000  Uiso   1.00
H355   H     0.16970   0.33939   0.27196   0.00000  Uiso   1.00
H356   H     0.08591   0.59032   0.26623   0.00000  Uiso   1.00
H357   H     0.99489   0.42595   0.97417   0.00000  Uiso   1.00
H358   H     0.20481   0.20045   0.34348   0.00000  Uiso   1.00
H359   H     0.02813   0.72957   0.33139   0.00000  Uiso   1.00
O360   O     0.82890   0.38904   0.91876   0.00000  Uiso   1.00
O361   O     0.10431   0.09321   0.40329   0.00000  Uiso   1.00
O362   O     0.87250   0.78740   0.38743   0.00000  Uiso   1.00
N363   N     0.78373   0.38342   0.02090   0.00000  Uiso   1.00
N364   N     0.97999   0.17259   0.36617   0.00000  Uiso   1.00
N365   N     0.81481   0.66726   0.35489   0.00000  Uiso   1.00
N366   N     0.93516   0.41438   0.99923   0.00000  Uiso   1.00
N367   N     0.13143   0.20354   0.34450   0.00000  Uiso   1.00
N368   N     0.96625   0.69821   0.33322   0.00000  Uiso   1.00
