data_job_03149
_audit_creation_date              2018-12-19
_audit_creation_method            'Materials Studio'
_symmetry_space_group_name_H-M    'P1'
_symmetry_Int_Tables_number       1
_symmetry_cell_setting            triclinic
loop_
_symmetry_equiv_pos_as_xyz
  x,y,z
_cell_length_a                    11.2477
_cell_length_b                    11.2477
_cell_length_c                    37.9425
_cell_angle_alpha                 90.0000
_cell_angle_beta                  90.0000
_cell_angle_gamma                 90.0000
loop_
_atom_site_label
_atom_site_type_symbol
_atom_site_fract_x
_atom_site_fract_y
_atom_site_fract_z
_atom_site_U_iso_or_equiv
_atom_site_adp_type
_atom_site_occupancy
C1     C     0.75030   0.30991   0.52617   0.00000  Uiso   1.00
C2     C     0.84312   0.30088   0.49699   0.00000  Uiso   1.00
C3     C     0.82417   0.25497   0.46351   0.00000  Uiso   1.00
C4     C     0.92050   0.25454   0.44063   0.00000  Uiso   1.00
C5     C     0.04772   0.23379   0.39378   0.00000  Uiso   1.00
C6     C     0.80196   0.24363   0.55770   0.00000  Uiso   1.00
C7     C     0.74838   0.14959   0.57527   0.00000  Uiso   1.00
C8     C     0.81006   0.10097   0.60350   0.00000  Uiso   1.00
C9     C     0.87334   0.99138   0.65092   0.00000  Uiso   1.00
C10    C     0.74617   0.44062   0.53676   0.00000  Uiso   1.00
C11    C     0.64567   0.51222   0.53672   0.00000  Uiso   1.00
C12    C     0.66037   0.62945   0.54732   0.00000  Uiso   1.00
C13    C     0.63702   0.82573   0.56221   0.00000  Uiso   1.00
C14    C     0.95509   0.39078   0.54507   0.00000  Uiso   1.00
C15    C     0.95435   0.34481   0.50726   0.00000  Uiso   1.00
C16    C     0.05074   0.34445   0.48443   0.00000  Uiso   1.00
C17    C     0.03193   0.29855   0.45092   0.00000  Uiso   1.00
C18    C     0.91319   0.28755   0.56797   0.00000  Uiso   1.00
C19    C     0.97496   0.23906   0.59619   0.00000  Uiso   1.00
C20    C     0.92150   0.14497   0.61379   0.00000  Uiso   1.00
C21    C     0.85740   0.48455   0.54702   0.00000  Uiso   1.00
C22    C     0.87225   0.60169   0.55763   0.00000  Uiso   1.00
C23    C     0.77181   0.67345   0.55761   0.00000  Uiso   1.00
H24    H     0.66370   0.27570   0.51817   0.00000  Uiso   1.00
H25    H     0.73807   0.22098   0.45558   0.00000  Uiso   1.00
H26    H     0.66230   0.11562   0.56732   0.00000  Uiso   1.00
H27    H     0.55961   0.47819   0.52877   0.00000  Uiso   1.00
H28    H     0.86959   0.17964   0.39071   0.00000  Uiso   1.00
H29    H     0.70980   0.95751   0.62633   0.00000  Uiso   1.00
H30    H     0.49326   0.72206   0.54505   0.00000  Uiso   1.00
H31    H     0.04169   0.42498   0.55307   0.00000  Uiso   1.00
H32    H     0.13681   0.37845   0.49238   0.00000  Uiso   1.00
H33    H     0.06103   0.27308   0.60413   0.00000  Uiso   1.00
H34    H     0.95834   0.63566   0.56558   0.00000  Uiso   1.00
H35    H     0.19322   0.30744   0.42058   0.00000  Uiso   1.00
H36    H     0.03343   0.08531   0.65621   0.00000  Uiso   1.00
H37    H     0.81689   0.84986   0.57492   0.00000  Uiso   1.00
O38    O     0.08717   0.21020   0.36510   0.00000  Uiso   1.00
O39    O     0.87751   0.91879   0.67424   0.00000  Uiso   1.00
O40    O     0.59342   0.92186   0.56759   0.00000  Uiso   1.00
N41    N     0.93270   0.21612   0.40607   0.00000  Uiso   1.00
N42    N     0.78331   0.00843   0.62636   0.00000  Uiso   1.00
N43    N     0.58085   0.72322   0.55037   0.00000  Uiso   1.00
N44    N     0.10684   0.28489   0.42214   0.00000  Uiso   1.00
N45    N     0.95745   0.07720   0.64243   0.00000  Uiso   1.00
N46    N     0.75500   0.79199   0.56645   0.00000  Uiso   1.00
C47    C     0.24970   0.69009   0.02617   0.00000  Uiso   1.00
C48    C     0.15688   0.69912   0.99699   0.00000  Uiso   1.00
C49    C     0.17583   0.74503   0.96351   0.00000  Uiso   1.00
C50    C     0.07950   0.74546   0.94063   0.00000  Uiso   1.00
C51    C     0.95228   0.76621   0.89378   0.00000  Uiso   1.00
C52    C     0.19804   0.75637   0.05770   0.00000  Uiso   1.00
C53    C     0.25162   0.85041   0.07527   0.00000  Uiso   1.00
C54    C     0.18994   0.89903   0.10350   0.00000  Uiso   1.00
C55    C     0.12666   0.00862   0.15092   0.00000  Uiso   1.00
C56    C     0.25383   0.55938   0.03676   0.00000  Uiso   1.00
C57    C     0.35433   0.48778   0.03672   0.00000  Uiso   1.00
C58    C     0.33963   0.37055   0.04732   0.00000  Uiso   1.00
C59    C     0.36298   0.17427   0.06221   0.00000  Uiso   1.00
C60    C     0.04491   0.60922   0.04507   0.00000  Uiso   1.00
C61    C     0.04565   0.65519   0.00726   0.00000  Uiso   1.00
C62    C     0.94926   0.65555   0.98443   0.00000  Uiso   1.00
C63    C     0.96807   0.70145   0.95092   0.00000  Uiso   1.00
C64    C     0.08681   0.71245   0.06797   0.00000  Uiso   1.00
C65    C     0.02504   0.76094   0.09619   0.00000  Uiso   1.00
C66    C     0.07850   0.85503   0.11379   0.00000  Uiso   1.00
C67    C     0.14260   0.51545   0.04702   0.00000  Uiso   1.00
C68    C     0.12775   0.39831   0.05763   0.00000  Uiso   1.00
C69    C     0.22819   0.32655   0.05761   0.00000  Uiso   1.00
H70    H     0.33630   0.72430   0.01817   0.00000  Uiso   1.00
H71    H     0.26193   0.77902   0.95558   0.00000  Uiso   1.00
H72    H     0.33770   0.88438   0.06732   0.00000  Uiso   1.00
H73    H     0.44039   0.52181   0.02877   0.00000  Uiso   1.00
H74    H     0.13041   0.82036   0.89071   0.00000  Uiso   1.00
H75    H     0.29020   0.04249   0.12633   0.00000  Uiso   1.00
H76    H     0.50674   0.27794   0.04505   0.00000  Uiso   1.00
H77    H     0.95831   0.57502   0.05307   0.00000  Uiso   1.00
H78    H     0.86319   0.62155   0.99238   0.00000  Uiso   1.00
H79    H     0.93897   0.72692   0.10413   0.00000  Uiso   1.00
H80    H     0.04166   0.36434   0.06558   0.00000  Uiso   1.00
H81    H     0.80678   0.69256   0.92058   0.00000  Uiso   1.00
H82    H     0.96657   0.91469   0.15621   0.00000  Uiso   1.00
H83    H     0.18311   0.15014   0.07492   0.00000  Uiso   1.00
O84    O     0.91283   0.78980   0.86510   0.00000  Uiso   1.00
O85    O     0.12249   0.08121   0.17424   0.00000  Uiso   1.00
O86    O     0.40658   0.07814   0.06759   0.00000  Uiso   1.00
N87    N     0.06730   0.78388   0.90607   0.00000  Uiso   1.00
N88    N     0.21669   0.99157   0.12636   0.00000  Uiso   1.00
N89    N     0.41915   0.27678   0.05037   0.00000  Uiso   1.00
N90    N     0.89316   0.71511   0.92214   0.00000  Uiso   1.00
N91    N     0.04255   0.92280   0.14243   0.00000  Uiso   1.00
N92    N     0.24500   0.20801   0.06645   0.00000  Uiso   1.00
C93    C     0.19009   0.25030   0.27617   0.00000  Uiso   1.00
C94    C     0.19912   0.34312   0.24699   0.00000  Uiso   1.00
C95    C     0.24503   0.32417   0.21351   0.00000  Uiso   1.00
C96    C     0.24546   0.42050   0.19063   0.00000  Uiso   1.00
C97    C     0.26621   0.54772   0.14378   0.00000  Uiso   1.00
C98    C     0.25637   0.30196   0.30770   0.00000  Uiso   1.00
C99    C     0.35041   0.24838   0.32527   0.00000  Uiso   1.00
C100   C     0.39903   0.31006   0.35350   0.00000  Uiso   1.00
C101   C     0.50862   0.37334   0.40092   0.00000  Uiso   1.00
C102   C     0.05938   0.24617   0.28676   0.00000  Uiso   1.00
C103   C     0.98778   0.14567   0.28672   0.00000  Uiso   1.00
C104   C     0.87055   0.16037   0.29732   0.00000  Uiso   1.00
C105   C     0.67427   0.13702   0.31221   0.00000  Uiso   1.00
C106   C     0.10922   0.45509   0.29507   0.00000  Uiso   1.00
C107   C     0.15519   0.45435   0.25726   0.00000  Uiso   1.00
C108   C     0.15555   0.55074   0.23443   0.00000  Uiso   1.00
C109   C     0.20145   0.53193   0.20092   0.00000  Uiso   1.00
C110   C     0.21245   0.41319   0.31797   0.00000  Uiso   1.00
C111   C     0.26094   0.47496   0.34619   0.00000  Uiso   1.00
C112   C     0.35503   0.42150   0.36379   0.00000  Uiso   1.00
C113   C     0.01545   0.35740   0.29702   0.00000  Uiso   1.00
C114   C     0.89831   0.37225   0.30763   0.00000  Uiso   1.00
C115   C     0.82655   0.27181   0.30761   0.00000  Uiso   1.00
H116   H     0.22430   0.16370   0.26817   0.00000  Uiso   1.00
H117   H     0.27902   0.23807   0.20558   0.00000  Uiso   1.00
H118   H     0.38438   0.16230   0.31732   0.00000  Uiso   1.00
H119   H     0.02181   0.05961   0.27877   0.00000  Uiso   1.00
H120   H     0.32036   0.36959   0.14071   0.00000  Uiso   1.00
H121   H     0.54249   0.20980   0.37633   0.00000  Uiso   1.00
H122   H     0.77794   0.99326   0.29505   0.00000  Uiso   1.00
H123   H     0.07502   0.54169   0.30307   0.00000  Uiso   1.00
H124   H     0.12155   0.63681   0.24238   0.00000  Uiso   1.00
H125   H     0.22692   0.56103   0.35413   0.00000  Uiso   1.00
H126   H     0.86434   0.45834   0.31558   0.00000  Uiso   1.00
H127   H     0.19256   0.69322   0.17058   0.00000  Uiso   1.00
H128   H     0.41469   0.53343   0.40621   0.00000  Uiso   1.00
H129   H     0.65014   0.31689   0.32492   0.00000  Uiso   1.00
O130   O     0.28980   0.58717   0.11510   0.00000  Uiso   1.00
O131   O     0.58121   0.37751   0.42424   0.00000  Uiso   1.00
O132   O     0.57814   0.09342   0.31759   0.00000  Uiso   1.00
N133   N     0.28388   0.43270   0.15607   0.00000  Uiso   1.00
N134   N     0.49157   0.28331   0.37636   0.00000  Uiso   1.00
N135   N     0.77678   0.08085   0.30037   0.00000  Uiso   1.00
N136   N     0.21511   0.60684   0.17214   0.00000  Uiso   1.00
N137   N     0.42280   0.45745   0.39243   0.00000  Uiso   1.00
N138   N     0.70801   0.25500   0.31645   0.00000  Uiso   1.00
C139   C     0.80991   0.74970   0.77617   0.00000  Uiso   1.00
C140   C     0.80088   0.65688   0.74699   0.00000  Uiso   1.00
C141   C     0.75497   0.67583   0.71351   0.00000  Uiso   1.00
C142   C     0.75454   0.57950   0.69063   0.00000  Uiso   1.00
C143   C     0.73379   0.45228   0.64378   0.00000  Uiso   1.00
C144   C     0.74363   0.69804   0.80770   0.00000  Uiso   1.00
C145   C     0.64959   0.75162   0.82527   0.00000  Uiso   1.00
C146   C     0.60097   0.68994   0.85350   0.00000  Uiso   1.00
C147   C     0.49138   0.62666   0.90092   0.00000  Uiso   1.00
C148   C     0.94062   0.75383   0.78676   0.00000  Uiso   1.00
C149   C     0.01222   0.85433   0.78672   0.00000  Uiso   1.00
C150   C     0.12945   0.83963   0.79732   0.00000  Uiso   1.00
C151   C     0.32573   0.86298   0.81221   0.00000  Uiso   1.00
C152   C     0.89078   0.54491   0.79507   0.00000  Uiso   1.00
C153   C     0.84481   0.54565   0.75726   0.00000  Uiso   1.00
C154   C     0.84445   0.44926   0.73443   0.00000  Uiso   1.00
C155   C     0.79855   0.46807   0.70092   0.00000  Uiso   1.00
C156   C     0.78755   0.58681   0.81797   0.00000  Uiso   1.00
C157   C     0.73906   0.52504   0.84619   0.00000  Uiso   1.00
C158   C     0.64497   0.57850   0.86379   0.00000  Uiso   1.00
C159   C     0.98455   0.64260   0.79702   0.00000  Uiso   1.00
C160   C     0.10169   0.62775   0.80763   0.00000  Uiso   1.00
C161   C     0.17345   0.72819   0.80761   0.00000  Uiso   1.00
H162   H     0.77570   0.83630   0.76817   0.00000  Uiso   1.00
H163   H     0.72098   0.76193   0.70558   0.00000  Uiso   1.00
H164   H     0.61562   0.83770   0.81732   0.00000  Uiso   1.00
H165   H     0.97819   0.94039   0.77877   0.00000  Uiso   1.00
H166   H     0.67964   0.63041   0.64071   0.00000  Uiso   1.00
H167   H     0.45751   0.79020   0.87633   0.00000  Uiso   1.00
H168   H     0.22206   0.00674   0.79505   0.00000  Uiso   1.00
H169   H     0.92498   0.45831   0.80307   0.00000  Uiso   1.00
H170   H     0.87845   0.36319   0.74238   0.00000  Uiso   1.00
H171   H     0.77308   0.43897   0.85413   0.00000  Uiso   1.00
H172   H     0.13566   0.54166   0.81558   0.00000  Uiso   1.00
H173   H     0.80744   0.30678   0.67058   0.00000  Uiso   1.00
H174   H     0.58531   0.46657   0.90621   0.00000  Uiso   1.00
H175   H     0.34986   0.68311   0.82492   0.00000  Uiso   1.00
O176   O     0.71020   0.41283   0.61510   0.00000  Uiso   1.00
O177   O     0.41879   0.62249   0.92424   0.00000  Uiso   1.00
O178   O     0.42186   0.90658   0.81759   0.00000  Uiso   1.00
N179   N     0.71612   0.56730   0.65607   0.00000  Uiso   1.00
N180   N     0.50843   0.71669   0.87636   0.00000  Uiso   1.00
N181   N     0.22322   0.91915   0.80037   0.00000  Uiso   1.00
N182   N     0.78489   0.39316   0.67214   0.00000  Uiso   1.00
N183   N     0.57720   0.54255   0.89243   0.00000  Uiso   1.00
N184   N     0.29199   0.74500   0.81645   0.00000  Uiso   1.00
C185   C     0.74970   0.80991   0.22383   0.00000  Uiso   1.00
C186   C     0.65688   0.80088   0.25301   0.00000  Uiso   1.00
C187   C     0.67583   0.75497   0.28649   0.00000  Uiso   1.00
C188   C     0.57950   0.75454   0.30937   0.00000  Uiso   1.00
C189   C     0.45228   0.73379   0.35622   0.00000  Uiso   1.00
C190   C     0.69804   0.74363   0.19230   0.00000  Uiso   1.00
C191   C     0.75162   0.64959   0.17473   0.00000  Uiso   1.00
C192   C     0.68994   0.60097   0.14650   0.00000  Uiso   1.00
C193   C     0.62666   0.49138   0.09908   0.00000  Uiso   1.00
C194   C     0.75383   0.94062   0.21324   0.00000  Uiso   1.00
C195   C     0.85433   0.01222   0.21328   0.00000  Uiso   1.00
C196   C     0.83963   0.12945   0.20268   0.00000  Uiso   1.00
C197   C     0.86298   0.32573   0.18779   0.00000  Uiso   1.00
C198   C     0.54491   0.89078   0.20493   0.00000  Uiso   1.00
C199   C     0.54565   0.84481   0.24274   0.00000  Uiso   1.00
C200   C     0.44926   0.84445   0.26557   0.00000  Uiso   1.00
C201   C     0.46807   0.79855   0.29908   0.00000  Uiso   1.00
C202   C     0.58681   0.78755   0.18203   0.00000  Uiso   1.00
C203   C     0.52504   0.73906   0.15381   0.00000  Uiso   1.00
C204   C     0.57850   0.64497   0.13621   0.00000  Uiso   1.00
C205   C     0.64260   0.98455   0.20298   0.00000  Uiso   1.00
C206   C     0.62775   0.10169   0.19237   0.00000  Uiso   1.00
C207   C     0.72819   0.17345   0.19239   0.00000  Uiso   1.00
H208   H     0.83630   0.77570   0.23183   0.00000  Uiso   1.00
H209   H     0.76193   0.72098   0.29442   0.00000  Uiso   1.00
H210   H     0.83770   0.61562   0.18268   0.00000  Uiso   1.00
H211   H     0.94039   0.97819   0.22123   0.00000  Uiso   1.00
H212   H     0.63041   0.67964   0.35929   0.00000  Uiso   1.00
H213   H     0.79020   0.45751   0.12367   0.00000  Uiso   1.00
H214   H     0.00674   0.22206   0.20495   0.00000  Uiso   1.00
H215   H     0.45831   0.92498   0.19693   0.00000  Uiso   1.00
H216   H     0.36319   0.87845   0.25762   0.00000  Uiso   1.00
H217   H     0.43897   0.77308   0.14587   0.00000  Uiso   1.00
H218   H     0.54166   0.13566   0.18442   0.00000  Uiso   1.00
H219   H     0.30678   0.80744   0.32942   0.00000  Uiso   1.00
H220   H     0.46657   0.58531   0.09379   0.00000  Uiso   1.00
H221   H     0.68311   0.34986   0.17508   0.00000  Uiso   1.00
O222   O     0.41283   0.71020   0.38490   0.00000  Uiso   1.00
O223   O     0.62249   0.41879   0.07576   0.00000  Uiso   1.00
O224   O     0.90658   0.42186   0.18241   0.00000  Uiso   1.00
N225   N     0.56730   0.71612   0.34393   0.00000  Uiso   1.00
N226   N     0.71669   0.50843   0.12364   0.00000  Uiso   1.00
N227   N     0.91915   0.22322   0.19963   0.00000  Uiso   1.00
N228   N     0.39316   0.78489   0.32786   0.00000  Uiso   1.00
N229   N     0.54255   0.57720   0.10757   0.00000  Uiso   1.00
N230   N     0.74500   0.29199   0.18355   0.00000  Uiso   1.00
C231   C     0.25030   0.19009   0.72383   0.00000  Uiso   1.00
C232   C     0.34312   0.19912   0.75301   0.00000  Uiso   1.00
C233   C     0.32417   0.24503   0.78649   0.00000  Uiso   1.00
C234   C     0.42050   0.24546   0.80937   0.00000  Uiso   1.00
C235   C     0.54772   0.26621   0.85622   0.00000  Uiso   1.00
C236   C     0.30196   0.25637   0.69230   0.00000  Uiso   1.00
C237   C     0.24838   0.35041   0.67473   0.00000  Uiso   1.00
C238   C     0.31006   0.39903   0.64650   0.00000  Uiso   1.00
C239   C     0.37334   0.50862   0.59908   0.00000  Uiso   1.00
C240   C     0.24617   0.05938   0.71324   0.00000  Uiso   1.00
C241   C     0.14567   0.98778   0.71328   0.00000  Uiso   1.00
C242   C     0.16037   0.87055   0.70268   0.00000  Uiso   1.00
C243   C     0.13702   0.67427   0.68779   0.00000  Uiso   1.00
C244   C     0.45509   0.10922   0.70493   0.00000  Uiso   1.00
C245   C     0.45435   0.15519   0.74274   0.00000  Uiso   1.00
C246   C     0.55074   0.15555   0.76557   0.00000  Uiso   1.00
C247   C     0.53193   0.20145   0.79908   0.00000  Uiso   1.00
C248   C     0.41319   0.21245   0.68203   0.00000  Uiso   1.00
C249   C     0.47496   0.26094   0.65381   0.00000  Uiso   1.00
C250   C     0.42150   0.35503   0.63621   0.00000  Uiso   1.00
C251   C     0.35740   0.01545   0.70298   0.00000  Uiso   1.00
C252   C     0.37225   0.89831   0.69237   0.00000  Uiso   1.00
C253   C     0.27181   0.82655   0.69239   0.00000  Uiso   1.00
H254   H     0.16370   0.22430   0.73183   0.00000  Uiso   1.00
H255   H     0.23807   0.27902   0.79442   0.00000  Uiso   1.00
H256   H     0.16230   0.38438   0.68268   0.00000  Uiso   1.00
H257   H     0.05961   0.02181   0.72123   0.00000  Uiso   1.00
H258   H     0.36959   0.32036   0.85929   0.00000  Uiso   1.00
H259   H     0.20980   0.54249   0.62367   0.00000  Uiso   1.00
H260   H     0.99326   0.77794   0.70495   0.00000  Uiso   1.00
H261   H     0.54169   0.07502   0.69693   0.00000  Uiso   1.00
H262   H     0.63681   0.12155   0.75762   0.00000  Uiso   1.00
H263   H     0.56103   0.22692   0.64587   0.00000  Uiso   1.00
H264   H     0.45834   0.86434   0.68442   0.00000  Uiso   1.00
H265   H     0.69322   0.19256   0.82942   0.00000  Uiso   1.00
H266   H     0.53343   0.41469   0.59379   0.00000  Uiso   1.00
H267   H     0.31689   0.65014   0.67508   0.00000  Uiso   1.00
O268   O     0.58717   0.28980   0.88490   0.00000  Uiso   1.00
O269   O     0.37751   0.58121   0.57576   0.00000  Uiso   1.00
O270   O     0.09342   0.57814   0.68241   0.00000  Uiso   1.00
N271   N     0.43270   0.28388   0.84393   0.00000  Uiso   1.00
N272   N     0.28331   0.49157   0.62364   0.00000  Uiso   1.00
N273   N     0.08085   0.77678   0.69963   0.00000  Uiso   1.00
N274   N     0.60684   0.21511   0.82786   0.00000  Uiso   1.00
N275   N     0.45745   0.42280   0.60757   0.00000  Uiso   1.00
N276   N     0.25500   0.70801   0.68355   0.00000  Uiso   1.00
C277   C     0.30991   0.75030   0.47383   0.00000  Uiso   1.00
C278   C     0.30088   0.84312   0.50301   0.00000  Uiso   1.00
C279   C     0.25497   0.82417   0.53649   0.00000  Uiso   1.00
C280   C     0.25454   0.92050   0.55937   0.00000  Uiso   1.00
C281   C     0.23379   0.04772   0.60622   0.00000  Uiso   1.00
C282   C     0.24363   0.80196   0.44230   0.00000  Uiso   1.00
C283   C     0.14959   0.74838   0.42473   0.00000  Uiso   1.00
C284   C     0.10097   0.81006   0.39650   0.00000  Uiso   1.00
C285   C     0.99138   0.87334   0.34908   0.00000  Uiso   1.00
C286   C     0.44062   0.74617   0.46324   0.00000  Uiso   1.00
C287   C     0.51222   0.64567   0.46328   0.00000  Uiso   1.00
C288   C     0.62945   0.66037   0.45268   0.00000  Uiso   1.00
C289   C     0.82573   0.63702   0.43779   0.00000  Uiso   1.00
C290   C     0.39078   0.95509   0.45493   0.00000  Uiso   1.00
C291   C     0.34481   0.95435   0.49274   0.00000  Uiso   1.00
C292   C     0.34445   0.05074   0.51557   0.00000  Uiso   1.00
C293   C     0.29855   0.03193   0.54908   0.00000  Uiso   1.00
C294   C     0.28755   0.91319   0.43203   0.00000  Uiso   1.00
C295   C     0.23906   0.97496   0.40381   0.00000  Uiso   1.00
C296   C     0.14497   0.92150   0.38621   0.00000  Uiso   1.00
C297   C     0.48455   0.85740   0.45298   0.00000  Uiso   1.00
C298   C     0.60169   0.87225   0.44237   0.00000  Uiso   1.00
C299   C     0.67345   0.77181   0.44239   0.00000  Uiso   1.00
H300   H     0.27570   0.66370   0.48183   0.00000  Uiso   1.00
H301   H     0.22098   0.73807   0.54442   0.00000  Uiso   1.00
H302   H     0.11562   0.66230   0.43268   0.00000  Uiso   1.00
H303   H     0.47819   0.55961   0.47123   0.00000  Uiso   1.00
H304   H     0.17964   0.86959   0.60929   0.00000  Uiso   1.00
H305   H     0.95751   0.70980   0.37367   0.00000  Uiso   1.00
H306   H     0.72206   0.49326   0.45495   0.00000  Uiso   1.00
H307   H     0.42498   0.04169   0.44693   0.00000  Uiso   1.00
H308   H     0.37845   0.13681   0.50762   0.00000  Uiso   1.00
H309   H     0.27308   0.06103   0.39587   0.00000  Uiso   1.00
H310   H     0.63566   0.95834   0.43442   0.00000  Uiso   1.00
H311   H     0.30744   0.19322   0.57942   0.00000  Uiso   1.00
H312   H     0.08531   0.03343   0.34379   0.00000  Uiso   1.00
H313   H     0.84986   0.81689   0.42508   0.00000  Uiso   1.00
O314   O     0.21020   0.08717   0.63490   0.00000  Uiso   1.00
O315   O     0.91879   0.87751   0.32576   0.00000  Uiso   1.00
O316   O     0.92186   0.59342   0.43241   0.00000  Uiso   1.00
N317   N     0.21612   0.93270   0.59393   0.00000  Uiso   1.00
N318   N     0.00843   0.78331   0.37364   0.00000  Uiso   1.00
N319   N     0.72322   0.58085   0.44963   0.00000  Uiso   1.00
N320   N     0.28489   0.10684   0.57786   0.00000  Uiso   1.00
N321   N     0.07720   0.95745   0.35757   0.00000  Uiso   1.00
N322   N     0.79199   0.75500   0.43355   0.00000  Uiso   1.00
C323   C     0.69009   0.24970   0.97383   0.00000  Uiso   1.00
C324   C     0.69912   0.15688   0.00301   0.00000  Uiso   1.00
C325   C     0.74503   0.17583   0.03649   0.00000  Uiso   1.00
C326   C     0.74546   0.07950   0.05937   0.00000  Uiso   1.00
C327   C     0.76621   0.95228   0.10622   0.00000  Uiso   1.00
C328   C     0.75637   0.19804   0.94230   0.00000  Uiso   1.00
C329   C     0.85041   0.25162   0.92473   0.00000  Uiso   1.00
C330   C     0.89903   0.18994   0.89650   0.00000  Uiso   1.00
C331   C     0.00862   0.12666   0.84908   0.00000  Uiso   1.00
C332   C     0.55938   0.25383   0.96324   0.00000  Uiso   1.00
C333   C     0.48778   0.35433   0.96328   0.00000  Uiso   1.00
C334   C     0.37055   0.33963   0.95268   0.00000  Uiso   1.00
C335   C     0.17427   0.36298   0.93779   0.00000  Uiso   1.00
C336   C     0.60922   0.04491   0.95493   0.00000  Uiso   1.00
C337   C     0.65519   0.04565   0.99274   0.00000  Uiso   1.00
C338   C     0.65555   0.94926   0.01557   0.00000  Uiso   1.00
C339   C     0.70145   0.96807   0.04908   0.00000  Uiso   1.00
C340   C     0.71245   0.08681   0.93203   0.00000  Uiso   1.00
C341   C     0.76094   0.02504   0.90381   0.00000  Uiso   1.00
C342   C     0.85503   0.07850   0.88621   0.00000  Uiso   1.00
C343   C     0.51545   0.14260   0.95298   0.00000  Uiso   1.00
C344   C     0.39831   0.12775   0.94237   0.00000  Uiso   1.00
C345   C     0.32655   0.22819   0.94239   0.00000  Uiso   1.00
H346   H     0.72430   0.33630   0.98183   0.00000  Uiso   1.00
H347   H     0.77902   0.26193   0.04442   0.00000  Uiso   1.00
H348   H     0.88438   0.33770   0.93268   0.00000  Uiso   1.00
H349   H     0.52181   0.44039   0.97123   0.00000  Uiso   1.00
H350   H     0.82036   0.13041   0.10929   0.00000  Uiso   1.00
H351   H     0.04249   0.29020   0.87367   0.00000  Uiso   1.00
H352   H     0.27794   0.50674   0.95495   0.00000  Uiso   1.00
H353   H     0.57502   0.95831   0.94693   0.00000  Uiso   1.00
H354   H     0.62155   0.86319   0.00762   0.00000  Uiso   1.00
H355   H     0.72692   0.93897   0.89587   0.00000  Uiso   1.00
H356   H     0.36434   0.04166   0.93442   0.00000  Uiso   1.00
H357   H     0.69256   0.80678   0.07942   0.00000  Uiso   1.00
H358   H     0.91469   0.96657   0.84379   0.00000  Uiso   1.00
H359   H     0.15014   0.18311   0.92508   0.00000  Uiso   1.00
O360   O     0.78980   0.91283   0.13490   0.00000  Uiso   1.00
O361   O     0.08121   0.12249   0.82576   0.00000  Uiso   1.00
O362   O     0.07814   0.40658   0.93241   0.00000  Uiso   1.00
N363   N     0.78388   0.06730   0.09393   0.00000  Uiso   1.00
N364   N     0.99157   0.21669   0.87364   0.00000  Uiso   1.00
N365   N     0.27678   0.41915   0.94963   0.00000  Uiso   1.00
N366   N     0.71511   0.89316   0.07786   0.00000  Uiso   1.00
N367   N     0.92280   0.04255   0.85757   0.00000  Uiso   1.00
N368   N     0.20801   0.24500   0.93355   0.00000  Uiso   1.00
