data_job_06144
_audit_creation_date              2018-12-19
_audit_creation_method            'Materials Studio'
_symmetry_space_group_name_H-M    'P1'
_symmetry_Int_Tables_number       1
_symmetry_cell_setting            triclinic
loop_
_symmetry_equiv_pos_as_xyz
  x,y,z
_cell_length_a                    13.4063
_cell_length_b                    18.8106
_cell_length_c                    19.2216
_cell_angle_alpha                 114.6070
_cell_angle_beta                  76.2678
_cell_angle_gamma                 78.8483
loop_
_atom_site_label
_atom_site_type_symbol
_atom_site_fract_x
_atom_site_fract_y
_atom_site_fract_z
_atom_site_U_iso_or_equiv
_atom_site_adp_type
_atom_site_occupancy
C1     C     0.61178   0.23669   0.47767   0.00000  Uiso   1.00
C2     C     0.73457   0.20461   0.45566   0.00000  Uiso   1.00
C3     C     0.80907   0.23616   0.42554   0.00000  Uiso   1.00
C4     C     0.91783   0.19817   0.40916   0.00000  Uiso   1.00
C5     C     0.10348   0.15854   0.37291   0.00000  Uiso   1.00
C6     C     0.58139   0.16267   0.42735   0.00000  Uiso   1.00
C7     C     0.52708   0.15896   0.37344   0.00000  Uiso   1.00
C8     C     0.50689   0.08566   0.33325   0.00000  Uiso   1.00
C9     C     0.45466   0.98093   0.25310   0.00000  Uiso   1.00
C10    C     0.56096   0.25811   0.56678   0.00000  Uiso   1.00
C11    C     0.48945   0.33464   0.63010   0.00000  Uiso   1.00
C12    C     0.45204   0.34169   0.70730   0.00000  Uiso   1.00
C13    C     0.36809   0.38516   0.84364   0.00000  Uiso   1.00
C14    C     0.67245   0.11312   0.50215   0.00000  Uiso   1.00
C15    C     0.76752   0.13749   0.46895   0.00000  Uiso   1.00
C16    C     0.87620   0.09944   0.45262   0.00000  Uiso   1.00
C17    C     0.95085   0.13093   0.42249   0.00000  Uiso   1.00
C18    C     0.61434   0.09555   0.44064   0.00000  Uiso   1.00
C19    C     0.59422   0.02224   0.40053   0.00000  Uiso   1.00
C20    C     0.53991   0.01842   0.34657   0.00000  Uiso   1.00
C21    C     0.59392   0.19099   0.58008   0.00000  Uiso   1.00
C22    C     0.55660   0.19792   0.65719   0.00000  Uiso   1.00
C23    C     0.48506   0.27445   0.72062   0.00000  Uiso   1.00
H24    H     0.58611   0.28895   0.46732   0.00000  Uiso   1.00
H25    H     0.78353   0.28810   0.41525   0.00000  Uiso   1.00
H26    H     0.50158   0.21091   0.36317   0.00000  Uiso   1.00
H27    H     0.46397   0.38657   0.61979   0.00000  Uiso   1.00
H28    H     0.01694   0.25755   0.36336   0.00000  Uiso   1.00
H29    H     0.42240   0.09480   0.25357   0.00000  Uiso   1.00
H30    H     0.34308   0.46521   0.79470   0.00000  Uiso   1.00
H31    H     0.69811   0.06086   0.51250   0.00000  Uiso   1.00
H32    H     0.90168   0.04750   0.46292   0.00000  Uiso   1.00
H33    H     0.61973   0.97031   0.41083   0.00000  Uiso   1.00
H34    H     0.58212   0.14597   0.66745   0.00000  Uiso   1.00
H35    H     0.11283   0.06227   0.40204   0.00000  Uiso   1.00
H36    H     0.51829   0.89952   0.29225   0.00000  Uiso   1.00
H37    H     0.43898   0.26992   0.83339   0.00000  Uiso   1.00
O38    O     0.19678   0.15522   0.34924   0.00000  Uiso   1.00
O39    O     0.41675   0.94171   0.20521   0.00000  Uiso   1.00
O40    O     0.31270   0.42767   0.91516   0.00000  Uiso   1.00
N41    N     0.01157   0.21343   0.37928   0.00000  Uiso   1.00
N42    N     0.45573   0.06127   0.27663   0.00000  Uiso   1.00
N43    N     0.38155   0.40756   0.78254   0.00000  Uiso   1.00
N44    N     0.06317   0.10835   0.40010   0.00000  Uiso   1.00
N45    N     0.50733   0.95619   0.29744   0.00000  Uiso   1.00
N46    N     0.43315   0.30248   0.80335   0.00000  Uiso   1.00
C47    C     0.08687   0.52859   0.75648   0.00000  Uiso   1.00
C48    C     0.18714   0.55558   0.74603   0.00000  Uiso   1.00
C49    C     0.23108   0.58815   0.80602   0.00000  Uiso   1.00
C50    C     0.32304   0.60903   0.78434   0.00000  Uiso   1.00
C51    C     0.47165   0.65270   0.78012   0.00000  Uiso   1.00
C52    C     0.00841   0.57756   0.73373   0.00000  Uiso   1.00
C53    C     0.90208   0.62860   0.78336   0.00000  Uiso   1.00
C54    C     0.84359   0.66798   0.75131   0.00000  Uiso   1.00
C55    C     0.71469   0.74572   0.72797   0.00000  Uiso   1.00
C56    C     0.12343   0.43836   0.69019   0.00000  Uiso   1.00
C57    C     0.11380   0.37236   0.70322   0.00000  Uiso   1.00
C58    C     0.15213   0.29454   0.63451   0.00000  Uiso   1.00
C59    C     0.20183   0.15616   0.54358   0.00000  Uiso   1.00
C60    C     0.17204   0.50775   0.61130   0.00000  Uiso   1.00
C61    C     0.23339   0.54426   0.66718   0.00000  Uiso   1.00
C62    C     0.32531   0.56509   0.64539   0.00000  Uiso   1.00
C63    C     0.36939   0.59769   0.70534   0.00000  Uiso   1.00
C64    C     0.05466   0.56624   0.65487   0.00000  Uiso   1.00
C65    C     0.99631   0.60554   0.62274   0.00000  Uiso   1.00
C66    C     0.88992   0.65664   0.67232   0.00000  Uiso   1.00
C67    C     0.16970   0.42703   0.61133   0.00000  Uiso   1.00
C68    C     0.20803   0.34930   0.54259   0.00000  Uiso   1.00
C69    C     0.19846   0.28320   0.55551   0.00000  Uiso   1.00
H70    H     0.05086   0.53741   0.81787   0.00000  Uiso   1.00
H71    H     0.19525   0.59691   0.86704   0.00000  Uiso   1.00
H72    H     0.86630   0.63735   0.84438   0.00000  Uiso   1.00
H73    H     0.07800   0.38115   0.76425   0.00000  Uiso   1.00
H74    H     0.37573   0.65792   0.88678   0.00000  Uiso   1.00
H75    H     0.68211   0.74316   0.83900   0.00000  Uiso   1.00
H76    H     0.12850   0.20291   0.67003   0.00000  Uiso   1.00
H77    H     0.20805   0.49893   0.54990   0.00000  Uiso   1.00
H78    H     0.36109   0.55632   0.58437   0.00000  Uiso   1.00
H79    H     0.03213   0.59676   0.56171   0.00000  Uiso   1.00
H80    H     0.24382   0.34056   0.48158   0.00000  Uiso   1.00
H81    H     0.51032   0.62498   0.65736   0.00000  Uiso   1.00
H82    H     0.81669   0.71022   0.60958   0.00000  Uiso   1.00
H83    H     0.26309   0.16997   0.44060   0.00000  Uiso   1.00
O84    O     0.54083   0.67992   0.79958   0.00000  Uiso   1.00
O85    O     0.63082   0.79174   0.73689   0.00000  Uiso   1.00
O86    O     0.21648   0.08295   0.51520   0.00000  Uiso   1.00
N87    N     0.38642   0.64227   0.82805   0.00000  Uiso   1.00
N88    N     0.73792   0.72198   0.78339   0.00000  Uiso   1.00
N89    N     0.15524   0.21690   0.62541   0.00000  Uiso   1.00
N90    N     0.45884   0.62455   0.70460   0.00000  Uiso   1.00
N91    N     0.81035   0.70425   0.65993   0.00000  Uiso   1.00
N92    N     0.22766   0.19917   0.50195   0.00000  Uiso   1.00
C93    C     0.83992   0.25105   0.77227   0.00000  Uiso   1.00
C94    C     0.92861   0.26528   0.80832   0.00000  Uiso   1.00
C95    C     0.03034   0.20761   0.78099   0.00000  Uiso   1.00
C96    C     0.09990   0.23264   0.82216   0.00000  Uiso   1.00
C97    C     0.24233   0.24258   0.86812   0.00000  Uiso   1.00
C98    C     0.73960   0.26997   0.84294   0.00000  Uiso   1.00
C99    C     0.68241   0.21625   0.84469   0.00000  Uiso   1.00
C100   C     0.59285   0.24524   0.91500   0.00000  Uiso   1.00
C101   C     0.44179   0.26248   0.01466   0.00000  Uiso   1.00
C102   C     0.81224   0.31863   0.74897   0.00000  Uiso   1.00
C103   C     0.81609   0.30583   0.67173   0.00000  Uiso   1.00
C104   C     0.78767   0.37579   0.66292   0.00000  Uiso   1.00
C105   C     0.74940   0.46858   0.61668   0.00000  Uiso   1.00
C106   C     0.78255   0.39806   0.89399   0.00000  Uiso   1.00
C107   C     0.89744   0.34513   0.87444   0.00000  Uiso   1.00
C108   C     0.96687   0.37026   0.91566   0.00000  Uiso   1.00
C109   C     0.06869   0.31263   0.88839   0.00000  Uiso   1.00
C110   C     0.70844   0.34982   0.90905   0.00000  Uiso   1.00
C111   C     0.61894   0.37890   0.97936   0.00000  Uiso   1.00
C112   C     0.56164   0.32523   0.98123   0.00000  Uiso   1.00
C113   C     0.78108   0.39848   0.81508   0.00000  Uiso   1.00
C114   C     0.75263   0.46848   0.80639   0.00000  Uiso   1.00
C115   C     0.75645   0.45578   0.72915   0.00000  Uiso   1.00
H116   H     0.86417   0.18888   0.72080   0.00000  Uiso   1.00
H117   H     0.05442   0.14581   0.72983   0.00000  Uiso   1.00
H118   H     0.70653   0.15446   0.79352   0.00000  Uiso   1.00
H119   H     0.84021   0.24402   0.62058   0.00000  Uiso   1.00
H120   H     0.25158   0.13327   0.76902   0.00000  Uiso   1.00
H121   H     0.51803   0.15151   0.90330   0.00000  Uiso   1.00
H122   H     0.79991   0.34038   0.53861   0.00000  Uiso   1.00
H123   H     0.75829   0.46023   0.94546   0.00000  Uiso   1.00
H124   H     0.94273   0.43206   0.96682   0.00000  Uiso   1.00
H125   H     0.59485   0.44070   0.03051   0.00000  Uiso   1.00
H126   H     0.72852   0.53026   0.85757   0.00000  Uiso   1.00
H127   H     0.16094   0.36560   0.96137   0.00000  Uiso   1.00
H128   H     0.42738   0.38383   0.09565   0.00000  Uiso   1.00
H129   H     0.70926   0.57270   0.73097   0.00000  Uiso   1.00
O130   O     0.32949   0.22599   0.87521   0.00000  Uiso   1.00
O131   O     0.36709   0.24993   0.05137   0.00000  Uiso   1.00
O132   O     0.73691   0.49771   0.57291   0.00000  Uiso   1.00
N133   N     0.20495   0.19182   0.81135   0.00000  Uiso   1.00
N134   N     0.51913   0.20887   0.93690   0.00000  Uiso   1.00
N135   N     0.78263   0.38544   0.59595   0.00000  Uiso   1.00
N136   N     0.15617   0.31683   0.91485   0.00000  Uiso   1.00
N137   N     0.47035   0.33388   0.04040   0.00000  Uiso   1.00
N138   N     0.73385   0.51045   0.69945   0.00000  Uiso   1.00
C139   C     0.38822   0.76331   0.52233   0.00000  Uiso   1.00
C140   C     0.26543   0.79539   0.54434   0.00000  Uiso   1.00
C141   C     0.19093   0.76384   0.57446   0.00000  Uiso   1.00
C142   C     0.08217   0.80183   0.59084   0.00000  Uiso   1.00
C143   C     0.89652   0.84145   0.62709   0.00000  Uiso   1.00
C144   C     0.41861   0.83733   0.57265   0.00000  Uiso   1.00
C145   C     0.47292   0.84104   0.62656   0.00000  Uiso   1.00
C146   C     0.49311   0.91434   0.66675   0.00000  Uiso   1.00
C147   C     0.54534   0.01907   0.74690   0.00000  Uiso   1.00
C148   C     0.43904   0.74189   0.43322   0.00000  Uiso   1.00
C149   C     0.51055   0.66536   0.36990   0.00000  Uiso   1.00
C150   C     0.54796   0.65830   0.29270   0.00000  Uiso   1.00
C151   C     0.63191   0.61484   0.15636   0.00000  Uiso   1.00
C152   C     0.32755   0.88688   0.49785   0.00000  Uiso   1.00
C153   C     0.23248   0.86251   0.53105   0.00000  Uiso   1.00
C154   C     0.12380   0.90056   0.54738   0.00000  Uiso   1.00
C155   C     0.04915   0.86906   0.57751   0.00000  Uiso   1.00
C156   C     0.38566   0.90445   0.55936   0.00000  Uiso   1.00
C157   C     0.40578   0.97776   0.59947   0.00000  Uiso   1.00
C158   C     0.46009   0.98158   0.65343   0.00000  Uiso   1.00
C159   C     0.40608   0.80901   0.41992   0.00000  Uiso   1.00
C160   C     0.44340   0.80208   0.34281   0.00000  Uiso   1.00
C161   C     0.51494   0.72555   0.27938   0.00000  Uiso   1.00
H162   H     0.41389   0.71105   0.53268   0.00000  Uiso   1.00
H163   H     0.21647   0.71190   0.58475   0.00000  Uiso   1.00
H164   H     0.49842   0.78909   0.63683   0.00000  Uiso   1.00
H165   H     0.53603   0.61343   0.38021   0.00000  Uiso   1.00
H166   H     0.98306   0.74245   0.63664   0.00000  Uiso   1.00
H167   H     0.57760   0.90520   0.74643   0.00000  Uiso   1.00
H168   H     0.65692   0.53479   0.20530   0.00000  Uiso   1.00
H169   H     0.30189   0.93914   0.48750   0.00000  Uiso   1.00
H170   H     0.09832   0.95250   0.53708   0.00000  Uiso   1.00
H171   H     0.38027   0.02969   0.58917   0.00000  Uiso   1.00
H172   H     0.41788   0.85403   0.33255   0.00000  Uiso   1.00
H173   H     0.88717   0.93773   0.59796   0.00000  Uiso   1.00
H174   H     0.48171   0.10048   0.70775   0.00000  Uiso   1.00
H175   H     0.56102   0.73008   0.16661   0.00000  Uiso   1.00
O176   O     0.80322   0.84478   0.65076   0.00000  Uiso   1.00
O177   O     0.58325   0.05829   0.79479   0.00000  Uiso   1.00
O178   O     0.68730   0.57233   0.08483   0.00000  Uiso   1.00
N179   N     0.98843   0.78656   0.62072   0.00000  Uiso   1.00
N180   N     0.54427   0.93873   0.72337   0.00000  Uiso   1.00
N181   N     0.61845   0.59244   0.21746   0.00000  Uiso   1.00
N182   N     0.93683   0.89164   0.59990   0.00000  Uiso   1.00
N183   N     0.49267   0.04381   0.70256   0.00000  Uiso   1.00
N184   N     0.56685   0.69752   0.19665   0.00000  Uiso   1.00
C185   C     0.91312   0.47141   0.24352   0.00000  Uiso   1.00
C186   C     0.81286   0.44442   0.25397   0.00000  Uiso   1.00
C187   C     0.76892   0.41185   0.19398   0.00000  Uiso   1.00
C188   C     0.67696   0.39097   0.21566   0.00000  Uiso   1.00
C189   C     0.52835   0.34730   0.21988   0.00000  Uiso   1.00
C190   C     0.99159   0.42244   0.26627   0.00000  Uiso   1.00
C191   C     0.09792   0.37140   0.21664   0.00000  Uiso   1.00
C192   C     0.15641   0.33202   0.24869   0.00000  Uiso   1.00
C193   C     0.28531   0.25428   0.27203   0.00000  Uiso   1.00
C194   C     0.87656   0.56164   0.30981   0.00000  Uiso   1.00
C195   C     0.88620   0.62764   0.29678   0.00000  Uiso   1.00
C196   C     0.84787   0.70546   0.36549   0.00000  Uiso   1.00
C197   C     0.79817   0.84384   0.45642   0.00000  Uiso   1.00
C198   C     0.82796   0.49225   0.38870   0.00000  Uiso   1.00
C199   C     0.76661   0.45574   0.33282   0.00000  Uiso   1.00
C200   C     0.67469   0.43491   0.35461   0.00000  Uiso   1.00
C201   C     0.63061   0.40231   0.29466   0.00000  Uiso   1.00
C202   C     0.94534   0.43376   0.34513   0.00000  Uiso   1.00
C203   C     0.00369   0.39446   0.37726   0.00000  Uiso   1.00
C204   C     0.11007   0.34336   0.32768   0.00000  Uiso   1.00
C205   C     0.83030   0.57297   0.38867   0.00000  Uiso   1.00
C206   C     0.79197   0.65070   0.45741   0.00000  Uiso   1.00
C207   C     0.80154   0.71680   0.44449   0.00000  Uiso   1.00
H208   H     0.94914   0.46259   0.18213   0.00000  Uiso   1.00
H209   H     0.80474   0.40309   0.13296   0.00000  Uiso   1.00
H210   H     0.13369   0.36265   0.15562   0.00000  Uiso   1.00
H211   H     0.92200   0.61885   0.23575   0.00000  Uiso   1.00
H212   H     0.62427   0.34208   0.11322   0.00000  Uiso   1.00
H213   H     0.31789   0.25684   0.16100   0.00000  Uiso   1.00
H214   H     0.87150   0.79709   0.32997   0.00000  Uiso   1.00
H215   H     0.79195   0.50107   0.45010   0.00000  Uiso   1.00
H216   H     0.63891   0.44368   0.41563   0.00000  Uiso   1.00
H217   H     0.96787   0.40324   0.43829   0.00000  Uiso   1.00
H218   H     0.75618   0.65944   0.51842   0.00000  Uiso   1.00
H219   H     0.48968   0.37502   0.34264   0.00000  Uiso   1.00
H220   H     0.18331   0.28978   0.39042   0.00000  Uiso   1.00
H221   H     0.73691   0.83003   0.55940   0.00000  Uiso   1.00
O222   O     0.45917   0.32008   0.20042   0.00000  Uiso   1.00
O223   O     0.36918   0.20826   0.26311   0.00000  Uiso   1.00
O224   O     0.78352   0.91705   0.48480   0.00000  Uiso   1.00
N225   N     0.61358   0.35773   0.17195   0.00000  Uiso   1.00
N226   N     0.26208   0.27802   0.21661   0.00000  Uiso   1.00
N227   N     0.84476   0.78310   0.37459   0.00000  Uiso   1.00
N228   N     0.54116   0.37545   0.29540   0.00000  Uiso   1.00
N229   N     0.18965   0.29575   0.34007   0.00000  Uiso   1.00
N230   N     0.77234   0.80083   0.49805   0.00000  Uiso   1.00
C231   C     0.16008   0.74895   0.22773   0.00000  Uiso   1.00
C232   C     0.07139   0.73472   0.19168   0.00000  Uiso   1.00
C233   C     0.96966   0.79239   0.21901   0.00000  Uiso   1.00
C234   C     0.90010   0.76736   0.17784   0.00000  Uiso   1.00
C235   C     0.75767   0.75742   0.13188   0.00000  Uiso   1.00
C236   C     0.26040   0.73003   0.15706   0.00000  Uiso   1.00
C237   C     0.31759   0.78375   0.15531   0.00000  Uiso   1.00
C238   C     0.40715   0.75476   0.08500   0.00000  Uiso   1.00
C239   C     0.55821   0.73752   0.98534   0.00000  Uiso   1.00
C240   C     0.18776   0.68137   0.25103   0.00000  Uiso   1.00
C241   C     0.18391   0.69417   0.32827   0.00000  Uiso   1.00
C242   C     0.21233   0.62421   0.33708   0.00000  Uiso   1.00
C243   C     0.25060   0.53141   0.38332   0.00000  Uiso   1.00
C244   C     0.21745   0.60194   0.10601   0.00000  Uiso   1.00
C245   C     0.10256   0.65487   0.12556   0.00000  Uiso   1.00
C246   C     0.03313   0.62974   0.08434   0.00000  Uiso   1.00
C247   C     0.93131   0.68737   0.11161   0.00000  Uiso   1.00
C248   C     0.29156   0.65018   0.09095   0.00000  Uiso   1.00
C249   C     0.38106   0.62110   0.02064   0.00000  Uiso   1.00
C250   C     0.43836   0.67477   0.01877   0.00000  Uiso   1.00
C251   C     0.21892   0.60152   0.18492   0.00000  Uiso   1.00
C252   C     0.24737   0.53152   0.19361   0.00000  Uiso   1.00
C253   C     0.24355   0.54422   0.27085   0.00000  Uiso   1.00
H254   H     0.13583   0.81112   0.27920   0.00000  Uiso   1.00
H255   H     0.94558   0.85419   0.27017   0.00000  Uiso   1.00
H256   H     0.29347   0.84554   0.20648   0.00000  Uiso   1.00
H257   H     0.15979   0.75597   0.37942   0.00000  Uiso   1.00
H258   H     0.74842   0.86673   0.23098   0.00000  Uiso   1.00
H259   H     0.48197   0.84849   0.09670   0.00000  Uiso   1.00
H260   H     0.20009   0.65962   0.46138   0.00000  Uiso   1.00
H261   H     0.24171   0.53977   0.05454   0.00000  Uiso   1.00
H262   H     0.05727   0.56794   0.03318   0.00000  Uiso   1.00
H263   H     0.40515   0.55930   0.96949   0.00000  Uiso   1.00
H264   H     0.27148   0.46974   0.14243   0.00000  Uiso   1.00
H265   H     0.83906   0.63440   0.03863   0.00000  Uiso   1.00
H266   H     0.57262   0.61617   0.90435   0.00000  Uiso   1.00
H267   H     0.29074   0.42730   0.26903   0.00000  Uiso   1.00
O268   O     0.67051   0.77400   0.12479   0.00000  Uiso   1.00
O269   O     0.63291   0.75007   0.94863   0.00000  Uiso   1.00
O270   O     0.26309   0.50229   0.42708   0.00000  Uiso   1.00
N271   N     0.79505   0.80818   0.18865   0.00000  Uiso   1.00
N272   N     0.48087   0.79113   0.06310   0.00000  Uiso   1.00
N273   N     0.21737   0.61456   0.40405   0.00000  Uiso   1.00
N274   N     0.84383   0.68317   0.08515   0.00000  Uiso   1.00
N275   N     0.52965   0.66612   0.95960   0.00000  Uiso   1.00
N276   N     0.26615   0.48955   0.30055   0.00000  Uiso   1.00
