data_job_05474
_audit_creation_date              2018-12-19
_audit_creation_method            'Materials Studio'
_symmetry_space_group_name_H-M    'P1'
_symmetry_Int_Tables_number       1
_symmetry_cell_setting            triclinic
loop_
_symmetry_equiv_pos_as_xyz
  x,y,z
_cell_length_a                    12.2457
_cell_length_b                    14.9029
_cell_length_c                    25.8254
_cell_angle_alpha                 90.0000
_cell_angle_beta                  90.0000
_cell_angle_gamma                 90.0000
loop_
_atom_site_label
_atom_site_type_symbol
_atom_site_fract_x
_atom_site_fract_y
_atom_site_fract_z
_atom_site_U_iso_or_equiv
_atom_site_adp_type
_atom_site_occupancy
C1     C     0.69990   0.82433   0.57157   0.00000  Uiso   1.00
C2     C     0.62682   0.81780   0.61924   0.00000  Uiso   1.00
C3     C     0.56022   0.88556   0.63824   0.00000  Uiso   1.00
C4     C     0.49969   0.86635   0.68233   0.00000  Uiso   1.00
C5     C     0.38537   0.86901   0.75268   0.00000  Uiso   1.00
C6     C     0.81492   0.80150   0.58997   0.00000  Uiso   1.00
C7     C     0.90645   0.85554   0.58437   0.00000  Uiso   1.00
C8     C     0.00426   0.82259   0.60381   0.00000  Uiso   1.00
C9     C     0.18196   0.79990   0.62869   0.00000  Uiso   1.00
C10    C     0.66545   0.74773   0.53599   0.00000  Uiso   1.00
C11    C     0.63135   0.75655   0.48500   0.00000  Uiso   1.00
C12    C     0.60334   0.67832   0.45900   0.00000  Uiso   1.00
C13    C     0.54898   0.57215   0.40007   0.00000  Uiso   1.00
C14    C     0.71083   0.66971   0.61606   0.00000  Uiso   1.00
C15    C     0.63277   0.73382   0.64340   0.00000  Uiso   1.00
C16    C     0.57232   0.71449   0.68746   0.00000  Uiso   1.00
C17    C     0.50563   0.78221   0.70653   0.00000  Uiso   1.00
C18    C     0.82086   0.71752   0.61413   0.00000  Uiso   1.00
C19    C     0.91855   0.68447   0.63359   0.00000  Uiso   1.00
C20    C     0.01021   0.73845   0.62802   0.00000  Uiso   1.00
C21    C     0.67139   0.66374   0.56016   0.00000  Uiso   1.00
C22    C     0.64344   0.58548   0.53422   0.00000  Uiso   1.00
C23    C     0.60930   0.59419   0.48320   0.00000  Uiso   1.00
H24    H     0.69528   0.88971   0.55276   0.00000  Uiso   1.00
H25    H     0.55565   0.95055   0.61953   0.00000  Uiso   1.00
H26    H     0.90183   0.92052   0.56566   0.00000  Uiso   1.00
H27    H     0.62676   0.82155   0.46631   0.00000  Uiso   1.00
H28    H     0.40350   0.98097   0.70424   0.00000  Uiso   1.00
H29    H     0.13345   0.91765   0.59062   0.00000  Uiso   1.00
H30    H     0.55341   0.70895   0.38113   0.00000  Uiso   1.00
H31    H     0.71546   0.60432   0.63487   0.00000  Uiso   1.00
H32    H     0.57693   0.64950   0.70616   0.00000  Uiso   1.00
H33    H     0.92312   0.61948   0.65228   0.00000  Uiso   1.00
H34    H     0.64805   0.52050   0.55294   0.00000  Uiso   1.00
H35    H     0.42078   0.73663   0.77454   0.00000  Uiso   1.00
H36    H     0.15073   0.67331   0.66093   0.00000  Uiso   1.00
H37    H     0.57069   0.46461   0.45144   0.00000  Uiso   1.00
O38    O     0.32068   0.89368   0.78481   0.00000  Uiso   1.00
O39    O     0.27834   0.81060   0.63574   0.00000  Uiso   1.00
O40    O     0.51735   0.53679   0.36090   0.00000  Uiso   1.00
N41    N     0.42656   0.91726   0.71100   0.00000  Uiso   1.00
N42    N     0.10901   0.85807   0.60478   0.00000  Uiso   1.00
N43    N     0.56676   0.66294   0.40892   0.00000  Uiso   1.00
N44    N     0.43586   0.78578   0.74883   0.00000  Uiso   1.00
N45    N     0.11831   0.72659   0.64261   0.00000  Uiso   1.00
N46    N     0.57606   0.53146   0.44675   0.00000  Uiso   1.00
C47    C     0.25056   0.82460   0.42786   0.00000  Uiso   1.00
C48    C     0.32481   0.81947   0.38055   0.00000  Uiso   1.00
C49    C     0.39073   0.88818   0.36216   0.00000  Uiso   1.00
C50    C     0.45257   0.87018   0.31831   0.00000  Uiso   1.00
C51    C     0.56844   0.87496   0.24857   0.00000  Uiso   1.00
C52    C     0.13635   0.80073   0.40877   0.00000  Uiso   1.00
C53    C     0.04381   0.85369   0.41412   0.00000  Uiso   1.00
C54    C     0.94700   0.81990   0.39404   0.00000  Uiso   1.00
C55    C     0.77027   0.79556   0.36815   0.00000  Uiso   1.00
C56    C     0.28544   0.74795   0.46330   0.00000  Uiso   1.00
C57    C     0.31823   0.75653   0.51450   0.00000  Uiso   1.00
C58    C     0.34692   0.67830   0.54034   0.00000  Uiso   1.00
C59    C     0.40167   0.57202   0.59912   0.00000  Uiso   1.00
C60    C     0.24318   0.67042   0.38270   0.00000  Uiso   1.00
C61    C     0.32080   0.73572   0.35602   0.00000  Uiso   1.00
C62    C     0.38257   0.71760   0.31219   0.00000  Uiso   1.00
C63    C     0.44856   0.78628   0.29374   0.00000  Uiso   1.00
C64    C     0.13234   0.71699   0.38424   0.00000  Uiso   1.00
C65    C     0.03565   0.68311   0.36416   0.00000  Uiso   1.00
C66    C     0.94299   0.73600   0.36947   0.00000  Uiso   1.00
C67    C     0.28143   0.66421   0.43878   0.00000  Uiso   1.00
C68    C     0.31007   0.58595   0.46454   0.00000  Uiso   1.00
C69    C     0.34291   0.59441   0.51577   0.00000  Uiso   1.00
H70    H     0.25367   0.88980   0.44695   0.00000  Uiso   1.00
H71    H     0.39380   0.95299   0.38115   0.00000  Uiso   1.00
H72    H     0.04693   0.91849   0.43310   0.00000  Uiso   1.00
H73    H     0.32132   0.82135   0.53347   0.00000  Uiso   1.00
H74    H     0.54736   0.98612   0.29736   0.00000  Uiso   1.00
H75    H     0.81597   0.91337   0.40693   0.00000  Uiso   1.00
H76    H     0.39456   0.70853   0.61858   0.00000  Uiso   1.00
H77    H     0.24005   0.60522   0.36360   0.00000  Uiso   1.00
H78    H     0.37945   0.65279   0.29322   0.00000  Uiso   1.00
H79    H     0.03258   0.61830   0.34518   0.00000  Uiso   1.00
H80    H     0.30696   0.52116   0.44555   0.00000  Uiso   1.00
H81    H     0.53571   0.74247   0.22600   0.00000  Uiso   1.00
H82    H     0.80431   0.66972   0.33557   0.00000  Uiso   1.00
H83    H     0.38291   0.46488   0.54722   0.00000  Uiso   1.00
O84    O     0.63345   0.90074   0.21687   0.00000  Uiso   1.00
O85    O     0.67389   0.80528   0.36064   0.00000  Uiso   1.00
O86    O     0.43299   0.53654   0.63831   0.00000  Uiso   1.00
N87    N     0.52551   0.92224   0.29023   0.00000  Uiso   1.00
N88    N     0.84170   0.85423   0.39266   0.00000  Uiso   1.00
N89    N     0.38261   0.66272   0.59054   0.00000  Uiso   1.00
N90    N     0.51924   0.79114   0.25183   0.00000  Uiso   1.00
N91    N     0.83543   0.72313   0.35426   0.00000  Uiso   1.00
N92    N     0.37634   0.53161   0.55214   0.00000  Uiso   1.00
C93    C     0.30010   0.17567   0.07157   0.00000  Uiso   1.00
C94    C     0.37318   0.18220   0.11924   0.00000  Uiso   1.00
C95    C     0.43978   0.11444   0.13824   0.00000  Uiso   1.00
C96    C     0.50031   0.13365   0.18233   0.00000  Uiso   1.00
C97    C     0.61463   0.13099   0.25268   0.00000  Uiso   1.00
C98    C     0.18508   0.19850   0.08997   0.00000  Uiso   1.00
C99    C     0.09355   0.14446   0.08437   0.00000  Uiso   1.00
C100   C     0.99574   0.17741   0.10381   0.00000  Uiso   1.00
C101   C     0.81804   0.20010   0.12869   0.00000  Uiso   1.00
C102   C     0.33455   0.25227   0.03599   0.00000  Uiso   1.00
C103   C     0.36865   0.24345   0.98500   0.00000  Uiso   1.00
C104   C     0.39666   0.32168   0.95900   0.00000  Uiso   1.00
C105   C     0.45102   0.42785   0.90007   0.00000  Uiso   1.00
C106   C     0.28917   0.33029   0.11606   0.00000  Uiso   1.00
C107   C     0.36723   0.26618   0.14340   0.00000  Uiso   1.00
C108   C     0.42768   0.28551   0.18746   0.00000  Uiso   1.00
C109   C     0.49437   0.21779   0.20653   0.00000  Uiso   1.00
C110   C     0.17914   0.28248   0.11413   0.00000  Uiso   1.00
C111   C     0.08145   0.31553   0.13359   0.00000  Uiso   1.00
C112   C     0.98979   0.26155   0.12802   0.00000  Uiso   1.00
C113   C     0.32861   0.33626   0.06016   0.00000  Uiso   1.00
C114   C     0.35656   0.41452   0.03422   0.00000  Uiso   1.00
C115   C     0.39070   0.40581   0.98320   0.00000  Uiso   1.00
H116   H     0.30472   0.11029   0.05276   0.00000  Uiso   1.00
H117   H     0.44435   0.04945   0.11953   0.00000  Uiso   1.00
H118   H     0.09817   0.07948   0.06566   0.00000  Uiso   1.00
H119   H     0.37324   0.17845   0.96631   0.00000  Uiso   1.00
H120   H     0.59650   0.01903   0.20424   0.00000  Uiso   1.00
H121   H     0.86655   0.08235   0.09062   0.00000  Uiso   1.00
H122   H     0.44659   0.29105   0.88113   0.00000  Uiso   1.00
H123   H     0.28454   0.39568   0.13487   0.00000  Uiso   1.00
H124   H     0.42307   0.35050   0.20616   0.00000  Uiso   1.00
H125   H     0.07688   0.38052   0.15228   0.00000  Uiso   1.00
H126   H     0.35195   0.47950   0.05294   0.00000  Uiso   1.00
H127   H     0.57922   0.26337   0.27454   0.00000  Uiso   1.00
H128   H     0.84927   0.32669   0.16093   0.00000  Uiso   1.00
H129   H     0.42931   0.53539   0.95144   0.00000  Uiso   1.00
O130   O     0.67932   0.10632   0.28481   0.00000  Uiso   1.00
O131   O     0.72166   0.18940   0.13574   0.00000  Uiso   1.00
O132   O     0.48265   0.46321   0.86090   0.00000  Uiso   1.00
N133   N     0.57344   0.08274   0.21100   0.00000  Uiso   1.00
N134   N     0.89099   0.14193   0.10478   0.00000  Uiso   1.00
N135   N     0.43324   0.33706   0.90892   0.00000  Uiso   1.00
N136   N     0.56414   0.21422   0.24883   0.00000  Uiso   1.00
N137   N     0.88169   0.27341   0.14261   0.00000  Uiso   1.00
N138   N     0.42394   0.46854   0.94675   0.00000  Uiso   1.00
C139   C     0.74944   0.17540   0.92786   0.00000  Uiso   1.00
C140   C     0.67519   0.18053   0.88055   0.00000  Uiso   1.00
C141   C     0.60927   0.11182   0.86216   0.00000  Uiso   1.00
C142   C     0.54743   0.12982   0.81831   0.00000  Uiso   1.00
C143   C     0.43156   0.12504   0.74857   0.00000  Uiso   1.00
C144   C     0.86365   0.19927   0.90877   0.00000  Uiso   1.00
C145   C     0.95619   0.14631   0.91412   0.00000  Uiso   1.00
C146   C     0.05300   0.18010   0.89404   0.00000  Uiso   1.00
C147   C     0.22973   0.20444   0.86815   0.00000  Uiso   1.00
C148   C     0.71456   0.25205   0.96330   0.00000  Uiso   1.00
C149   C     0.68177   0.24347   0.01450   0.00000  Uiso   1.00
C150   C     0.65308   0.32170   0.04034   0.00000  Uiso   1.00
C151   C     0.59833   0.42798   0.09912   0.00000  Uiso   1.00
C152   C     0.75682   0.32958   0.88270   0.00000  Uiso   1.00
C153   C     0.67920   0.26428   0.85602   0.00000  Uiso   1.00
C154   C     0.61743   0.28240   0.81219   0.00000  Uiso   1.00
C155   C     0.55144   0.21372   0.79374   0.00000  Uiso   1.00
C156   C     0.86766   0.28301   0.88424   0.00000  Uiso   1.00
C157   C     0.96435   0.31689   0.86416   0.00000  Uiso   1.00
C158   C     0.05701   0.26400   0.86947   0.00000  Uiso   1.00
C159   C     0.71857   0.33579   0.93878   0.00000  Uiso   1.00
C160   C     0.68993   0.41405   0.96454   0.00000  Uiso   1.00
C161   C     0.65709   0.40559   0.01577   0.00000  Uiso   1.00
H162   H     0.74633   0.11020   0.94695   0.00000  Uiso   1.00
H163   H     0.60620   0.04701   0.88115   0.00000  Uiso   1.00
H164   H     0.95307   0.08151   0.93310   0.00000  Uiso   1.00
H165   H     0.67868   0.17865   0.03347   0.00000  Uiso   1.00
H166   H     0.45264   0.01388   0.79736   0.00000  Uiso   1.00
H167   H     0.18403   0.08663   0.90693   0.00000  Uiso   1.00
H168   H     0.60544   0.29147   0.11858   0.00000  Uiso   1.00
H169   H     0.75995   0.39478   0.86360   0.00000  Uiso   1.00
H170   H     0.62055   0.34721   0.79322   0.00000  Uiso   1.00
H171   H     0.96742   0.38170   0.84518   0.00000  Uiso   1.00
H172   H     0.69304   0.47884   0.94555   0.00000  Uiso   1.00
H173   H     0.46429   0.25753   0.72600   0.00000  Uiso   1.00
H174   H     0.19569   0.33028   0.83557   0.00000  Uiso   1.00
H175   H     0.61709   0.53512   0.04722   0.00000  Uiso   1.00
O176   O     0.36655   0.09926   0.71687   0.00000  Uiso   1.00
O177   O     0.32611   0.19472   0.86064   0.00000  Uiso   1.00
O178   O     0.56701   0.46346   0.13831   0.00000  Uiso   1.00
N179   N     0.47449   0.07776   0.79023   0.00000  Uiso   1.00
N180   N     0.15830   0.14577   0.89266   0.00000  Uiso   1.00
N181   N     0.61739   0.33728   0.09054   0.00000  Uiso   1.00
N182   N     0.48076   0.20886   0.75183   0.00000  Uiso   1.00
N183   N     0.16457   0.27687   0.85426   0.00000  Uiso   1.00
N184   N     0.62366   0.46839   0.05214   0.00000  Uiso   1.00
C185   C     0.19990   0.17567   0.57157   0.00000  Uiso   1.00
C186   C     0.12682   0.18220   0.61924   0.00000  Uiso   1.00
C187   C     0.06022   0.11444   0.63824   0.00000  Uiso   1.00
C188   C     0.99969   0.13365   0.68233   0.00000  Uiso   1.00
C189   C     0.88537   0.13099   0.75268   0.00000  Uiso   1.00
C190   C     0.31492   0.19850   0.58997   0.00000  Uiso   1.00
C191   C     0.40645   0.14446   0.58437   0.00000  Uiso   1.00
C192   C     0.50426   0.17741   0.60381   0.00000  Uiso   1.00
C193   C     0.68196   0.20010   0.62869   0.00000  Uiso   1.00
C194   C     0.16545   0.25227   0.53599   0.00000  Uiso   1.00
C195   C     0.13135   0.24345   0.48500   0.00000  Uiso   1.00
C196   C     0.10334   0.32168   0.45900   0.00000  Uiso   1.00
C197   C     0.04898   0.42785   0.40007   0.00000  Uiso   1.00
C198   C     0.21083   0.33029   0.61606   0.00000  Uiso   1.00
C199   C     0.13277   0.26618   0.64340   0.00000  Uiso   1.00
C200   C     0.07232   0.28551   0.68746   0.00000  Uiso   1.00
C201   C     0.00563   0.21779   0.70653   0.00000  Uiso   1.00
C202   C     0.32086   0.28248   0.61413   0.00000  Uiso   1.00
C203   C     0.41855   0.31553   0.63359   0.00000  Uiso   1.00
C204   C     0.51021   0.26155   0.62802   0.00000  Uiso   1.00
C205   C     0.17139   0.33626   0.56016   0.00000  Uiso   1.00
C206   C     0.14344   0.41452   0.53422   0.00000  Uiso   1.00
C207   C     0.10930   0.40581   0.48320   0.00000  Uiso   1.00
H208   H     0.19528   0.11029   0.55276   0.00000  Uiso   1.00
H209   H     0.05565   0.04945   0.61953   0.00000  Uiso   1.00
H210   H     0.40183   0.07948   0.56566   0.00000  Uiso   1.00
H211   H     0.12676   0.17845   0.46631   0.00000  Uiso   1.00
H212   H     0.90350   0.01903   0.70424   0.00000  Uiso   1.00
H213   H     0.63345   0.08235   0.59062   0.00000  Uiso   1.00
H214   H     0.05341   0.29105   0.38113   0.00000  Uiso   1.00
H215   H     0.21546   0.39568   0.63487   0.00000  Uiso   1.00
H216   H     0.07693   0.35050   0.70616   0.00000  Uiso   1.00
H217   H     0.42312   0.38052   0.65228   0.00000  Uiso   1.00
H218   H     0.14805   0.47950   0.55294   0.00000  Uiso   1.00
H219   H     0.92078   0.26337   0.77454   0.00000  Uiso   1.00
H220   H     0.65073   0.32669   0.66093   0.00000  Uiso   1.00
H221   H     0.07069   0.53539   0.45144   0.00000  Uiso   1.00
O222   O     0.82068   0.10632   0.78481   0.00000  Uiso   1.00
O223   O     0.77834   0.18940   0.63574   0.00000  Uiso   1.00
O224   O     0.01735   0.46321   0.36090   0.00000  Uiso   1.00
N225   N     0.92656   0.08274   0.71100   0.00000  Uiso   1.00
N226   N     0.60901   0.14193   0.60478   0.00000  Uiso   1.00
N227   N     0.06676   0.33706   0.40892   0.00000  Uiso   1.00
N228   N     0.93586   0.21422   0.74883   0.00000  Uiso   1.00
N229   N     0.61831   0.27341   0.64261   0.00000  Uiso   1.00
N230   N     0.07606   0.46854   0.44675   0.00000  Uiso   1.00
C231   C     0.75056   0.17540   0.42786   0.00000  Uiso   1.00
C232   C     0.82481   0.18053   0.38055   0.00000  Uiso   1.00
C233   C     0.89073   0.11182   0.36216   0.00000  Uiso   1.00
C234   C     0.95257   0.12982   0.31831   0.00000  Uiso   1.00
C235   C     0.06844   0.12504   0.24857   0.00000  Uiso   1.00
C236   C     0.63635   0.19927   0.40877   0.00000  Uiso   1.00
C237   C     0.54381   0.14631   0.41412   0.00000  Uiso   1.00
C238   C     0.44700   0.18010   0.39404   0.00000  Uiso   1.00
C239   C     0.27027   0.20444   0.36815   0.00000  Uiso   1.00
C240   C     0.78544   0.25205   0.46330   0.00000  Uiso   1.00
C241   C     0.81823   0.24347   0.51450   0.00000  Uiso   1.00
C242   C     0.84692   0.32170   0.54034   0.00000  Uiso   1.00
C243   C     0.90167   0.42798   0.59912   0.00000  Uiso   1.00
C244   C     0.74318   0.32958   0.38270   0.00000  Uiso   1.00
C245   C     0.82080   0.26428   0.35602   0.00000  Uiso   1.00
C246   C     0.88257   0.28240   0.31219   0.00000  Uiso   1.00
C247   C     0.94856   0.21372   0.29374   0.00000  Uiso   1.00
C248   C     0.63234   0.28301   0.38424   0.00000  Uiso   1.00
C249   C     0.53565   0.31689   0.36416   0.00000  Uiso   1.00
C250   C     0.44299   0.26400   0.36947   0.00000  Uiso   1.00
C251   C     0.78143   0.33579   0.43878   0.00000  Uiso   1.00
C252   C     0.81007   0.41405   0.46454   0.00000  Uiso   1.00
C253   C     0.84291   0.40559   0.51577   0.00000  Uiso   1.00
H254   H     0.75367   0.11020   0.44695   0.00000  Uiso   1.00
H255   H     0.89380   0.04701   0.38115   0.00000  Uiso   1.00
H256   H     0.54693   0.08151   0.43310   0.00000  Uiso   1.00
H257   H     0.82132   0.17865   0.53347   0.00000  Uiso   1.00
H258   H     0.04736   0.01388   0.29736   0.00000  Uiso   1.00
H259   H     0.31597   0.08663   0.40693   0.00000  Uiso   1.00
H260   H     0.89456   0.29147   0.61858   0.00000  Uiso   1.00
H261   H     0.74005   0.39478   0.36360   0.00000  Uiso   1.00
H262   H     0.87945   0.34721   0.29322   0.00000  Uiso   1.00
H263   H     0.53258   0.38170   0.34518   0.00000  Uiso   1.00
H264   H     0.80696   0.47884   0.44555   0.00000  Uiso   1.00
H265   H     0.03571   0.25753   0.22600   0.00000  Uiso   1.00
H266   H     0.30431   0.33028   0.33557   0.00000  Uiso   1.00
H267   H     0.88291   0.53512   0.54722   0.00000  Uiso   1.00
O268   O     0.13345   0.09926   0.21687   0.00000  Uiso   1.00
O269   O     0.17389   0.19472   0.36064   0.00000  Uiso   1.00
O270   O     0.93299   0.46346   0.63831   0.00000  Uiso   1.00
N271   N     0.02551   0.07776   0.29023   0.00000  Uiso   1.00
N272   N     0.34170   0.14577   0.39266   0.00000  Uiso   1.00
N273   N     0.88261   0.33728   0.59054   0.00000  Uiso   1.00
N274   N     0.01924   0.20886   0.25183   0.00000  Uiso   1.00
N275   N     0.33543   0.27687   0.35426   0.00000  Uiso   1.00
N276   N     0.87634   0.46839   0.55214   0.00000  Uiso   1.00
C277   C     0.80010   0.82433   0.07157   0.00000  Uiso   1.00
C278   C     0.87318   0.81780   0.11924   0.00000  Uiso   1.00
C279   C     0.93978   0.88556   0.13824   0.00000  Uiso   1.00
C280   C     0.00031   0.86635   0.18233   0.00000  Uiso   1.00
C281   C     0.11463   0.86901   0.25268   0.00000  Uiso   1.00
C282   C     0.68508   0.80150   0.08997   0.00000  Uiso   1.00
C283   C     0.59355   0.85554   0.08437   0.00000  Uiso   1.00
C284   C     0.49574   0.82259   0.10381   0.00000  Uiso   1.00
C285   C     0.31804   0.79990   0.12869   0.00000  Uiso   1.00
C286   C     0.83455   0.74773   0.03599   0.00000  Uiso   1.00
C287   C     0.86865   0.75655   0.98500   0.00000  Uiso   1.00
C288   C     0.89666   0.67832   0.95900   0.00000  Uiso   1.00
C289   C     0.95102   0.57215   0.90007   0.00000  Uiso   1.00
C290   C     0.78917   0.66971   0.11606   0.00000  Uiso   1.00
C291   C     0.86723   0.73382   0.14340   0.00000  Uiso   1.00
C292   C     0.92768   0.71449   0.18746   0.00000  Uiso   1.00
C293   C     0.99437   0.78221   0.20653   0.00000  Uiso   1.00
C294   C     0.67914   0.71752   0.11413   0.00000  Uiso   1.00
C295   C     0.58145   0.68447   0.13359   0.00000  Uiso   1.00
C296   C     0.48979   0.73845   0.12802   0.00000  Uiso   1.00
C297   C     0.82861   0.66374   0.06016   0.00000  Uiso   1.00
C298   C     0.85656   0.58548   0.03422   0.00000  Uiso   1.00
C299   C     0.89070   0.59419   0.98320   0.00000  Uiso   1.00
H300   H     0.80472   0.88971   0.05276   0.00000  Uiso   1.00
H301   H     0.94435   0.95055   0.11953   0.00000  Uiso   1.00
H302   H     0.59817   0.92052   0.06566   0.00000  Uiso   1.00
H303   H     0.87324   0.82155   0.96631   0.00000  Uiso   1.00
H304   H     0.09650   0.98097   0.20424   0.00000  Uiso   1.00
H305   H     0.36655   0.91765   0.09062   0.00000  Uiso   1.00
H306   H     0.94659   0.70895   0.88113   0.00000  Uiso   1.00
H307   H     0.78454   0.60432   0.13487   0.00000  Uiso   1.00
H308   H     0.92307   0.64950   0.20616   0.00000  Uiso   1.00
H309   H     0.57688   0.61948   0.15228   0.00000  Uiso   1.00
H310   H     0.85195   0.52050   0.05294   0.00000  Uiso   1.00
H311   H     0.07922   0.73663   0.27454   0.00000  Uiso   1.00
H312   H     0.34927   0.67331   0.16093   0.00000  Uiso   1.00
H313   H     0.92931   0.46461   0.95144   0.00000  Uiso   1.00
O314   O     0.17932   0.89368   0.28481   0.00000  Uiso   1.00
O315   O     0.22166   0.81060   0.13574   0.00000  Uiso   1.00
O316   O     0.98265   0.53679   0.86090   0.00000  Uiso   1.00
N317   N     0.07344   0.91726   0.21100   0.00000  Uiso   1.00
N318   N     0.39099   0.85807   0.10478   0.00000  Uiso   1.00
N319   N     0.93324   0.66294   0.90892   0.00000  Uiso   1.00
N320   N     0.06414   0.78578   0.24883   0.00000  Uiso   1.00
N321   N     0.38169   0.72659   0.14261   0.00000  Uiso   1.00
N322   N     0.92394   0.53146   0.94675   0.00000  Uiso   1.00
C323   C     0.24944   0.82460   0.92786   0.00000  Uiso   1.00
C324   C     0.17519   0.81947   0.88055   0.00000  Uiso   1.00
C325   C     0.10927   0.88818   0.86216   0.00000  Uiso   1.00
C326   C     0.04743   0.87018   0.81831   0.00000  Uiso   1.00
C327   C     0.93156   0.87496   0.74857   0.00000  Uiso   1.00
C328   C     0.36365   0.80073   0.90877   0.00000  Uiso   1.00
C329   C     0.45619   0.85369   0.91412   0.00000  Uiso   1.00
C330   C     0.55300   0.81990   0.89404   0.00000  Uiso   1.00
C331   C     0.72973   0.79556   0.86815   0.00000  Uiso   1.00
C332   C     0.21456   0.74795   0.96330   0.00000  Uiso   1.00
C333   C     0.18177   0.75653   0.01450   0.00000  Uiso   1.00
C334   C     0.15308   0.67830   0.04034   0.00000  Uiso   1.00
C335   C     0.09833   0.57202   0.09912   0.00000  Uiso   1.00
C336   C     0.25682   0.67042   0.88270   0.00000  Uiso   1.00
C337   C     0.17920   0.73572   0.85602   0.00000  Uiso   1.00
C338   C     0.11743   0.71760   0.81219   0.00000  Uiso   1.00
C339   C     0.05144   0.78628   0.79374   0.00000  Uiso   1.00
C340   C     0.36766   0.71699   0.88424   0.00000  Uiso   1.00
C341   C     0.46435   0.68311   0.86416   0.00000  Uiso   1.00
C342   C     0.55701   0.73600   0.86947   0.00000  Uiso   1.00
C343   C     0.21857   0.66421   0.93878   0.00000  Uiso   1.00
C344   C     0.18993   0.58595   0.96454   0.00000  Uiso   1.00
C345   C     0.15709   0.59441   0.01577   0.00000  Uiso   1.00
H346   H     0.24633   0.88980   0.94695   0.00000  Uiso   1.00
H347   H     0.10620   0.95299   0.88115   0.00000  Uiso   1.00
H348   H     0.45307   0.91849   0.93310   0.00000  Uiso   1.00
H349   H     0.17868   0.82135   0.03347   0.00000  Uiso   1.00
H350   H     0.95264   0.98612   0.79736   0.00000  Uiso   1.00
H351   H     0.68403   0.91337   0.90693   0.00000  Uiso   1.00
H352   H     0.10544   0.70853   0.11858   0.00000  Uiso   1.00
H353   H     0.25995   0.60522   0.86360   0.00000  Uiso   1.00
H354   H     0.12055   0.65279   0.79322   0.00000  Uiso   1.00
H355   H     0.46742   0.61830   0.84518   0.00000  Uiso   1.00
H356   H     0.19304   0.52116   0.94555   0.00000  Uiso   1.00
H357   H     0.96429   0.74247   0.72600   0.00000  Uiso   1.00
H358   H     0.69569   0.66972   0.83557   0.00000  Uiso   1.00
H359   H     0.11709   0.46488   0.04722   0.00000  Uiso   1.00
O360   O     0.86655   0.90074   0.71687   0.00000  Uiso   1.00
O361   O     0.82611   0.80528   0.86064   0.00000  Uiso   1.00
O362   O     0.06701   0.53654   0.13831   0.00000  Uiso   1.00
N363   N     0.97449   0.92224   0.79023   0.00000  Uiso   1.00
N364   N     0.65830   0.85423   0.89266   0.00000  Uiso   1.00
N365   N     0.11739   0.66272   0.09054   0.00000  Uiso   1.00
N366   N     0.98076   0.79114   0.75183   0.00000  Uiso   1.00
N367   N     0.66457   0.72313   0.85426   0.00000  Uiso   1.00
N368   N     0.12366   0.53161   0.05214   0.00000  Uiso   1.00
