data_job_02085
_audit_creation_date              2018-12-19
_audit_creation_method            'Materials Studio'
_symmetry_space_group_name_H-M    'P1'
_symmetry_Int_Tables_number       1
_symmetry_cell_setting            triclinic
loop_
_symmetry_equiv_pos_as_xyz
  x,y,z
_cell_length_a                    20.9282
_cell_length_b                    12.4389
_cell_length_c                    35.3235
_cell_angle_alpha                 90.0000
_cell_angle_beta                  43.1302
_cell_angle_gamma                 90.0000
loop_
_atom_site_label
_atom_site_type_symbol
_atom_site_fract_x
_atom_site_fract_y
_atom_site_fract_z
_atom_site_U_iso_or_equiv
_atom_site_adp_type
_atom_site_occupancy
C1     C     0.50083   0.13241   0.68988   0.00000  Uiso   1.00
C2     C     0.46873   0.21279   0.67387   0.00000  Uiso   1.00
C3     C     0.42006   0.30726   0.70186   0.00000  Uiso   1.00
C4     C     0.39708   0.36989   0.68062   0.00000  Uiso   1.00
C5     C     0.34342   0.49937   0.66301   0.00000  Uiso   1.00
C6     C     0.45891   0.02444   0.69661   0.00000  Uiso   1.00
C7     C     0.40199   0.96054   0.74371   0.00000  Uiso   1.00
C8     C     0.37076   0.86461   0.74161   0.00000  Uiso   1.00
C9     C     0.30190   0.70164   0.75928   0.00000  Uiso   1.00
C10    C     0.60620   0.12107   0.63921   0.00000  Uiso   1.00
C11    C     0.67313   0.13839   0.63804   0.00000  Uiso   1.00
C12    C     0.76590   0.12379   0.58761   0.00000  Uiso   1.00
C13    C     0.92573   0.11086   0.51615   0.00000  Uiso   1.00
C14    C     0.54658   0.07564   0.60239   0.00000  Uiso   1.00
C15    C     0.49358   0.18196   0.62635   0.00000  Uiso   1.00
C16    C     0.47067   0.24446   0.60506   0.00000  Uiso   1.00
C17    C     0.42198   0.33901   0.63301   0.00000  Uiso   1.00
C18    C     0.48375   0.99361   0.64909   0.00000  Uiso   1.00
C19    C     0.45260   0.89774   0.64692   0.00000  Uiso   1.00
C20    C     0.39565   0.83372   0.69400   0.00000  Uiso   1.00
C21    C     0.63105   0.09024   0.59168   0.00000  Uiso   1.00
C22    C     0.72374   0.07560   0.54124   0.00000  Uiso   1.00
C23    C     0.79080   0.09290   0.54000   0.00000  Uiso   1.00
H24    H     0.48149   0.15640   0.72688   0.00000  Uiso   1.00
H25    H     0.40084   0.33109   0.73864   0.00000  Uiso   1.00
H26    H     0.38278   0.98442   0.78048   0.00000  Uiso   1.00
H27    H     0.65387   0.16225   0.67483   0.00000  Uiso   1.00
H28    H     0.32235   0.51114   0.73073   0.00000  Uiso   1.00
H29    H     0.28430   0.78016   0.81895   0.00000  Uiso   1.00
H30    H     0.85596   0.15515   0.59616   0.00000  Uiso   1.00
H31    H     0.56592   0.05163   0.56539   0.00000  Uiso   1.00
H32    H     0.48991   0.22058   0.56829   0.00000  Uiso   1.00
H33    H     0.47185   0.87391   0.61013   0.00000  Uiso   1.00
H34    H     0.74294   0.05174   0.50448   0.00000  Uiso   1.00
H35    H     0.39464   0.42145   0.59247   0.00000  Uiso   1.00
H36    H     0.35659   0.69046   0.68069   0.00000  Uiso   1.00
H37    H     0.92825   0.06545   0.45789   0.00000  Uiso   1.00
O38    O     0.30694   0.57930   0.66643   0.00000  Uiso   1.00
O39    O     0.25704   0.62028   0.78217   0.00000  Uiso   1.00
O40    O     0.00703   0.11225   0.48987   0.00000  Uiso   1.00
N41    N     0.34981   0.46686   0.69779   0.00000  Uiso   1.00
N42    N     0.31423   0.78344   0.78027   0.00000  Uiso   1.00
N43    N     0.84867   0.13399   0.57198   0.00000  Uiso   1.00
N44    N     0.38871   0.41860   0.62339   0.00000  Uiso   1.00
N45    N     0.35313   0.73518   0.70587   0.00000  Uiso   1.00
N46    N     0.88757   0.08573   0.49758   0.00000  Uiso   1.00
C47    C     0.00083   0.63241   0.68988   0.00000  Uiso   1.00
C48    C     0.96873   0.71279   0.67387   0.00000  Uiso   1.00
C49    C     0.92006   0.80726   0.70186   0.00000  Uiso   1.00
C50    C     0.89708   0.86989   0.68062   0.00000  Uiso   1.00
C51    C     0.84342   0.99937   0.66301   0.00000  Uiso   1.00
C52    C     0.95891   0.52444   0.69661   0.00000  Uiso   1.00
C53    C     0.90199   0.46054   0.74371   0.00000  Uiso   1.00
C54    C     0.87076   0.36461   0.74161   0.00000  Uiso   1.00
C55    C     0.80190   0.20164   0.75928   0.00000  Uiso   1.00
C56    C     0.10620   0.62107   0.63921   0.00000  Uiso   1.00
C57    C     0.17313   0.63839   0.63804   0.00000  Uiso   1.00
C58    C     0.26590   0.62379   0.58761   0.00000  Uiso   1.00
C59    C     0.42573   0.61086   0.51615   0.00000  Uiso   1.00
C60    C     0.04658   0.57564   0.60239   0.00000  Uiso   1.00
C61    C     0.99358   0.68196   0.62635   0.00000  Uiso   1.00
C62    C     0.97067   0.74446   0.60506   0.00000  Uiso   1.00
C63    C     0.92198   0.83901   0.63301   0.00000  Uiso   1.00
C64    C     0.98375   0.49361   0.64909   0.00000  Uiso   1.00
C65    C     0.95260   0.39774   0.64692   0.00000  Uiso   1.00
C66    C     0.89565   0.33372   0.69400   0.00000  Uiso   1.00
C67    C     0.13105   0.59024   0.59168   0.00000  Uiso   1.00
C68    C     0.22374   0.57560   0.54124   0.00000  Uiso   1.00
C69    C     0.29080   0.59290   0.54000   0.00000  Uiso   1.00
H70    H     0.98149   0.65640   0.72688   0.00000  Uiso   1.00
H71    H     0.90084   0.83109   0.73864   0.00000  Uiso   1.00
H72    H     0.88278   0.48442   0.78048   0.00000  Uiso   1.00
H73    H     0.15387   0.66225   0.67483   0.00000  Uiso   1.00
H74    H     0.82235   0.01114   0.73073   0.00000  Uiso   1.00
H75    H     0.78430   0.28016   0.81895   0.00000  Uiso   1.00
H76    H     0.35596   0.65515   0.59616   0.00000  Uiso   1.00
H77    H     0.06592   0.55163   0.56539   0.00000  Uiso   1.00
H78    H     0.98991   0.72058   0.56829   0.00000  Uiso   1.00
H79    H     0.97185   0.37391   0.61013   0.00000  Uiso   1.00
H80    H     0.24294   0.55174   0.50448   0.00000  Uiso   1.00
H81    H     0.89464   0.92145   0.59247   0.00000  Uiso   1.00
H82    H     0.85659   0.19046   0.68069   0.00000  Uiso   1.00
H83    H     0.42825   0.56545   0.45789   0.00000  Uiso   1.00
O84    O     0.80694   0.07930   0.66643   0.00000  Uiso   1.00
O85    O     0.75704   0.12028   0.78217   0.00000  Uiso   1.00
O86    O     0.50703   0.61225   0.48987   0.00000  Uiso   1.00
N87    N     0.84981   0.96686   0.69779   0.00000  Uiso   1.00
N88    N     0.81423   0.28344   0.78027   0.00000  Uiso   1.00
N89    N     0.34867   0.63399   0.57198   0.00000  Uiso   1.00
N90    N     0.88871   0.91860   0.62339   0.00000  Uiso   1.00
N91    N     0.85313   0.23518   0.70587   0.00000  Uiso   1.00
N92    N     0.38757   0.58573   0.49758   0.00000  Uiso   1.00
C93    C     0.49917   0.13241   0.81012   0.00000  Uiso   1.00
C94    C     0.53127   0.21279   0.82613   0.00000  Uiso   1.00
C95    C     0.57994   0.30726   0.79814   0.00000  Uiso   1.00
C96    C     0.60292   0.36989   0.81938   0.00000  Uiso   1.00
C97    C     0.65658   0.49937   0.83699   0.00000  Uiso   1.00
C98    C     0.54109   0.02444   0.80339   0.00000  Uiso   1.00
C99    C     0.59801   0.96054   0.75629   0.00000  Uiso   1.00
C100   C     0.62924   0.86461   0.75839   0.00000  Uiso   1.00
C101   C     0.69810   0.70164   0.74072   0.00000  Uiso   1.00
C102   C     0.39380   0.12107   0.86079   0.00000  Uiso   1.00
C103   C     0.32687   0.13839   0.86196   0.00000  Uiso   1.00
C104   C     0.23410   0.12379   0.91239   0.00000  Uiso   1.00
C105   C     0.07427   0.11086   0.98385   0.00000  Uiso   1.00
C106   C     0.45342   0.07564   0.89761   0.00000  Uiso   1.00
C107   C     0.50642   0.18196   0.87365   0.00000  Uiso   1.00
C108   C     0.52933   0.24446   0.89494   0.00000  Uiso   1.00
C109   C     0.57802   0.33901   0.86699   0.00000  Uiso   1.00
C110   C     0.51625   0.99361   0.85091   0.00000  Uiso   1.00
C111   C     0.54740   0.89774   0.85308   0.00000  Uiso   1.00
C112   C     0.60435   0.83372   0.80600   0.00000  Uiso   1.00
C113   C     0.36895   0.09024   0.90832   0.00000  Uiso   1.00
C114   C     0.27626   0.07560   0.95876   0.00000  Uiso   1.00
C115   C     0.20920   0.09290   0.96000   0.00000  Uiso   1.00
H116   H     0.51851   0.15640   0.77312   0.00000  Uiso   1.00
H117   H     0.59916   0.33109   0.76136   0.00000  Uiso   1.00
H118   H     0.61722   0.98442   0.71952   0.00000  Uiso   1.00
H119   H     0.34613   0.16225   0.82517   0.00000  Uiso   1.00
H120   H     0.67765   0.51114   0.76927   0.00000  Uiso   1.00
H121   H     0.71570   0.78016   0.68105   0.00000  Uiso   1.00
H122   H     0.14404   0.15515   0.90384   0.00000  Uiso   1.00
H123   H     0.43408   0.05163   0.93461   0.00000  Uiso   1.00
H124   H     0.51009   0.22058   0.93171   0.00000  Uiso   1.00
H125   H     0.52815   0.87391   0.88987   0.00000  Uiso   1.00
H126   H     0.25706   0.05174   0.99552   0.00000  Uiso   1.00
H127   H     0.60536   0.42145   0.90753   0.00000  Uiso   1.00
H128   H     0.64341   0.69046   0.81931   0.00000  Uiso   1.00
H129   H     0.07175   0.06545   0.04211   0.00000  Uiso   1.00
O130   O     0.69306   0.57930   0.83357   0.00000  Uiso   1.00
O131   O     0.74296   0.62028   0.71783   0.00000  Uiso   1.00
O132   O     0.99297   0.11225   0.01013   0.00000  Uiso   1.00
N133   N     0.65019   0.46686   0.80221   0.00000  Uiso   1.00
N134   N     0.68577   0.78344   0.71973   0.00000  Uiso   1.00
N135   N     0.15133   0.13399   0.92802   0.00000  Uiso   1.00
N136   N     0.61129   0.41860   0.87661   0.00000  Uiso   1.00
N137   N     0.64687   0.73518   0.79413   0.00000  Uiso   1.00
N138   N     0.11243   0.08573   0.00242   0.00000  Uiso   1.00
C139   C     0.99917   0.63241   0.81012   0.00000  Uiso   1.00
C140   C     0.03127   0.71279   0.82613   0.00000  Uiso   1.00
C141   C     0.07994   0.80726   0.79814   0.00000  Uiso   1.00
C142   C     0.10292   0.86989   0.81938   0.00000  Uiso   1.00
C143   C     0.15658   0.99937   0.83699   0.00000  Uiso   1.00
C144   C     0.04109   0.52444   0.80339   0.00000  Uiso   1.00
C145   C     0.09801   0.46054   0.75629   0.00000  Uiso   1.00
C146   C     0.12924   0.36461   0.75839   0.00000  Uiso   1.00
C147   C     0.19810   0.20164   0.74072   0.00000  Uiso   1.00
C148   C     0.89380   0.62107   0.86079   0.00000  Uiso   1.00
C149   C     0.82687   0.63839   0.86196   0.00000  Uiso   1.00
C150   C     0.73410   0.62379   0.91239   0.00000  Uiso   1.00
C151   C     0.57427   0.61086   0.98385   0.00000  Uiso   1.00
C152   C     0.95342   0.57564   0.89761   0.00000  Uiso   1.00
C153   C     0.00642   0.68196   0.87365   0.00000  Uiso   1.00
C154   C     0.02933   0.74446   0.89494   0.00000  Uiso   1.00
C155   C     0.07802   0.83901   0.86699   0.00000  Uiso   1.00
C156   C     0.01625   0.49361   0.85091   0.00000  Uiso   1.00
C157   C     0.04740   0.39774   0.85308   0.00000  Uiso   1.00
C158   C     0.10435   0.33372   0.80600   0.00000  Uiso   1.00
C159   C     0.86895   0.59024   0.90832   0.00000  Uiso   1.00
C160   C     0.77626   0.57560   0.95876   0.00000  Uiso   1.00
C161   C     0.70920   0.59290   0.96000   0.00000  Uiso   1.00
H162   H     0.01851   0.65640   0.77312   0.00000  Uiso   1.00
H163   H     0.09916   0.83109   0.76136   0.00000  Uiso   1.00
H164   H     0.11722   0.48442   0.71952   0.00000  Uiso   1.00
H165   H     0.84613   0.66225   0.82517   0.00000  Uiso   1.00
H166   H     0.17765   0.01114   0.76927   0.00000  Uiso   1.00
H167   H     0.21570   0.28016   0.68105   0.00000  Uiso   1.00
H168   H     0.64404   0.65515   0.90384   0.00000  Uiso   1.00
H169   H     0.93408   0.55163   0.93461   0.00000  Uiso   1.00
H170   H     0.01009   0.72058   0.93171   0.00000  Uiso   1.00
H171   H     0.02815   0.37391   0.88987   0.00000  Uiso   1.00
H172   H     0.75706   0.55174   0.99552   0.00000  Uiso   1.00
H173   H     0.10536   0.92145   0.90753   0.00000  Uiso   1.00
H174   H     0.14341   0.19046   0.81931   0.00000  Uiso   1.00
H175   H     0.57175   0.56545   0.04211   0.00000  Uiso   1.00
O176   O     0.19306   0.07930   0.83357   0.00000  Uiso   1.00
O177   O     0.24296   0.12028   0.71783   0.00000  Uiso   1.00
O178   O     0.49297   0.61225   0.01013   0.00000  Uiso   1.00
N179   N     0.15019   0.96686   0.80221   0.00000  Uiso   1.00
N180   N     0.18577   0.28344   0.71973   0.00000  Uiso   1.00
N181   N     0.65133   0.63399   0.92802   0.00000  Uiso   1.00
N182   N     0.11129   0.91860   0.87661   0.00000  Uiso   1.00
N183   N     0.14687   0.23518   0.79413   0.00000  Uiso   1.00
N184   N     0.61243   0.58573   0.00242   0.00000  Uiso   1.00
C185   C     0.49917   0.86759   0.31012   0.00000  Uiso   1.00
C186   C     0.53127   0.78721   0.32613   0.00000  Uiso   1.00
C187   C     0.57994   0.69274   0.29814   0.00000  Uiso   1.00
C188   C     0.60292   0.63011   0.31938   0.00000  Uiso   1.00
C189   C     0.65658   0.50063   0.33699   0.00000  Uiso   1.00
C190   C     0.54109   0.97556   0.30339   0.00000  Uiso   1.00
C191   C     0.59801   0.03946   0.25629   0.00000  Uiso   1.00
C192   C     0.62924   0.13539   0.25839   0.00000  Uiso   1.00
C193   C     0.69810   0.29836   0.24072   0.00000  Uiso   1.00
C194   C     0.39380   0.87893   0.36079   0.00000  Uiso   1.00
C195   C     0.32687   0.86161   0.36196   0.00000  Uiso   1.00
C196   C     0.23410   0.87621   0.41239   0.00000  Uiso   1.00
C197   C     0.07427   0.88914   0.48385   0.00000  Uiso   1.00
C198   C     0.45342   0.92436   0.39761   0.00000  Uiso   1.00
C199   C     0.50642   0.81804   0.37365   0.00000  Uiso   1.00
C200   C     0.52933   0.75554   0.39494   0.00000  Uiso   1.00
C201   C     0.57802   0.66099   0.36699   0.00000  Uiso   1.00
C202   C     0.51625   0.00639   0.35091   0.00000  Uiso   1.00
C203   C     0.54740   0.10226   0.35308   0.00000  Uiso   1.00
C204   C     0.60435   0.16628   0.30600   0.00000  Uiso   1.00
C205   C     0.36895   0.90976   0.40832   0.00000  Uiso   1.00
C206   C     0.27626   0.92440   0.45876   0.00000  Uiso   1.00
C207   C     0.20920   0.90710   0.46000   0.00000  Uiso   1.00
H208   H     0.51851   0.84360   0.27312   0.00000  Uiso   1.00
H209   H     0.59916   0.66891   0.26136   0.00000  Uiso   1.00
H210   H     0.61722   0.01558   0.21952   0.00000  Uiso   1.00
H211   H     0.34613   0.83775   0.32517   0.00000  Uiso   1.00
H212   H     0.67765   0.48886   0.26927   0.00000  Uiso   1.00
H213   H     0.71570   0.21984   0.18105   0.00000  Uiso   1.00
H214   H     0.14404   0.84485   0.40384   0.00000  Uiso   1.00
H215   H     0.43408   0.94837   0.43461   0.00000  Uiso   1.00
H216   H     0.51009   0.77942   0.43171   0.00000  Uiso   1.00
H217   H     0.52815   0.12609   0.38987   0.00000  Uiso   1.00
H218   H     0.25706   0.94826   0.49552   0.00000  Uiso   1.00
H219   H     0.60536   0.57855   0.40753   0.00000  Uiso   1.00
H220   H     0.64341   0.30954   0.31931   0.00000  Uiso   1.00
H221   H     0.07175   0.93455   0.54211   0.00000  Uiso   1.00
O222   O     0.69306   0.42070   0.33357   0.00000  Uiso   1.00
O223   O     0.74296   0.37972   0.21783   0.00000  Uiso   1.00
O224   O     0.99297   0.88775   0.51013   0.00000  Uiso   1.00
N225   N     0.65019   0.53314   0.30221   0.00000  Uiso   1.00
N226   N     0.68577   0.21656   0.21973   0.00000  Uiso   1.00
N227   N     0.15133   0.86601   0.42802   0.00000  Uiso   1.00
N228   N     0.61129   0.58140   0.37661   0.00000  Uiso   1.00
N229   N     0.64687   0.26482   0.29413   0.00000  Uiso   1.00
N230   N     0.11243   0.91427   0.50242   0.00000  Uiso   1.00
C231   C     0.99917   0.36759   0.31012   0.00000  Uiso   1.00
C232   C     0.03127   0.28721   0.32613   0.00000  Uiso   1.00
C233   C     0.07994   0.19274   0.29814   0.00000  Uiso   1.00
C234   C     0.10292   0.13011   0.31938   0.00000  Uiso   1.00
C235   C     0.15658   0.00063   0.33699   0.00000  Uiso   1.00
C236   C     0.04109   0.47556   0.30339   0.00000  Uiso   1.00
C237   C     0.09801   0.53946   0.25629   0.00000  Uiso   1.00
C238   C     0.12924   0.63539   0.25839   0.00000  Uiso   1.00
C239   C     0.19810   0.79836   0.24072   0.00000  Uiso   1.00
C240   C     0.89380   0.37893   0.36079   0.00000  Uiso   1.00
C241   C     0.82687   0.36161   0.36196   0.00000  Uiso   1.00
C242   C     0.73410   0.37621   0.41239   0.00000  Uiso   1.00
C243   C     0.57427   0.38914   0.48385   0.00000  Uiso   1.00
C244   C     0.95342   0.42436   0.39761   0.00000  Uiso   1.00
C245   C     0.00642   0.31804   0.37365   0.00000  Uiso   1.00
C246   C     0.02933   0.25554   0.39494   0.00000  Uiso   1.00
C247   C     0.07802   0.16099   0.36699   0.00000  Uiso   1.00
C248   C     0.01625   0.50639   0.35091   0.00000  Uiso   1.00
C249   C     0.04740   0.60226   0.35308   0.00000  Uiso   1.00
C250   C     0.10435   0.66628   0.30600   0.00000  Uiso   1.00
C251   C     0.86895   0.40976   0.40832   0.00000  Uiso   1.00
C252   C     0.77626   0.42440   0.45876   0.00000  Uiso   1.00
C253   C     0.70920   0.40710   0.46000   0.00000  Uiso   1.00
H254   H     0.01851   0.34360   0.27312   0.00000  Uiso   1.00
H255   H     0.09916   0.16891   0.26136   0.00000  Uiso   1.00
H256   H     0.11722   0.51558   0.21952   0.00000  Uiso   1.00
H257   H     0.84613   0.33775   0.32517   0.00000  Uiso   1.00
H258   H     0.17765   0.98886   0.26927   0.00000  Uiso   1.00
H259   H     0.21570   0.71984   0.18105   0.00000  Uiso   1.00
H260   H     0.64404   0.34485   0.40384   0.00000  Uiso   1.00
H261   H     0.93408   0.44837   0.43461   0.00000  Uiso   1.00
H262   H     0.01009   0.27942   0.43171   0.00000  Uiso   1.00
H263   H     0.02815   0.62609   0.38987   0.00000  Uiso   1.00
H264   H     0.75706   0.44826   0.49552   0.00000  Uiso   1.00
H265   H     0.10536   0.07855   0.40753   0.00000  Uiso   1.00
H266   H     0.14341   0.80954   0.31931   0.00000  Uiso   1.00
H267   H     0.57175   0.43455   0.54211   0.00000  Uiso   1.00
O268   O     0.19306   0.92070   0.33357   0.00000  Uiso   1.00
O269   O     0.24296   0.87972   0.21783   0.00000  Uiso   1.00
O270   O     0.49297   0.38775   0.51013   0.00000  Uiso   1.00
N271   N     0.15019   0.03314   0.30221   0.00000  Uiso   1.00
N272   N     0.18577   0.71656   0.21973   0.00000  Uiso   1.00
N273   N     0.65133   0.36601   0.42802   0.00000  Uiso   1.00
N274   N     0.11129   0.08140   0.37661   0.00000  Uiso   1.00
N275   N     0.14687   0.76482   0.29413   0.00000  Uiso   1.00
N276   N     0.61243   0.41427   0.50242   0.00000  Uiso   1.00
C277   C     0.50083   0.86759   0.18988   0.00000  Uiso   1.00
C278   C     0.46873   0.78721   0.17387   0.00000  Uiso   1.00
C279   C     0.42006   0.69274   0.20186   0.00000  Uiso   1.00
C280   C     0.39708   0.63011   0.18062   0.00000  Uiso   1.00
C281   C     0.34342   0.50063   0.16301   0.00000  Uiso   1.00
C282   C     0.45891   0.97556   0.19661   0.00000  Uiso   1.00
C283   C     0.40199   0.03946   0.24371   0.00000  Uiso   1.00
C284   C     0.37076   0.13539   0.24161   0.00000  Uiso   1.00
C285   C     0.30190   0.29836   0.25928   0.00000  Uiso   1.00
C286   C     0.60620   0.87893   0.13921   0.00000  Uiso   1.00
C287   C     0.67313   0.86161   0.13804   0.00000  Uiso   1.00
C288   C     0.76590   0.87621   0.08761   0.00000  Uiso   1.00
C289   C     0.92573   0.88914   0.01615   0.00000  Uiso   1.00
C290   C     0.54658   0.92436   0.10239   0.00000  Uiso   1.00
C291   C     0.49358   0.81804   0.12635   0.00000  Uiso   1.00
C292   C     0.47067   0.75554   0.10506   0.00000  Uiso   1.00
C293   C     0.42198   0.66099   0.13301   0.00000  Uiso   1.00
C294   C     0.48375   0.00639   0.14909   0.00000  Uiso   1.00
C295   C     0.45260   0.10226   0.14692   0.00000  Uiso   1.00
C296   C     0.39565   0.16628   0.19400   0.00000  Uiso   1.00
C297   C     0.63105   0.90976   0.09168   0.00000  Uiso   1.00
C298   C     0.72374   0.92440   0.04124   0.00000  Uiso   1.00
C299   C     0.79080   0.90710   0.04000   0.00000  Uiso   1.00
H300   H     0.48149   0.84360   0.22688   0.00000  Uiso   1.00
H301   H     0.40084   0.66891   0.23864   0.00000  Uiso   1.00
H302   H     0.38278   0.01558   0.28048   0.00000  Uiso   1.00
H303   H     0.65387   0.83775   0.17483   0.00000  Uiso   1.00
H304   H     0.32235   0.48886   0.23073   0.00000  Uiso   1.00
H305   H     0.28430   0.21984   0.31895   0.00000  Uiso   1.00
H306   H     0.85596   0.84485   0.09616   0.00000  Uiso   1.00
H307   H     0.56592   0.94837   0.06539   0.00000  Uiso   1.00
H308   H     0.48991   0.77942   0.06829   0.00000  Uiso   1.00
H309   H     0.47185   0.12609   0.11013   0.00000  Uiso   1.00
H310   H     0.74294   0.94826   0.00448   0.00000  Uiso   1.00
H311   H     0.39464   0.57855   0.09247   0.00000  Uiso   1.00
H312   H     0.35659   0.30954   0.18069   0.00000  Uiso   1.00
H313   H     0.92825   0.93455   0.95789   0.00000  Uiso   1.00
O314   O     0.30694   0.42070   0.16643   0.00000  Uiso   1.00
O315   O     0.25704   0.37972   0.28217   0.00000  Uiso   1.00
O316   O     0.00703   0.88775   0.98987   0.00000  Uiso   1.00
N317   N     0.34981   0.53314   0.19779   0.00000  Uiso   1.00
N318   N     0.31423   0.21656   0.28027   0.00000  Uiso   1.00
N319   N     0.84867   0.86601   0.07198   0.00000  Uiso   1.00
N320   N     0.38871   0.58140   0.12339   0.00000  Uiso   1.00
N321   N     0.35313   0.26482   0.20587   0.00000  Uiso   1.00
N322   N     0.88757   0.91427   0.99758   0.00000  Uiso   1.00
C323   C     0.00083   0.36759   0.18988   0.00000  Uiso   1.00
C324   C     0.96873   0.28721   0.17387   0.00000  Uiso   1.00
C325   C     0.92006   0.19274   0.20186   0.00000  Uiso   1.00
C326   C     0.89708   0.13011   0.18062   0.00000  Uiso   1.00
C327   C     0.84342   0.00063   0.16301   0.00000  Uiso   1.00
C328   C     0.95891   0.47556   0.19661   0.00000  Uiso   1.00
C329   C     0.90199   0.53946   0.24371   0.00000  Uiso   1.00
C330   C     0.87076   0.63539   0.24161   0.00000  Uiso   1.00
C331   C     0.80190   0.79836   0.25928   0.00000  Uiso   1.00
C332   C     0.10620   0.37893   0.13921   0.00000  Uiso   1.00
C333   C     0.17313   0.36161   0.13804   0.00000  Uiso   1.00
C334   C     0.26590   0.37621   0.08761   0.00000  Uiso   1.00
C335   C     0.42573   0.38914   0.01615   0.00000  Uiso   1.00
C336   C     0.04658   0.42436   0.10239   0.00000  Uiso   1.00
C337   C     0.99358   0.31804   0.12635   0.00000  Uiso   1.00
C338   C     0.97067   0.25554   0.10506   0.00000  Uiso   1.00
C339   C     0.92198   0.16099   0.13301   0.00000  Uiso   1.00
C340   C     0.98375   0.50639   0.14909   0.00000  Uiso   1.00
C341   C     0.95260   0.60226   0.14692   0.00000  Uiso   1.00
C342   C     0.89565   0.66628   0.19400   0.00000  Uiso   1.00
C343   C     0.13105   0.40976   0.09168   0.00000  Uiso   1.00
C344   C     0.22374   0.42440   0.04124   0.00000  Uiso   1.00
C345   C     0.29080   0.40710   0.04000   0.00000  Uiso   1.00
H346   H     0.98149   0.34360   0.22688   0.00000  Uiso   1.00
H347   H     0.90084   0.16891   0.23864   0.00000  Uiso   1.00
H348   H     0.88278   0.51558   0.28048   0.00000  Uiso   1.00
H349   H     0.15387   0.33775   0.17483   0.00000  Uiso   1.00
H350   H     0.82235   0.98886   0.23073   0.00000  Uiso   1.00
H351   H     0.78430   0.71984   0.31895   0.00000  Uiso   1.00
H352   H     0.35596   0.34485   0.09616   0.00000  Uiso   1.00
H353   H     0.06592   0.44837   0.06539   0.00000  Uiso   1.00
H354   H     0.98991   0.27942   0.06829   0.00000  Uiso   1.00
H355   H     0.97185   0.62609   0.11013   0.00000  Uiso   1.00
H356   H     0.24294   0.44826   0.00448   0.00000  Uiso   1.00
H357   H     0.89464   0.07855   0.09247   0.00000  Uiso   1.00
H358   H     0.85659   0.80954   0.18069   0.00000  Uiso   1.00
H359   H     0.42825   0.43455   0.95789   0.00000  Uiso   1.00
O360   O     0.80694   0.92070   0.16643   0.00000  Uiso   1.00
O361   O     0.75704   0.87972   0.28217   0.00000  Uiso   1.00
O362   O     0.50703   0.38775   0.98987   0.00000  Uiso   1.00
N363   N     0.84981   0.03314   0.19779   0.00000  Uiso   1.00
N364   N     0.81423   0.71656   0.28027   0.00000  Uiso   1.00
N365   N     0.34867   0.36601   0.07198   0.00000  Uiso   1.00
N366   N     0.88871   0.08140   0.12339   0.00000  Uiso   1.00
N367   N     0.85313   0.76482   0.20587   0.00000  Uiso   1.00
N368   N     0.38757   0.41427   0.99758   0.00000  Uiso   1.00
