data_job_06450
_audit_creation_date              2018-12-19
_audit_creation_method            'Materials Studio'
_symmetry_space_group_name_H-M    'P1'
_symmetry_Int_Tables_number       1
_symmetry_cell_setting            triclinic
loop_
_symmetry_equiv_pos_as_xyz
  x,y,z
_cell_length_a                    15.5555
_cell_length_b                    15.3769
_cell_length_c                    15.0167
_cell_angle_alpha                 88.8706
_cell_angle_beta                  88.9605
_cell_angle_gamma                 88.5761
loop_
_atom_site_label
_atom_site_type_symbol
_atom_site_fract_x
_atom_site_fract_y
_atom_site_fract_z
_atom_site_U_iso_or_equiv
_atom_site_adp_type
_atom_site_occupancy
C1     C     0.57703   0.69612   0.04730   0.00000  Uiso   1.00
C2     C     0.60229   0.62492   0.11466   0.00000  Uiso   1.00
C3     C     0.68561   0.60216   0.13906   0.00000  Uiso   1.00
C4     C     0.69524   0.53526   0.20179   0.00000  Uiso   1.00
C5     C     0.74531   0.43115   0.30072   0.00000  Uiso   1.00
C6     C     0.52400   0.65213   0.97745   0.00000  Uiso   1.00
C7     C     0.54148   0.65227   0.88649   0.00000  Uiso   1.00
C8     C     0.48520   0.60827   0.83371   0.00000  Uiso   1.00
C9     C     0.41368   0.54646   0.71962   0.00000  Uiso   1.00
C10    C     0.51499   0.75760   0.09641   0.00000  Uiso   1.00
C11    C     0.52488   0.84643   0.10545   0.00000  Uiso   1.00
C12    C     0.46099   0.89124   0.15283   0.00000  Uiso   1.00
C13    C     0.37548   0.99319   0.22343   0.00000  Uiso   1.00
C14    C     0.44599   0.61777   0.11532   0.00000  Uiso   1.00
C15    C     0.53112   0.58236   0.15159   0.00000  Uiso   1.00
C16    C     0.54063   0.51547   0.21431   0.00000  Uiso   1.00
C17    C     0.62394   0.49262   0.23880   0.00000  Uiso   1.00
C18    C     0.45283   0.60957   0.01438   0.00000  Uiso   1.00
C19    C     0.39650   0.56557   0.96174   0.00000  Uiso   1.00
C20    C     0.41390   0.56564   0.87072   0.00000  Uiso   1.00
C21    C     0.44381   0.71504   0.13335   0.00000  Uiso   1.00
C22    C     0.37990   0.75973   0.18071   0.00000  Uiso   1.00
C23    C     0.38969   0.84860   0.18983   0.00000  Uiso   1.00
H24    H     0.63244   0.72925   0.01854   0.00000  Uiso   1.00
H25    H     0.74067   0.63511   0.11045   0.00000  Uiso   1.00
H26    H     0.59656   0.68521   0.85792   0.00000  Uiso   1.00
H27    H     0.57996   0.87934   0.07686   0.00000  Uiso   1.00
H28    H     0.82928   0.51195   0.22862   0.00000  Uiso   1.00
H29    H     0.52540   0.61761   0.69614   0.00000  Uiso   1.00
H30    H     0.49040   0.02697   0.15781   0.00000  Uiso   1.00
H31    H     0.39058   0.58463   0.14408   0.00000  Uiso   1.00
H32    H     0.48554   0.48255   0.24288   0.00000  Uiso   1.00
H33    H     0.34143   0.53265   0.99035   0.00000  Uiso   1.00
H34    H     0.32483   0.72678   0.20929   0.00000  Uiso   1.00
H35    H     0.62221   0.38812   0.33610   0.00000  Uiso   1.00
H36    H     0.31833   0.49379   0.80362   0.00000  Uiso   1.00
H37    H     0.28333   0.90314   0.26530   0.00000  Uiso   1.00
O38    O     0.79258   0.38547   0.34507   0.00000  Uiso   1.00
O39    O     0.39390   0.52412   0.64647   0.00000  Uiso   1.00
O40    O     0.34798   0.06118   0.25219   0.00000  Uiso   1.00
N41    N     0.76751   0.49682   0.24037   0.00000  Uiso   1.00
N42    N     0.48341   0.59561   0.74253   0.00000  Uiso   1.00
N43    N     0.45068   0.97832   0.17414   0.00000  Uiso   1.00
N44    N     0.65609   0.43020   0.29821   0.00000  Uiso   1.00
N45    N     0.37199   0.52898   0.80037   0.00000  Uiso   1.00
N46    N     0.33925   0.91169   0.23198   0.00000  Uiso   1.00
C47    C     0.04868   0.57736   0.69862   0.00000  Uiso   1.00
C48    C     0.11376   0.60278   0.62613   0.00000  Uiso   1.00
C49    C     0.13685   0.68701   0.60326   0.00000  Uiso   1.00
C50    C     0.19756   0.69662   0.53508   0.00000  Uiso   1.00
C51    C     0.29306   0.74705   0.42914   0.00000  Uiso   1.00
C52    C     0.98173   0.52367   0.65305   0.00000  Uiso   1.00
C53    C     0.89382   0.54140   0.65282   0.00000  Uiso   1.00
C54    C     0.84338   0.48441   0.60730   0.00000  Uiso   1.00
C55    C     0.73390   0.41199   0.54320   0.00000  Uiso   1.00
C56    C     0.09629   0.51468   0.76158   0.00000  Uiso   1.00
C57    C     0.10467   0.52483   0.85262   0.00000  Uiso   1.00
C58    C     0.15067   0.46026   0.89849   0.00000  Uiso   1.00
C59    C     0.21905   0.37388   0.00291   0.00000  Uiso   1.00
C60    C     0.11543   0.44463   0.61822   0.00000  Uiso   1.00
C61    C     0.15001   0.53068   0.58246   0.00000  Uiso   1.00
C62    C     0.21070   0.54016   0.51430   0.00000  Uiso   1.00
C63    C     0.23388   0.62440   0.49133   0.00000  Uiso   1.00
C64    C     0.01798   0.45158   0.60938   0.00000  Uiso   1.00
C65    C     0.96767   0.39455   0.56386   0.00000  Uiso   1.00
C66    C     0.87970   0.41218   0.56355   0.00000  Uiso   1.00
C67    C     0.13255   0.44259   0.71791   0.00000  Uiso   1.00
C68    C     0.17853   0.37798   0.76366   0.00000  Uiso   1.00
C69    C     0.18698   0.38803   0.85474   0.00000  Uiso   1.00
H70    H     0.02045   0.63349   0.73262   0.00000  Uiso   1.00
H71    H     0.10877   0.74279   0.63707   0.00000  Uiso   1.00
H72    H     0.86578   0.59719   0.68663   0.00000  Uiso   1.00
H73    H     0.07661   0.58062   0.88639   0.00000  Uiso   1.00
H74    H     0.22266   0.83218   0.51185   0.00000  Uiso   1.00
H75    H     0.71029   0.52515   0.61637   0.00000  Uiso   1.00
H76    H     0.15486   0.49023   0.03762   0.00000  Uiso   1.00
H77    H     0.14365   0.38850   0.58422   0.00000  Uiso   1.00
H78    H     0.23875   0.48436   0.48052   0.00000  Uiso   1.00
H79    H     0.99575   0.33877   0.53007   0.00000  Uiso   1.00
H80    H     0.20657   0.32220   0.72984   0.00000  Uiso   1.00
H81    H     0.32815   0.62243   0.38478   0.00000  Uiso   1.00
H82    H     0.81577   0.31541   0.48930   0.00000  Uiso   1.00
H83    H     0.26034   0.28048   0.91055   0.00000  Uiso   1.00
O84    O     0.33571   0.79479   0.38275   0.00000  Uiso   1.00
O85    O     0.66350   0.39198   0.51990   0.00000  Uiso   1.00
O86    O     0.24676   0.34616   0.07256   0.00000  Uiso   1.00
N87    N     0.23445   0.76966   0.49618   0.00000  Uiso   1.00
N88    N     0.75542   0.48262   0.59389   0.00000  Uiso   1.00
N89    N     0.17103   0.44995   0.98773   0.00000  Uiso   1.00
N90    N     0.29122   0.65680   0.42781   0.00000  Uiso   1.00
N91    N     0.81218   0.36976   0.52552   0.00000  Uiso   1.00
N92    N     0.22779   0.33709   0.91936   0.00000  Uiso   1.00
C93    C     0.69493   0.04807   0.57797   0.00000  Uiso   1.00
C94    C     0.62445   0.11398   0.60390   0.00000  Uiso   1.00
C95    C     0.60195   0.13750   0.69013   0.00000  Uiso   1.00
C96    C     0.53572   0.19896   0.69988   0.00000  Uiso   1.00
C97    C     0.43267   0.29570   0.75137   0.00000  Uiso   1.00
C98    C     0.65153   0.98027   0.52253   0.00000  Uiso   1.00
C99    C     0.65182   0.89136   0.54034   0.00000  Uiso   1.00
C100   C     0.60840   0.84026   0.48158   0.00000  Uiso   1.00
C101   C     0.54745   0.72941   0.40671   0.00000  Uiso   1.00
C102   C     0.75559   0.09610   0.51427   0.00000  Uiso   1.00
C103   C     0.84338   0.10456   0.52513   0.00000  Uiso   1.00
C104   C     0.88757   0.15096   0.45940   0.00000  Uiso   1.00
C105   C     0.98819   0.21996   0.37171   0.00000  Uiso   1.00
C106   C     0.61731   0.11541   0.44193   0.00000  Uiso   1.00
C107   C     0.58229   0.15056   0.53000   0.00000  Uiso   1.00
C108   C     0.51608   0.21200   0.53962   0.00000  Uiso   1.00
C109   C     0.49349   0.23560   0.62585   0.00000  Uiso   1.00
C110   C     0.60937   0.01684   0.44863   0.00000  Uiso   1.00
C111   C     0.56594   0.96586   0.38983   0.00000  Uiso   1.00
C112   C     0.56616   0.87690   0.40755   0.00000  Uiso   1.00
C113   C     0.71343   0.13268   0.44037   0.00000  Uiso   1.00
C114   C     0.75750   0.17907   0.37461   0.00000  Uiso   1.00
C115   C     0.84533   0.18760   0.38537   0.00000  Uiso   1.00
H116   H     0.72775   0.01959   0.63550   0.00000  Uiso   1.00
H117   H     0.63459   0.10917   0.74730   0.00000  Uiso   1.00
H118   H     0.68446   0.86307   0.59753   0.00000  Uiso   1.00
H119   H     0.87598   0.07625   0.58232   0.00000  Uiso   1.00
H120   H     0.51270   0.22459   0.83867   0.00000  Uiso   1.00
H121   H     0.61787   0.70568   0.52285   0.00000  Uiso   1.00
H122   H     0.02174   0.15519   0.49077   0.00000  Uiso   1.00
H123   H     0.58448   0.14389   0.38440   0.00000  Uiso   1.00
H124   H     0.48346   0.24029   0.48242   0.00000  Uiso   1.00
H125   H     0.53333   0.99419   0.33265   0.00000  Uiso   1.00
H126   H     0.72485   0.20736   0.31744   0.00000  Uiso   1.00
H127   H     0.39003   0.33101   0.62368   0.00000  Uiso   1.00
H128   H     0.49521   0.81209   0.30786   0.00000  Uiso   1.00
H129   H     0.89908   0.26161   0.27578   0.00000  Uiso   1.00
O130   O     0.38748   0.33895   0.80019   0.00000  Uiso   1.00
O131   O     0.52548   0.65816   0.38584   0.00000  Uiso   1.00
O132   O     0.05534   0.24792   0.34375   0.00000  Uiso   1.00
N133   N     0.49770   0.23642   0.77462   0.00000  Uiso   1.00
N134   N     0.59602   0.75127   0.47935   0.00000  Uiso   1.00
N135   N     0.97361   0.17151   0.44935   0.00000  Uiso   1.00
N136   N     0.43170   0.29369   0.65894   0.00000  Uiso   1.00
N137   N     0.53002   0.80853   0.36367   0.00000  Uiso   1.00
N138   N     0.90761   0.22877   0.33367   0.00000  Uiso   1.00
C139   C     0.07732   0.54809   0.19871   0.00000  Uiso   1.00
C140   C     0.10234   0.61397   0.12616   0.00000  Uiso   1.00
C141   C     0.18557   0.63745   0.10337   0.00000  Uiso   1.00
C142   C     0.19498   0.69889   0.03512   0.00000  Uiso   1.00
C143   C     0.24469   0.79559   0.92911   0.00000  Uiso   1.00
C144   C     0.02434   0.48029   0.15315   0.00000  Uiso   1.00
C145   C     0.04198   0.39137   0.15308   0.00000  Uiso   1.00
C146   C     0.98571   0.34028   0.10756   0.00000  Uiso   1.00
C147   C     0.91427   0.22943   0.04351   0.00000  Uiso   1.00
C148   C     0.01531   0.59616   0.26151   0.00000  Uiso   1.00
C149   C     0.02534   0.60464   0.35254   0.00000  Uiso   1.00
C150   C     0.96145   0.65108   0.39825   0.00000  Uiso   1.00
C151   C     0.87600   0.72013   0.50244   0.00000  Uiso   1.00
C152   C     0.94603   0.61545   0.11801   0.00000  Uiso   1.00
C153   C     0.03103   0.65056   0.08233   0.00000  Uiso   1.00
C154   C     0.04031   0.71197   0.01409   0.00000  Uiso   1.00
C155   C     0.12354   0.73554   0.99121   0.00000  Uiso   1.00
C156   C     0.95303   0.51687   0.10932   0.00000  Uiso   1.00
C157   C     0.89671   0.46590   0.06379   0.00000  Uiso   1.00
C158   C     0.91426   0.37693   0.06364   0.00000  Uiso   1.00
C159   C     0.94399   0.63275   0.21768   0.00000  Uiso   1.00
C160   C     0.88008   0.67917   0.26326   0.00000  Uiso   1.00
C161   C     0.89001   0.68773   0.35434   0.00000  Uiso   1.00
H162   H     0.13284   0.51960   0.23283   0.00000  Uiso   1.00
H163   H     0.24075   0.60912   0.13731   0.00000  Uiso   1.00
H164   H     0.09716   0.36308   0.18701   0.00000  Uiso   1.00
H165   H     0.08053   0.57632   0.38644   0.00000  Uiso   1.00
H166   H     0.32894   0.72447   0.01205   0.00000  Uiso   1.00
H167   H     0.02617   0.20569   0.11687   0.00000  Uiso   1.00
H168   H     0.99109   0.65535   0.53742   0.00000  Uiso   1.00
H169   H     0.89050   0.64393   0.08388   0.00000  Uiso   1.00
H170   H     0.98511   0.74027   0.98018   0.00000  Uiso   1.00
H171   H     0.84153   0.49423   0.02989   0.00000  Uiso   1.00
H172   H     0.82490   0.70747   0.22932   0.00000  Uiso   1.00
H173   H     0.12145   0.83092   0.88452   0.00000  Uiso   1.00
H174   H     0.81868   0.31213   0.98935   0.00000  Uiso   1.00
H175   H     0.78361   0.76179   0.40989   0.00000  Uiso   1.00
O176   O     0.29181   0.83881   0.88273   0.00000  Uiso   1.00
O177   O     0.89458   0.15818   0.02028   0.00000  Uiso   1.00
O178   O     0.84856   0.74813   0.57201   0.00000  Uiso   1.00
N179   N     0.26712   0.73632   0.99627   0.00000  Uiso   1.00
N180   N     0.98406   0.25128   0.09427   0.00000  Uiso   1.00
N181   N     0.95125   0.67166   0.48745   0.00000  Uiso   1.00
N182   N     0.15548   0.79360   0.92765   0.00000  Uiso   1.00
N183   N     0.87241   0.30856   0.02565   0.00000  Uiso   1.00
N184   N     0.83961   0.72894   0.41883   0.00000  Uiso   1.00
C185   C     0.54851   0.19616   0.07774   0.00000  Uiso   1.00
C186   C     0.61376   0.12495   0.10386   0.00000  Uiso   1.00
C187   C     0.63704   0.10221   0.19016   0.00000  Uiso   1.00
C188   C     0.69788   0.03529   0.20010   0.00000  Uiso   1.00
C189   C     0.79366   0.93116   0.25189   0.00000  Uiso   1.00
C190   C     0.48154   0.15217   0.02226   0.00000  Uiso   1.00
C191   C     0.39366   0.15234   0.03994   0.00000  Uiso   1.00
C192   C     0.34320   0.10835   0.98117   0.00000  Uiso   1.00
C193   C     0.23370   0.04655   0.90623   0.00000  Uiso   1.00
C194   C     0.59589   0.25761   0.01401   0.00000  Uiso   1.00
C195   C     0.60414   0.34643   0.02475   0.00000  Uiso   1.00
C196   C     0.64994   0.39121   0.95903   0.00000  Uiso   1.00
C197   C     0.71799   0.49311   0.87129   0.00000  Uiso   1.00
C198   C     0.61516   0.11774   0.94191   0.00000  Uiso   1.00
C199   C     0.64996   0.08235   0.03008   0.00000  Uiso   1.00
C200   C     0.71079   0.01545   0.03988   0.00000  Uiso   1.00
C201   C     0.73415   0.99262   0.12619   0.00000  Uiso   1.00
C202   C     0.51774   0.10958   0.94848   0.00000  Uiso   1.00
C203   C     0.46740   0.06558   0.88966   0.00000  Uiso   1.00
C204   C     0.37947   0.06568   0.90726   0.00000  Uiso   1.00
C205   C     0.63210   0.21501   0.94023   0.00000  Uiso   1.00
C206   C     0.67789   0.25966   0.87447   0.00000  Uiso   1.00
C207   C     0.68620   0.34854   0.88511   0.00000  Uiso   1.00
H208   H     0.52032   0.22932   0.13517   0.00000  Uiso   1.00
H209   H     0.60900   0.13518   0.24724   0.00000  Uiso   1.00
H210   H     0.36566   0.18532   0.09704   0.00000  Uiso   1.00
H211   H     0.57612   0.37937   0.08185   0.00000  Uiso   1.00
H212   H     0.72327   0.01201   0.33896   0.00000  Uiso   1.00
H213   H     0.21017   0.11774   0.02222   0.00000  Uiso   1.00
H214   H     0.65394   0.52695   0.99020   0.00000  Uiso   1.00
H215   H     0.64335   0.08458   0.88446   0.00000  Uiso   1.00
H216   H     0.73879   0.98250   0.98278   0.00000  Uiso   1.00
H217   H     0.49544   0.03263   0.83257   0.00000  Uiso   1.00
H218   H     0.70589   0.22668   0.81739   0.00000  Uiso   1.00
H219   H     0.82860   0.88808   0.12431   0.00000  Uiso   1.00
H220   H     0.31549   0.99382   0.80757   0.00000  Uiso   1.00
H221   H     0.75927   0.40302   0.77555   0.00000  Uiso   1.00
O222   O     0.83648   0.88549   0.30083   0.00000  Uiso   1.00
O223   O     0.16330   0.02422   0.88528   0.00000  Uiso   1.00
O224   O     0.74553   0.56108   0.84328   0.00000  Uiso   1.00
N225   N     0.73498   0.99687   0.27495   0.00000  Uiso   1.00
N226   N     0.25525   0.09571   0.97883   0.00000  Uiso   1.00
N227   N     0.67013   0.47828   0.94888   0.00000  Uiso   1.00
N228   N     0.79166   0.93018   0.15945   0.00000  Uiso   1.00
N229   N     0.31193   0.02903   0.86333   0.00000  Uiso   1.00
N230   N     0.72681   0.41160   0.83338   0.00000  Uiso   1.00
C231   C     0.19480   0.07730   0.54746   0.00000  Uiso   1.00
C232   C     0.12440   0.10276   0.61467   0.00000  Uiso   1.00
C233   C     0.10180   0.18701   0.63891   0.00000  Uiso   1.00
C234   C     0.03565   0.19666   0.70153   0.00000  Uiso   1.00
C235   C     0.93269   0.24716   0.80024   0.00000  Uiso   1.00
C236   C     0.15139   0.02361   0.47761   0.00000  Uiso   1.00
C237   C     0.15148   0.04130   0.38663   0.00000  Uiso   1.00
C238   C     0.10807   0.98431   0.33388   0.00000  Uiso   1.00
C239   C     0.04706   0.91188   0.21979   0.00000  Uiso   1.00
C240   C     0.25567   0.01462   0.59674   0.00000  Uiso   1.00
C241   C     0.34345   0.02474   0.60590   0.00000  Uiso   1.00
C242   C     0.38784   0.96017   0.65343   0.00000  Uiso   1.00
C243   C     0.48874   0.87379   0.72432   0.00000  Uiso   1.00
C244   C     0.11754   0.94462   0.61555   0.00000  Uiso   1.00
C245   C     0.08243   0.03069   0.65165   0.00000  Uiso   1.00
C246   C     0.01631   0.04022   0.71425   0.00000  Uiso   1.00
C247   C     0.99361   0.12447   0.73859   0.00000  Uiso   1.00
C248   C     0.10942   0.95154   0.51460   0.00000  Uiso   1.00
C249   C     0.06600   0.89451   0.46197   0.00000  Uiso   1.00
C250   C     0.06603   0.91212   0.37093   0.00000  Uiso   1.00
C251   C     0.21370   0.94255   0.63373   0.00000  Uiso   1.00
C252   C     0.25796   0.87795   0.68125   0.00000  Uiso   1.00
C253   C     0.34580   0.88797   0.69048   0.00000  Uiso   1.00
H254   H     0.22747   0.13341   0.51866   0.00000  Uiso   1.00
H255   H     0.13428   0.24277   0.61027   0.00000  Uiso   1.00
H256   H     0.18397   0.09707   0.35803   0.00000  Uiso   1.00
H257   H     0.37591   0.08052   0.57727   0.00000  Uiso   1.00
H258   H     0.01244   0.33223   0.72813   0.00000  Uiso   1.00
H259   H     0.11723   0.02501   0.19625   0.00000  Uiso   1.00
H260   H     0.52196   0.99010   0.65857   0.00000  Uiso   1.00
H261   H     0.08486   0.88851   0.64434   0.00000  Uiso   1.00
H262   H     0.98385   0.98443   0.74286   0.00000  Uiso   1.00
H263   H     0.03353   0.83874   0.49061   0.00000  Uiso   1.00
H264   H     0.22547   0.82219   0.70986   0.00000  Uiso   1.00
H265   H     0.89033   0.12256   0.83574   0.00000  Uiso   1.00
H266   H     0.99513   0.81534   0.30386   0.00000  Uiso   1.00
H267   H     0.39986   0.78043   0.76619   0.00000  Uiso   1.00
O268   O     0.88748   0.29492   0.84445   0.00000  Uiso   1.00
O269   O     0.02499   0.89185   0.14665   0.00000  Uiso   1.00
O270   O     0.55598   0.84605   0.75321   0.00000  Uiso   1.00
N271   N     0.99757   0.26972   0.73995   0.00000  Uiso   1.00
N272   N     0.09554   0.98250   0.24267   0.00000  Uiso   1.00
N273   N     0.47394   0.94985   0.67489   0.00000  Uiso   1.00
N274   N     0.93187   0.15690   0.79786   0.00000  Uiso   1.00
N275   N     0.02984   0.86967   0.30058   0.00000  Uiso   1.00
N276   N     0.40823   0.83702   0.73280   0.00000  Uiso   1.00
