data_job_06839
_audit_creation_date              2018-12-19
_audit_creation_method            'Materials Studio'
_symmetry_space_group_name_H-M    'P1'
_symmetry_Int_Tables_number       1
_symmetry_cell_setting            triclinic
loop_
_symmetry_equiv_pos_as_xyz
  x,y,z
_cell_length_a                    18.0553
_cell_length_b                    18.9131
_cell_length_c                    26.0170
_cell_angle_alpha                 73.6356
_cell_angle_beta                  73.2064
_cell_angle_gamma                 68.8841
loop_
_atom_site_label
_atom_site_type_symbol
_atom_site_fract_x
_atom_site_fract_y
_atom_site_fract_z
_atom_site_U_iso_or_equiv
_atom_site_adp_type
_atom_site_occupancy
C1     C     0.62867   0.38782   0.84372   0.00000  Uiso   1.00
C2     C     0.70406   0.37685   0.86402   0.00000  Uiso   1.00
C3     C     0.77251   0.31246   0.86326   0.00000  Uiso   1.00
C4     C     0.83503   0.31357   0.88370   0.00000  Uiso   1.00
C5     C     0.95297   0.28690   0.91214   0.00000  Uiso   1.00
C6     C     0.55729   0.40358   0.89198   0.00000  Uiso   1.00
C7     C     0.50233   0.36167   0.91473   0.00000  Uiso   1.00
C8     C     0.44129   0.38528   0.95870   0.00000  Uiso   1.00
C9     C     0.33133   0.40014   0.03053   0.00000  Uiso   1.00
C10    C     0.61731   0.46282   0.80095   0.00000  Uiso   1.00
C11    C     0.61280   0.47074   0.74717   0.00000  Uiso   1.00
C12    C     0.60228   0.54424   0.71451   0.00000  Uiso   1.00
C13    C     0.58551   0.65109   0.64500   0.00000  Uiso   1.00
C14    C     0.61797   0.50427   0.88136   0.00000  Uiso   1.00
C15    C     0.69825   0.44011   0.88446   0.00000  Uiso   1.00
C16    C     0.76068   0.44131   0.90491   0.00000  Uiso   1.00
C17    C     0.82922   0.37694   0.90419   0.00000  Uiso   1.00
C18    C     0.55148   0.46683   0.91243   0.00000  Uiso   1.00
C19    C     0.49050   0.49051   0.95637   0.00000  Uiso   1.00
C20    C     0.43547   0.44865   0.97919   0.00000  Uiso   1.00
C21    C     0.61150   0.52608   0.82140   0.00000  Uiso   1.00
C22    C     0.60098   0.59958   0.78882   0.00000  Uiso   1.00
C23    C     0.59646   0.60761   0.73500   0.00000  Uiso   1.00
H24    H     0.63318   0.33857   0.82780   0.00000  Uiso   1.00
H25    H     0.77698   0.26352   0.84744   0.00000  Uiso   1.00
H26    H     0.50684   0.31272   0.89889   0.00000  Uiso   1.00
H27    H     0.61730   0.42177   0.73136   0.00000  Uiso   1.00
H28    H     0.93384   0.20820   0.87825   0.00000  Uiso   1.00
H29    H     0.36421   0.31196   0.98673   0.00000  Uiso   1.00
H30    H     0.59713   0.54192   0.63346   0.00000  Uiso   1.00
H31    H     0.61344   0.55352   0.89728   0.00000  Uiso   1.00
H32    H     0.75617   0.49027   0.92073   0.00000  Uiso   1.00
H33    H     0.48602   0.53947   0.97218   0.00000  Uiso   1.00
H34    H     0.59648   0.64852   0.80465   0.00000  Uiso   1.00
H35    H     0.91694   0.39223   0.93774   0.00000  Uiso   1.00
H36    H     0.34731   0.49600   0.04622   0.00000  Uiso   1.00
H37    H     0.58023   0.72595   0.69295   0.00000  Uiso   1.00
O38    O     0.01962   0.25471   0.92219   0.00000  Uiso   1.00
O39    O     0.27228   0.39086   0.06450   0.00000  Uiso   1.00
O40    O     0.57788   0.69255   0.60102   0.00000  Uiso   1.00
N41    N     0.91028   0.26020   0.88902   0.00000  Uiso   1.00
N42    N     0.37772   0.35720   0.99045   0.00000  Uiso   1.00
N43    N     0.59546   0.57220   0.66017   0.00000  Uiso   1.00
N44    N     0.90119   0.35923   0.92103   0.00000  Uiso   1.00
N45    N     0.36863   0.45623   0.02246   0.00000  Uiso   1.00
N46    N     0.58637   0.67123   0.69218   0.00000  Uiso   1.00
C47    C     0.63316   0.16826   0.82838   0.00000  Uiso   1.00
C48    C     0.55490   0.20545   0.80682   0.00000  Uiso   1.00
C49    C     0.53456   0.27673   0.77183   0.00000  Uiso   1.00
C50    C     0.46015   0.30054   0.75686   0.00000  Uiso   1.00
C51    C     0.34654   0.36527   0.72047   0.00000  Uiso   1.00
C52    C     0.60725   0.15201   0.89068   0.00000  Uiso   1.00
C53    C     0.63094   0.17835   0.92619   0.00000  Uiso   1.00
C54    C     0.60059   0.15716   0.98181   0.00000  Uiso   1.00
C55    C     0.56831   0.13889   0.07561   0.00000  Uiso   1.00
C56    C     0.67155   0.08945   0.81204   0.00000  Uiso   1.00
C57    C     0.74931   0.06317   0.78146   0.00000  Uiso   1.00
C58    C     0.77312   0.98931   0.77088   0.00000  Uiso   1.00
C59    C     0.84067   0.87390   0.74259   0.00000  Uiso   1.00
C60    C     0.53717   0.08379   0.86400   0.00000  Uiso   1.00
C61    C     0.50276   0.15957   0.82617   0.00000  Uiso   1.00
C62    C     0.42836   0.18327   0.81124   0.00000  Uiso   1.00
C63    C     0.40791   0.25458   0.77624   0.00000  Uiso   1.00
C64    C     0.55511   0.10613   0.91003   0.00000  Uiso   1.00
C65    C     0.52473   0.08490   0.96560   0.00000  Uiso   1.00
C66    C     0.54836   0.11120   0.00119   0.00000  Uiso   1.00
C67    C     0.61941   0.04357   0.83139   0.00000  Uiso   1.00
C68    C     0.64310   0.96972   0.82086   0.00000  Uiso   1.00
C69    C     0.72088   0.94334   0.79026   0.00000  Uiso   1.00
H70    H     0.67376   0.20398   0.81332   0.00000  Uiso   1.00
H71    H     0.57493   0.31222   0.75687   0.00000  Uiso   1.00
H72    H     0.67129   0.21385   0.91121   0.00000  Uiso   1.00
H73    H     0.78964   0.09869   0.76649   0.00000  Uiso   1.00
H74    H     0.44235   0.41200   0.70284   0.00000  Uiso   1.00
H75    H     0.64556   0.20456   0.02827   0.00000  Uiso   1.00
H76    H     0.89514   0.96173   0.72310   0.00000  Uiso   1.00
H77    H     0.49657   0.04807   0.87906   0.00000  Uiso   1.00
H78    H     0.38802   0.14776   0.82622   0.00000  Uiso   1.00
H79    H     0.48439   0.04939   0.98056   0.00000  Uiso   1.00
H80    H     0.60274   0.93423   0.83584   0.00000  Uiso   1.00
H81    H     0.29065   0.27852   0.75913   0.00000  Uiso   1.00
H82    H     0.49387   0.07108   0.08456   0.00000  Uiso   1.00
H83    H     0.74343   0.82825   0.77939   0.00000  Uiso   1.00
O84    O     0.29827   0.41366   0.69506   0.00000  Uiso   1.00
O85    O     0.56490   0.14149   0.12200   0.00000  Uiso   1.00
O86    O     0.89232   0.82292   0.72163   0.00000  Uiso   1.00
N87    N     0.42155   0.36690   0.72333   0.00000  Uiso   1.00
N88    N     0.61153   0.17296   0.02759   0.00000  Uiso   1.00
N89    N     0.84487   0.94593   0.74229   0.00000  Uiso   1.00
N90    N     0.33992   0.29507   0.75362   0.00000  Uiso   1.00
N91    N     0.52990   0.10114   0.05788   0.00000  Uiso   1.00
N92    N     0.76324   0.87411   0.77258   0.00000  Uiso   1.00
C93    C     0.24328   0.46816   0.85863   0.00000  Uiso   1.00
C94    C     0.26648   0.52304   0.87982   0.00000  Uiso   1.00
C95    C     0.33445   0.54821   0.85701   0.00000  Uiso   1.00
C96    C     0.34491   0.59833   0.88247   0.00000  Uiso   1.00
C97    C     0.38940   0.67985   0.90830   0.00000  Uiso   1.00
C98    C     0.23546   0.40090   0.90653   0.00000  Uiso   1.00
C99    C     0.27734   0.32338   0.90617   0.00000  Uiso   1.00
C100   C     0.26167   0.27069   0.95411   0.00000  Uiso   1.00
C101   C     0.25796   0.16259   0.02139   0.00000  Uiso   1.00
C102   C     0.15780   0.51086   0.84833   0.00000  Uiso   1.00
C103   C     0.13438   0.52578   0.79904   0.00000  Uiso   1.00
C104   C     0.05332   0.56564   0.79799   0.00000  Uiso   1.00
C105   C     0.92903   0.62826   0.77490   0.00000  Uiso   1.00
C106   C     0.14097   0.51241   0.94439   0.00000  Uiso   1.00
C107   C     0.21091   0.54707   0.92640   0.00000  Uiso   1.00
C108   C     0.22126   0.59716   0.95190   0.00000  Uiso   1.00
C109   C     0.28923   0.62241   0.92913   0.00000  Uiso   1.00
C110   C     0.17989   0.42493   0.95311   0.00000  Uiso   1.00
C111   C     0.16415   0.37234   0.00106   0.00000  Uiso   1.00
C112   C     0.20600   0.29476   0.00078   0.00000  Uiso   1.00
C113   C     0.10223   0.53489   0.89491   0.00000  Uiso   1.00
C114   C     0.02119   0.57473   0.89393   0.00000  Uiso   1.00
C115   C     0.99764   0.58971   0.84465   0.00000  Uiso   1.00
H116   H     0.28655   0.44945   0.82237   0.00000  Uiso   1.00
H117   H     0.37745   0.52959   0.82097   0.00000  Uiso   1.00
H118   H     0.32034   0.30480   0.87012   0.00000  Uiso   1.00
H119   H     0.17740   0.50717   0.76301   0.00000  Uiso   1.00
H120   H     0.45374   0.62903   0.83997   0.00000  Uiso   1.00
H121   H     0.33330   0.15504   0.94360   0.00000  Uiso   1.00
H122   H     0.03188   0.58177   0.71773   0.00000  Uiso   1.00
H123   H     0.09771   0.53111   0.98066   0.00000  Uiso   1.00
H124   H     0.17825   0.61575   0.98795   0.00000  Uiso   1.00
H125   H     0.12114   0.39095   0.03710   0.00000  Uiso   1.00
H126   H     0.97820   0.59332   0.92998   0.00000  Uiso   1.00
H127   H     0.29206   0.69895   0.97549   0.00000  Uiso   1.00
H128   H     0.17162   0.22496   0.07912   0.00000  Uiso   1.00
H129   H     0.87020   0.65169   0.85326   0.00000  Uiso   1.00
O130   O     0.42930   0.71817   0.90968   0.00000  Uiso   1.00
O131   O     0.27128   0.09632   0.04563   0.00000  Uiso   1.00
O132   O     0.87583   0.65618   0.74930   0.00000  Uiso   1.00
N133   N     0.40462   0.63388   0.87086   0.00000  Uiso   1.00
N134   N     0.29203   0.19073   0.96775   0.00000  Uiso   1.00
N135   N     0.01023   0.58967   0.75659   0.00000  Uiso   1.00
N136   N     0.31763   0.67151   0.94378   0.00000  Uiso   1.00
N137   N     0.20504   0.22836   0.04067   0.00000  Uiso   1.00
N138   N     0.92323   0.62730   0.82951   0.00000  Uiso   1.00
C139   C     0.11366   0.47087   0.31112   0.00000  Uiso   1.00
C140   C     0.15992   0.51141   0.32767   0.00000  Uiso   1.00
C141   C     0.15376   0.58942   0.31119   0.00000  Uiso   1.00
C142   C     0.20113   0.61531   0.33082   0.00000  Uiso   1.00
C143   C     0.26506   0.68592   0.35124   0.00000  Uiso   1.00
C144   C     0.06833   0.43251   0.36445   0.00000  Uiso   1.00
C145   C     0.98518   0.44418   0.37888   0.00000  Uiso   1.00
C146   C     0.95546   0.40365   0.42947   0.00000  Uiso   1.00
C147   C     0.87721   0.35173   0.50696   0.00000  Uiso   1.00
C148   C     0.17789   0.40515   0.28524   0.00000  Uiso   1.00
C149   C     0.18685   0.39379   0.23308   0.00000  Uiso   1.00
C150   C     0.24936   0.33021   0.21700   0.00000  Uiso   1.00
C151   C     0.34122   0.23581   0.17151   0.00000  Uiso   1.00
C152   C     0.20874   0.37814   0.37530   0.00000  Uiso   1.00
C153   C     0.21155   0.46104   0.36253   0.00000  Uiso   1.00
C154   C     0.25895   0.48682   0.38219   0.00000  Uiso   1.00
C155   C     0.25287   0.56485   0.36574   0.00000  Uiso   1.00
C156   C     0.11997   0.38214   0.39931   0.00000  Uiso   1.00
C157   C     0.09037   0.34158   0.44989   0.00000  Uiso   1.00
C158   C     0.00719   0.35319   0.46440   0.00000  Uiso   1.00
C159   C     0.22954   0.35478   0.32010   0.00000  Uiso   1.00
C160   C     0.29204   0.29120   0.30409   0.00000  Uiso   1.00
C161   C     0.30109   0.27975   0.25192   0.00000  Uiso   1.00
H162   H     0.07345   0.51008   0.28399   0.00000  Uiso   1.00
H163   H     0.11378   0.62838   0.28422   0.00000  Uiso   1.00
H164   H     0.94523   0.48315   0.35189   0.00000  Uiso   1.00
H165   H     0.14687   0.43278   0.20612   0.00000  Uiso   1.00
H166   H     0.18124   0.73732   0.29986   0.00000  Uiso   1.00
H167   H     0.82584   0.43109   0.44255   0.00000  Uiso   1.00
H168   H     0.25104   0.32487   0.13516   0.00000  Uiso   1.00
H169   H     0.24895   0.33892   0.40244   0.00000  Uiso   1.00
H170   H     0.29891   0.44783   0.40917   0.00000  Uiso   1.00
H171   H     0.13035   0.30260   0.47685   0.00000  Uiso   1.00
H172   H     0.33199   0.25223   0.33108   0.00000  Uiso   1.00
H173   H     0.33149   0.59078   0.40128   0.00000  Uiso   1.00
H174   H     0.97609   0.28455   0.54397   0.00000  Uiso   1.00
H175   H     0.40129   0.17833   0.23658   0.00000  Uiso   1.00
O176   O     0.28605   0.73879   0.35287   0.00000  Uiso   1.00
O177   O     0.81978   0.33701   0.54007   0.00000  Uiso   1.00
O178   O     0.37763   0.19765   0.13679   0.00000  Uiso   1.00
N179   N     0.20976   0.68789   0.32279   0.00000  Uiso   1.00
N180   N     0.87748   0.40159   0.45621   0.00000  Uiso   1.00
N181   N     0.27499   0.30227   0.16883   0.00000  Uiso   1.00
N182   N     0.29061   0.60903   0.37737   0.00000  Uiso   1.00
N183   N     0.95833   0.32274   0.51078   0.00000  Uiso   1.00
N184   N     0.35584   0.22341   0.22340   0.00000  Uiso   1.00
C185   C     0.12477   0.88734   0.40679   0.00000  Uiso   1.00
C186   C     0.05570   0.91867   0.37600   0.00000  Uiso   1.00
C187   C     0.06067   0.90734   0.32453   0.00000  Uiso   1.00
C188   C     0.99070   0.94077   0.30340   0.00000  Uiso   1.00
C189   C     0.89444   0.98281   0.25114   0.00000  Uiso   1.00
C190   C     0.09382   0.84043   0.46176   0.00000  Uiso   1.00
C191   C     0.13085   0.76331   0.48240   0.00000  Uiso   1.00
C192   C     0.09297   0.73087   0.53348   0.00000  Uiso   1.00
C193   C     0.05593   0.65145   0.61438   0.00000  Uiso   1.00
C194   C     0.13357   0.95741   0.41964   0.00000  Uiso   1.00
C195   C     0.20403   0.97865   0.40486   0.00000  Uiso   1.00
C196   C     0.19962   0.04470   0.42049   0.00000  Uiso   1.00
C197   C     0.22430   0.14692   0.43598   0.00000  Uiso   1.00
C198   C     0.99167   0.96686   0.46081   0.00000  Uiso   1.00
C199   C     0.98340   0.96186   0.40535   0.00000  Uiso   1.00
C200   C     0.91341   0.99532   0.38429   0.00000  Uiso   1.00
C201   C     0.91827   0.98404   0.33280   0.00000  Uiso   1.00
C202   C     0.02153   0.88361   0.49111   0.00000  Uiso   1.00
C203   C     0.98359   0.85128   0.54217   0.00000  Uiso   1.00
C204   C     0.02055   0.77414   0.56287   0.00000  Uiso   1.00
C205   C     0.06127   0.00061   0.44898   0.00000  Uiso   1.00
C206   C     0.05676   0.06663   0.46463   0.00000  Uiso   1.00
C207   C     0.12720   0.08797   0.44988   0.00000  Uiso   1.00
H208   H     0.18105   0.85371   0.38395   0.00000  Uiso   1.00
H209   H     0.11662   0.87391   0.30183   0.00000  Uiso   1.00
H210   H     0.18680   0.72990   0.45968   0.00000  Uiso   1.00
H211   H     0.25996   0.94522   0.38216   0.00000  Uiso   1.00
H212   H     0.01331   0.91532   0.22374   0.00000  Uiso   1.00
H213   H     0.16129   0.61168   0.55658   0.00000  Uiso   1.00
H214   H     0.31556   0.06571   0.39311   0.00000  Uiso   1.00
H215   H     0.93538   0.00048   0.48366   0.00000  Uiso   1.00
H216   H     0.85747   0.02874   0.40701   0.00000  Uiso   1.00
H217   H     0.92765   0.88473   0.56486   0.00000  Uiso   1.00
H218   H     0.00081   0.10004   0.48734   0.00000  Uiso   1.00
H219   H     0.80297   0.04098   0.30911   0.00000  Uiso   1.00
H220   H     0.95095   0.73734   0.64196   0.00000  Uiso   1.00
H221   H     0.10523   0.19137   0.47848   0.00000  Uiso   1.00
O222   O     0.86131   0.99407   0.21421   0.00000  Uiso   1.00
O223   O     0.05547   0.59571   0.65089   0.00000  Uiso   1.00
O224   O     0.25787   0.19138   0.43641   0.00000  Uiso   1.00
N225   N     0.97450   0.94103   0.25434   0.00000  Uiso   1.00
N226   N     0.11285   0.65714   0.56553   0.00000  Uiso   1.00
N227   N     0.25709   0.08161   0.41271   0.00000  Uiso   1.00
N228   N     0.86132   0.00865   0.30028   0.00000  Uiso   1.00
N229   N     0.99967   0.72476   0.61147   0.00000  Uiso   1.00
N230   N     0.14391   0.14923   0.45864   0.00000  Uiso   1.00
C231   C     0.74131   0.76914   0.36450   0.00000  Uiso   1.00
C232   C     0.66994   0.73640   0.38843   0.00000  Uiso   1.00
C233   C     0.64026   0.70283   0.36091   0.00000  Uiso   1.00
C234   C     0.57450   0.67640   0.38999   0.00000  Uiso   1.00
C235   C     0.46899   0.62448   0.41884   0.00000  Uiso   1.00
C236   C     0.80133   0.72683   0.40223   0.00000  Uiso   1.00
C237   C     0.88212   0.68521   0.38631   0.00000  Uiso   1.00
C238   C     0.92696   0.65073   0.42701   0.00000  Uiso   1.00
C239   C     0.02546   0.58399   0.47728   0.00000  Uiso   1.00
C240   C     0.70881   0.85291   0.37176   0.00000  Uiso   1.00
C241   C     0.71182   0.91731   0.33024   0.00000  Uiso   1.00
C242   C     0.67878   0.98898   0.34529   0.00000  Uiso   1.00
C243   C     0.63362   0.11800   0.34826   0.00000  Uiso   1.00
C244   C     0.67730   0.78189   0.46507   0.00000  Uiso   1.00
C245   C     0.63518   0.74333   0.44305   0.00000  Uiso   1.00
C246   C     0.56944   0.71694   0.47218   0.00000  Uiso   1.00
C247   C     0.53966   0.68334   0.44471   0.00000  Uiso   1.00
C248   C     0.76657   0.73375   0.45685   0.00000  Uiso   1.00
C249   C     0.81130   0.69933   0.49758   0.00000  Uiso   1.00
C250   C     0.89214   0.65767   0.48173   0.00000  Uiso   1.00
C251   C     0.67404   0.85984   0.42639   0.00000  Uiso   1.00
C252   C     0.64100   0.93142   0.44151   0.00000  Uiso   1.00
C253   C     0.64395   0.99591   0.40001   0.00000  Uiso   1.00
H254   H     0.76838   0.76374   0.32197   0.00000  Uiso   1.00
H255   H     0.66719   0.69747   0.31864   0.00000  Uiso   1.00
H256   H     0.90901   0.67987   0.34404   0.00000  Uiso   1.00
H257   H     0.73873   0.91192   0.28797   0.00000  Uiso   1.00
H258   H     0.53968   0.62704   0.33904   0.00000  Uiso   1.00
H259   H     0.04958   0.58994   0.39259   0.00000  Uiso   1.00
H260   H     0.69052   0.07927   0.27436   0.00000  Uiso   1.00
H261   H     0.65024   0.78728   0.50760   0.00000  Uiso   1.00
H262   H     0.54255   0.72231   0.51445   0.00000  Uiso   1.00
H263   H     0.78438   0.70470   0.53985   0.00000  Uiso   1.00
H264   H     0.61410   0.93676   0.48378   0.00000  Uiso   1.00
H265   H     0.43852   0.64719   0.49797   0.00000  Uiso   1.00
H266   H     0.94843   0.61009   0.55152   0.00000  Uiso   1.00
H267   H     0.58936   0.09943   0.43329   0.00000  Uiso   1.00
O268   O     0.42041   0.59392   0.41967   0.00000  Uiso   1.00
O269   O     0.08939   0.54526   0.48992   0.00000  Uiso   1.00
O270   O     0.61830   0.18726   0.33481   0.00000  Uiso   1.00
N271   N     0.53064   0.64071   0.37550   0.00000  Uiso   1.00
N272   N     0.00737   0.60601   0.42556   0.00000  Uiso   1.00
N273   N     0.67169   0.06350   0.31503   0.00000  Uiso   1.00
N274   N     0.47620   0.65156   0.46102   0.00000  Uiso   1.00
N275   N     0.95293   0.61686   0.51108   0.00000  Uiso   1.00
N276   N     0.61726   0.07435   0.40055   0.00000  Uiso   1.00
C277   C     0.53854   0.57100   0.16731   0.00000  Uiso   1.00
C278   C     0.45252   0.62438   0.16496   0.00000  Uiso   1.00
C279   C     0.40481   0.67386   0.20064   0.00000  Uiso   1.00
C280   C     0.32778   0.71795   0.19160   0.00000  Uiso   1.00
C281   C     0.19852   0.80167   0.19451   0.00000  Uiso   1.00
C282   C     0.59103   0.59223   0.11137   0.00000  Uiso   1.00
C283   C     0.65978   0.61466   0.10199   0.00000  Uiso   1.00
C284   C     0.69936   0.63167   0.04783   0.00000  Uiso   1.00
C285   C     0.78518   0.66541   0.96754   0.00000  Uiso   1.00
C286   C     0.53648   0.48976   0.17111   0.00000  Uiso   1.00
C287   C     0.55938   0.42603   0.21196   0.00000  Uiso   1.00
C288   C     0.55305   0.35677   0.20810   0.00000  Uiso   1.00
C289   C     0.55416   0.23142   0.22057   0.00000  Uiso   1.00
C290   C     0.48661   0.56132   0.08782   0.00000  Uiso   1.00
C291   C     0.42432   0.61913   0.12178   0.00000  Uiso   1.00
C292   C     0.34734   0.66315   0.11269   0.00000  Uiso   1.00
C293   C     0.29952   0.71268   0.14835   0.00000  Uiso   1.00
C294   C     0.56283   0.58697   0.06819   0.00000  Uiso   1.00
C295   C     0.60232   0.60395   0.01404   0.00000  Uiso   1.00
C296   C     0.67110   0.62640   0.00458   0.00000  Uiso   1.00
C297   C     0.50827   0.48450   0.12794   0.00000  Uiso   1.00
C298   C     0.50191   0.41532   0.12401   0.00000  Uiso   1.00
C299   C     0.52479   0.35150   0.16484   0.00000  Uiso   1.00
H300   H     0.56051   0.57510   0.20092   0.00000  Uiso   1.00
H301   H     0.42666   0.67792   0.23404   0.00000  Uiso   1.00
H302   H     0.68160   0.61871   0.13541   0.00000  Uiso   1.00
H303   H     0.58121   0.43012   0.24536   0.00000  Uiso   1.00
H304   H     0.26584   0.78962   0.25172   0.00000  Uiso   1.00
H305   H     0.80340   0.66476   0.04374   0.00000  Uiso   1.00
H306   H     0.59171   0.26707   0.27560   0.00000  Uiso   1.00
H307   H     0.46464   0.55723   0.05420   0.00000  Uiso   1.00
H308   H     0.32553   0.65907   0.07928   0.00000  Uiso   1.00
H309   H     0.58047   0.59987   0.98064   0.00000  Uiso   1.00
H310   H     0.48008   0.41128   0.09059   0.00000  Uiso   1.00
H311   H     0.18376   0.77432   0.12610   0.00000  Uiso   1.00
H312   H     0.72133   0.64946   0.91812   0.00000  Uiso   1.00
H313   H     0.50963   0.25178   0.14998   0.00000  Uiso   1.00
O314   O     0.13502   0.84931   0.20804   0.00000  Uiso   1.00
O315   O     0.84030   0.68548   0.93518   0.00000  Uiso   1.00
O316   O     0.56255   0.16373   0.23938   0.00000  Uiso   1.00
N317   N     0.26560   0.77203   0.21872   0.00000  Uiso   1.00
N318   N     0.76819   0.65531   0.02427   0.00000  Uiso   1.00
N319   N     0.57029   0.28350   0.24103   0.00000  Uiso   1.00
N320   N     0.22144   0.76380   0.15112   0.00000  Uiso   1.00
N321   N     0.72403   0.64708   0.95667   0.00000  Uiso   1.00
N322   N     0.52613   0.27527   0.17344   0.00000  Uiso   1.00
C323   C     0.59332   0.76934   0.18787   0.00000  Uiso   1.00
C324   C     0.68267   0.72852   0.18956   0.00000  Uiso   1.00
C325   C     0.71527   0.65196   0.21377   0.00000  Uiso   1.00
C326   C     0.79847   0.62551   0.21091   0.00000  Uiso   1.00
C327   C     0.92981   0.55475   0.21749   0.00000  Uiso   1.00
C328   C     0.59017   0.80078   0.12749   0.00000  Uiso   1.00
C329   C     0.54499   0.78499   0.09951   0.00000  Uiso   1.00
C330   C     0.55032   0.81938   0.04440   0.00000  Uiso   1.00
C331   C     0.53800   0.86085   0.95462   0.00000  Uiso   1.00
C332   C     0.56864   0.83982   0.21358   0.00000  Uiso   1.00
C333   C     0.50533   0.85687   0.25798   0.00000  Uiso   1.00
C334   C     0.49253   0.92414   0.27534   0.00000  Uiso   1.00
C335   C     0.44678   0.02622   0.31923   0.00000  Uiso   1.00
C336   C     0.68312   0.85851   0.13975   0.00000  Uiso   1.00
C337   C     0.73145   0.77695   0.16343   0.00000  Uiso   1.00
C338   C     0.81463   0.75061   0.16054   0.00000  Uiso   1.00
C339   C     0.84734   0.67403   0.18473   0.00000  Uiso   1.00
C340   C     0.63895   0.84921   0.10135   0.00000  Uiso   1.00
C341   C     0.64435   0.88364   0.04628   0.00000  Uiso   1.00
C342   C     0.59919   0.86790   0.01822   0.00000  Uiso   1.00
C343   C     0.61742   0.88825   0.18745   0.00000  Uiso   1.00
C344   C     0.60470   0.95551   0.20475   0.00000  Uiso   1.00
C345   C     0.54139   0.97266   0.24916   0.00000  Uiso   1.00
H346   H     0.55534   0.73164   0.20821   0.00000  Uiso   1.00
H347   H     0.67750   0.61450   0.23398   0.00000  Uiso   1.00
H348   H     0.50724   0.74751   0.11974   0.00000  Uiso   1.00
H349   H     0.46760   0.81938   0.27819   0.00000  Uiso   1.00
H350   H     0.83445   0.50598   0.25101   0.00000  Uiso   1.00
H351   H     0.47543   0.78647   0.01014   0.00000  Uiso   1.00
H352   H     0.39184   0.93801   0.34425   0.00000  Uiso   1.00
H353   H     0.72110   0.89621   0.11941   0.00000  Uiso   1.00
H354   H     0.85236   0.78810   0.14031   0.00000  Uiso   1.00
H355   H     0.68210   0.92112   0.02607   0.00000  Uiso   1.00
H356   H     0.64246   0.99298   0.18451   0.00000  Uiso   1.00
H357   H     0.97638   0.64688   0.17498   0.00000  Uiso   1.00
H358   H     0.61735   0.92737   0.93410   0.00000  Uiso   1.00
H359   H     0.53376   0.07891   0.26822   0.00000  Uiso   1.00
O360   O     0.98878   0.50234   0.22833   0.00000  Uiso   1.00
O361   O     0.51774   0.87033   0.91232   0.00000  Uiso   1.00
O362   O     0.40807   0.06915   0.35067   0.00000  Uiso   1.00
N363   N     0.84984   0.55398   0.23026   0.00000  Uiso   1.00
N364   N     0.51418   0.81621   0.00505   0.00000  Uiso   1.00
N365   N     0.43602   0.95790   0.31741   0.00000  Uiso   1.00
N366   N     0.92621   0.62980   0.18935   0.00000  Uiso   1.00
N367   N     0.59055   0.89203   0.96414   0.00000  Uiso   1.00
N368   N     0.51239   0.03372   0.27650   0.00000  Uiso   1.00
C369   C     0.87942   0.23827   0.18094   0.00000  Uiso   1.00
C370   C     0.94953   0.16996   0.16235   0.00000  Uiso   1.00
C371   C     0.94630   0.12079   0.13282   0.00000  Uiso   1.00
C372   C     0.01698   0.06174   0.11977   0.00000  Uiso   1.00
C373   C     0.11500   0.95713   0.08846   0.00000  Uiso   1.00
C374   C     0.90979   0.30878   0.15764   0.00000  Uiso   1.00
C375   C     0.87314   0.37634   0.12415   0.00000  Uiso   1.00
C376   C     0.91036   0.43414   0.10714   0.00000  Uiso   1.00
C377   C     0.94665   0.54508   0.06855   0.00000  Uiso   1.00
C378   C     0.86891   0.22413   0.24293   0.00000  Uiso   1.00
C379   C     0.79788   0.22053   0.28115   0.00000  Uiso   1.00
C380   C     0.80067   0.20709   0.33595   0.00000  Uiso   1.00
C381   C     0.77349   0.18659   0.42978   0.00000  Uiso   1.00
C382   C     0.01068   0.22082   0.21028   0.00000  Uiso   1.00
C383   C     0.02082   0.16048   0.17829   0.00000  Uiso   1.00
C384   C     0.09152   0.10148   0.16528   0.00000  Uiso   1.00
C385   C     0.08840   0.05224   0.13573   0.00000  Uiso   1.00
C386   C     0.98108   0.29930   0.17357   0.00000  Uiso   1.00
C387   C     0.01836   0.35703   0.15661   0.00000  Uiso   1.00
C388   C     0.98178   0.42465   0.12310   0.00000  Uiso   1.00
C389   C     0.94020   0.21465   0.25887   0.00000  Uiso   1.00
C390   C     0.94310   0.20122   0.31362   0.00000  Uiso   1.00
C391   C     0.87209   0.19759   0.35192   0.00000  Uiso   1.00
H392   H     0.82392   0.24566   0.16853   0.00000  Uiso   1.00
H393   H     0.89112   0.12815   0.12049   0.00000  Uiso   1.00
H394   H     0.81797   0.38366   0.11183   0.00000  Uiso   1.00
H395   H     0.74272   0.22787   0.26880   0.00000  Uiso   1.00
H396   H     0.99707   0.99371   0.07423   0.00000  Uiso   1.00
H397   H     0.84281   0.53247   0.05599   0.00000  Uiso   1.00
H398   H     0.68414   0.20397   0.38701   0.00000  Uiso   1.00
H399   H     0.06618   0.21344   0.22269   0.00000  Uiso   1.00
H400   H     0.14668   0.09416   0.17762   0.00000  Uiso   1.00
H401   H     0.07353   0.34967   0.16896   0.00000  Uiso   1.00
H402   H     0.99828   0.19388   0.32594   0.00000  Uiso   1.00
H403   H     0.20450   0.96613   0.12060   0.00000  Uiso   1.00
H404   H     0.05023   0.50489   0.10236   0.00000  Uiso   1.00
H405   H     0.89156   0.17638   0.43338   0.00000  Uiso   1.00
O406   O     0.14937   0.90205   0.06678   0.00000  Uiso   1.00
O407   O     0.94698   0.60888   0.04285   0.00000  Uiso   1.00
O408   O     0.73880   0.17789   0.47714   0.00000  Uiso   1.00
N409   N     0.03484   0.00358   0.09134   0.00000  Uiso   1.00
N410   N     0.89062   0.50728   0.07428   0.00000  Uiso   1.00
N411   N     0.74227   0.20018   0.38375   0.00000  Uiso   1.00
N412   N     0.14645   0.98874   0.11629   0.00000  Uiso   1.00
N413   N     0.00223   0.49244   0.09923   0.00000  Uiso   1.00
N414   N     0.85388   0.18533   0.40870   0.00000  Uiso   1.00
C415   C     0.11090   0.31738   0.70656   0.00000  Uiso   1.00
C416   C     0.08747   0.24626   0.74205   0.00000  Uiso   1.00
C417   C     0.09813   0.21316   0.79528   0.00000  Uiso   1.00
C418   C     0.07273   0.14827   0.82077   0.00000  Uiso   1.00
C419   C     0.04167   0.04247   0.87995   0.00000  Uiso   1.00
C420   C     0.16771   0.29227   0.65443   0.00000  Uiso   1.00
C421   C     0.24584   0.29787   0.63398   0.00000  Uiso   1.00
C422   C     0.28797   0.27172   0.58570   0.00000  Uiso   1.00
C423   C     0.38147   0.23741   0.50882   0.00000  Uiso   1.00
C424   C     0.03362   0.37498   0.68935   0.00000  Uiso   1.00
C425   C     0.99901   0.45012   0.69826   0.00000  Uiso   1.00
C426   C     0.92825   0.49361   0.67938   0.00000  Uiso   1.00
C427   C     0.81355   0.58772   0.65672   0.00000  Uiso   1.00
C428   C     0.04681   0.26101   0.65716   0.00000  Uiso   1.00
C429   C     0.05266   0.21564   0.71522   0.00000  Uiso   1.00
C430   C     0.02722   0.15079   0.74063   0.00000  Uiso   1.00
C431   C     0.03785   0.11760   0.79390   0.00000  Uiso   1.00
C432   C     0.13290   0.26166   0.62760   0.00000  Uiso   1.00
C433   C     0.17492   0.23550   0.57933   0.00000  Uiso   1.00
C434   C     0.25309   0.24105   0.55883   0.00000  Uiso   1.00
C435   C     0.99880   0.34436   0.66252   0.00000  Uiso   1.00
C436   C     0.92809   0.38775   0.64361   0.00000  Uiso   1.00
C437   C     0.89338   0.46294   0.65250   0.00000  Uiso   1.00
H438   H     0.13801   0.34122   0.72745   0.00000  Uiso   1.00
H439   H     0.12509   0.23686   0.81603   0.00000  Uiso   1.00
H440   H     0.27276   0.32157   0.65475   0.00000  Uiso   1.00
H441   H     0.02596   0.47379   0.71903   0.00000  Uiso   1.00
H442   H     0.09543   0.10765   0.90241   0.00000  Uiso   1.00
H443   H     0.40679   0.28628   0.56233   0.00000  Uiso   1.00
H444   H     0.88639   0.60728   0.69786   0.00000  Uiso   1.00
H445   H     0.01971   0.23718   0.63627   0.00000  Uiso   1.00
H446   H     0.00028   0.12711   0.71986   0.00000  Uiso   1.00
H447   H     0.14796   0.21182   0.55858   0.00000  Uiso   1.00
H448   H     0.90117   0.36404   0.62285   0.00000  Uiso   1.00
H449   H     0.99414   0.01856   0.82435   0.00000  Uiso   1.00
H450   H     0.30551   0.19720   0.48427   0.00000  Uiso   1.00
H451   H     0.78510   0.51820   0.61980   0.00000  Uiso   1.00
O452   O     0.03417   0.99256   0.92000   0.00000  Uiso   1.00
O453   O     0.44266   0.22693   0.47383   0.00000  Uiso   1.00
O454   O     0.75990   0.64808   0.65165   0.00000  Uiso   1.00
N455   N     0.07424   0.10180   0.87257   0.00000  Uiso   1.00
N456   N     0.36535   0.26879   0.55462   0.00000  Uiso   1.00
N457   N     0.87883   0.56891   0.68132   0.00000  Uiso   1.00
N458   N     0.01974   0.05386   0.83057   0.00000  Uiso   1.00
N459   N     0.31085   0.22086   0.51262   0.00000  Uiso   1.00
N460   N     0.82433   0.52098   0.63932   0.00000  Uiso   1.00
C461   C     0.17398   0.84369   0.76888   0.00000  Uiso   1.00
C462   C     0.21810   0.76836   0.74806   0.00000  Uiso   1.00
C463   C     0.30061   0.72966   0.74252   0.00000  Uiso   1.00
C464   C     0.32924   0.66163   0.72275   0.00000  Uiso   1.00
C465   C     0.40567   0.54898   0.69249   0.00000  Uiso   1.00
C466   C     0.13125   0.90013   0.72395   0.00000  Uiso   1.00
C467   C     0.14075   0.97224   0.69814   0.00000  Uiso   1.00
C468   C     0.09626   0.01514   0.65808   0.00000  Uiso   1.00
C469   C     0.03781   0.10710   0.59042   0.00000  Uiso   1.00
C470   C     0.10688   0.82693   0.81730   0.00000  Uiso   1.00
C471   C     0.09586   0.83751   0.86997   0.00000  Uiso   1.00
C472   C     0.03083   0.81880   0.90850   0.00000  Uiso   1.00
C473   C     0.93454   0.79710   0.98577   0.00000  Uiso   1.00
C474   C     0.07807   0.79167   0.74362   0.00000  Uiso   1.00
C475   C     0.16600   0.74010   0.73435   0.00000  Uiso   1.00
C476   C     0.19450   0.67211   0.71458   0.00000  Uiso   1.00
C477   C     0.27705   0.63332   0.70901   0.00000  Uiso   1.00
C478   C     0.07916   0.87188   0.71023   0.00000  Uiso   1.00
C479   C     0.03464   0.91468   0.67020   0.00000  Uiso   1.00
C480   C     0.04407   0.98683   0.64434   0.00000  Uiso   1.00
C481   C     0.05478   0.79867   0.80358   0.00000  Uiso   1.00
C482   C     0.98975   0.77995   0.84203   0.00000  Uiso   1.00
C483   C     0.97864   0.79049   0.89475   0.00000  Uiso   1.00
H484   H     0.21454   0.86569   0.77955   0.00000  Uiso   1.00
H485   H     0.34091   0.75155   0.75314   0.00000  Uiso   1.00
H486   H     0.18106   0.99409   0.70877   0.00000  Uiso   1.00
H487   H     0.13618   0.85938   0.88057   0.00000  Uiso   1.00
H488   H     0.45805   0.61256   0.71778   0.00000  Uiso   1.00
H489   H     0.12098   0.12399   0.62425   0.00000  Uiso   1.00
H490   H     0.02635   0.83992   0.98652   0.00000  Uiso   1.00
H491   H     0.03751   0.76967   0.73294   0.00000  Uiso   1.00
H492   H     0.15418   0.65026   0.70397   0.00000  Uiso   1.00
H493   H     0.99433   0.89280   0.65960   0.00000  Uiso   1.00
H494   H     0.94945   0.75809   0.83140   0.00000  Uiso   1.00
H495   H     0.30649   0.53035   0.67787   0.00000  Uiso   1.00
H496   H     0.96942   0.04178   0.58434   0.00000  Uiso   1.00
H497   H     0.87479   0.75770   0.94661   0.00000  Uiso   1.00
O498   O     0.46221   0.49465   0.67959   0.00000  Uiso   1.00
O499   O     0.01998   0.16562   0.55689   0.00000  Uiso   1.00
O500   O     0.89583   0.79293   0.03218   0.00000  Uiso   1.00
N501   N     0.40637   0.60959   0.71237   0.00000  Uiso   1.00
N502   N     0.09124   0.08774   0.62492   0.00000  Uiso   1.00
N503   N     0.00275   0.82218   0.96362   0.00000  Uiso   1.00
N504   N     0.32482   0.56535   0.69090   0.00000  Uiso   1.00
N505   N     0.00968   0.04350   0.60345   0.00000  Uiso   1.00
N506   N     0.92120   0.77794   0.94214   0.00000  Uiso   1.00
C507   C     0.45429   0.97150   0.69063   0.00000  Uiso   1.00
C508   C     0.49188   0.03500   0.65671   0.00000  Uiso   1.00
C509   C     0.46489   0.11089   0.66383   0.00000  Uiso   1.00
C510   C     0.50751   0.16013   0.62859   0.00000  Uiso   1.00
C511   C     0.55564   0.26265   0.58212   0.00000  Uiso   1.00
C512   C     0.43328   0.94120   0.64992   0.00000  Uiso   1.00
C513   C     0.35701   0.93822   0.65133   0.00000  Uiso   1.00
C514   C     0.35030   0.90848   0.61037   0.00000  Uiso   1.00
C515   C     0.30745   0.86533   0.55339   0.00000  Uiso   1.00
C516   C     0.52248   0.90576   0.71368   0.00000  Uiso   1.00
C517   C     0.52121   0.87296   0.76871   0.00000  Uiso   1.00
C518   C     0.58960   0.81337   0.78144   0.00000  Uiso   1.00
C519   C     0.68525   0.71519   0.82346   0.00000  Uiso   1.00
C520   C     0.57799   0.92398   0.61537   0.00000  Uiso   1.00
C521   C     0.55907   0.00918   0.61583   0.00000  Uiso   1.00
C522   C     0.60175   0.05831   0.58057   0.00000  Uiso   1.00
C523   C     0.57483   0.13427   0.58764   0.00000  Uiso   1.00
C524   C     0.50046   0.91538   0.60904   0.00000  Uiso   1.00
C525   C     0.49387   0.88564   0.56808   0.00000  Uiso   1.00
C526   C     0.41761   0.88262   0.56943   0.00000  Uiso   1.00
C527   C     0.58967   0.87994   0.67281   0.00000  Uiso   1.00
C528   C     0.65807   0.82039   0.68545   0.00000  Uiso   1.00
C529   C     0.65691   0.78751   0.74049   0.00000  Uiso   1.00
H530   H     0.40198   0.99160   0.72245   0.00000  Uiso   1.00
H531   H     0.41289   0.13085   0.69546   0.00000  Uiso   1.00
H532   H     0.30503   0.95819   0.68297   0.00000  Uiso   1.00
H533   H     0.46921   0.89295   0.80033   0.00000  Uiso   1.00
H534   H     0.45459   0.27385   0.64751   0.00000  Uiso   1.00
H535   H     0.22717   0.90978   0.62118   0.00000  Uiso   1.00
H536   H     0.57337   0.77220   0.86866   0.00000  Uiso   1.00
H537   H     0.63030   0.90388   0.58355   0.00000  Uiso   1.00
H538   H     0.65374   0.03832   0.54894   0.00000  Uiso   1.00
H539   H     0.54588   0.86567   0.53645   0.00000  Uiso   1.00
H540   H     0.71005   0.80043   0.65381   0.00000  Uiso   1.00
H541   H     0.65008   0.19876   0.52858   0.00000  Uiso   1.00
H542   H     0.42265   0.83468   0.50226   0.00000  Uiso   1.00
H543   H     0.76885   0.69710   0.74974   0.00000  Uiso   1.00
O544   O     0.56362   0.32633   0.56777   0.00000  Uiso   1.00
O545   O     0.26525   0.84866   0.53324   0.00000  Uiso   1.00
O546   O     0.71945   0.66817   0.85793   0.00000  Uiso   1.00
N547   N     0.49739   0.23773   0.62427   0.00000  Uiso   1.00
N548   N     0.28476   0.89735   0.59966   0.00000  Uiso   1.00
N549   N     0.60842   0.76871   0.83103   0.00000  Uiso   1.00
N550   N     0.60258   0.19732   0.56028   0.00000  Uiso   1.00
N551   N     0.38995   0.85694   0.53567   0.00000  Uiso   1.00
N552   N     0.71361   0.72830   0.76704   0.00000  Uiso   1.00
