data_job_02607
_audit_creation_date              2018-12-19
_audit_creation_method            'Materials Studio'
_symmetry_space_group_name_H-M    'P1'
_symmetry_Int_Tables_number       1
_symmetry_cell_setting            triclinic
loop_
_symmetry_equiv_pos_as_xyz
  x,y,z
_cell_length_a                    9.2926
_cell_length_b                    24.5524
_cell_length_c                    26.9176
_cell_angle_alpha                 90.0000
_cell_angle_beta                  90.0000
_cell_angle_gamma                 90.0000
loop_
_atom_site_label
_atom_site_type_symbol
_atom_site_fract_x
_atom_site_fract_y
_atom_site_fract_z
_atom_site_U_iso_or_equiv
_atom_site_adp_type
_atom_site_occupancy
C1     C     0.98991   0.73618   0.46340   0.00000  Uiso   1.00
C2     C     0.08528   0.78221   0.44436   0.00000  Uiso   1.00
C3     C     0.10125   0.83296   0.46638   0.00000  Uiso   1.00
C4     C     0.19356   0.86946   0.44322   0.00000  Uiso   1.00
C5     C     0.33039   0.94305   0.42028   0.00000  Uiso   1.00
C6     C     0.88881   0.72183   0.42073   0.00000  Uiso   1.00
C7     C     0.73959   0.72180   0.42290   0.00000  Uiso   1.00
C8     C     0.66651   0.70747   0.37985   0.00000  Uiso   1.00
C9     C     0.49832   0.68727   0.32025   0.00000  Uiso   1.00
C10    C     0.08851   0.68707   0.47006   0.00000  Uiso   1.00
C11    C     0.10718   0.65781   0.51370   0.00000  Uiso   1.00
C12    C     0.20221   0.61421   0.51218   0.00000  Uiso   1.00
C13    C     0.34409   0.54005   0.52917   0.00000  Uiso   1.00
C14    C     0.12545   0.71076   0.38310   0.00000  Uiso   1.00
C15    C     0.15890   0.76840   0.40074   0.00000  Uiso   1.00
C16    C     0.25121   0.80483   0.37754   0.00000  Uiso   1.00
C17    C     0.26732   0.85563   0.39953   0.00000  Uiso   1.00
C18    C     0.96242   0.70802   0.37712   0.00000  Uiso   1.00
C19    C     0.88955   0.69368   0.33406   0.00000  Uiso   1.00
C20    C     0.74026   0.69363   0.33616   0.00000  Uiso   1.00
C21    C     0.16214   0.67327   0.42645   0.00000  Uiso   1.00
C22    C     0.25714   0.62969   0.42486   0.00000  Uiso   1.00
C23    C     0.27596   0.60037   0.46849   0.00000  Uiso   1.00
H24    H     0.93259   0.74693   0.49735   0.00000  Uiso   1.00
H25    H     0.04425   0.84363   0.50013   0.00000  Uiso   1.00
H26    H     0.68265   0.73248   0.45666   0.00000  Uiso   1.00
H27    H     0.05019   0.66851   0.54745   0.00000  Uiso   1.00
H28    H     0.20047   0.94476   0.48397   0.00000  Uiso   1.00
H29    H     0.43803   0.71039   0.39231   0.00000  Uiso   1.00
H30    H     0.21305   0.57548   0.58376   0.00000  Uiso   1.00
H31    H     0.18276   0.70001   0.34914   0.00000  Uiso   1.00
H32    H     0.30816   0.79414   0.34379   0.00000  Uiso   1.00
H33    H     0.94656   0.68300   0.30032   0.00000  Uiso   1.00
H34    H     0.31409   0.61902   0.39110   0.00000  Uiso   1.00
H35    H     0.41467   0.90459   0.35708   0.00000  Uiso   1.00
H36    H     0.65221   0.67022   0.26542   0.00000  Uiso   1.00
H37    H     0.42724   0.53531   0.45686   0.00000  Uiso   1.00
O38    O     0.38551   0.98745   0.41967   0.00000  Uiso   1.00
O39    O     0.38521   0.67996   0.29942   0.00000  Uiso   1.00
O40    O     0.40202   0.50296   0.55059   0.00000  Uiso   1.00
N41    N     0.23370   0.92238   0.45485   0.00000  Uiso   1.00
N42    N     0.52085   0.70327   0.36915   0.00000  Uiso   1.00
N43    N     0.24540   0.57713   0.54813   0.00000  Uiso   1.00
N44    N     0.34896   0.90077   0.38657   0.00000  Uiso   1.00
N45    N     0.63611   0.68166   0.30087   0.00000  Uiso   1.00
N46    N     0.36066   0.55552   0.47985   0.00000  Uiso   1.00
C47    C     0.51009   0.76382   0.96340   0.00000  Uiso   1.00
C48    C     0.41472   0.71779   0.94436   0.00000  Uiso   1.00
C49    C     0.39875   0.66704   0.96638   0.00000  Uiso   1.00
C50    C     0.30644   0.63054   0.94322   0.00000  Uiso   1.00
C51    C     0.16961   0.55695   0.92028   0.00000  Uiso   1.00
C52    C     0.61119   0.77817   0.92073   0.00000  Uiso   1.00
C53    C     0.76041   0.77820   0.92290   0.00000  Uiso   1.00
C54    C     0.83349   0.79253   0.87985   0.00000  Uiso   1.00
C55    C     0.00168   0.81273   0.82025   0.00000  Uiso   1.00
C56    C     0.41149   0.81293   0.97006   0.00000  Uiso   1.00
C57    C     0.39282   0.84219   0.01370   0.00000  Uiso   1.00
C58    C     0.29779   0.88579   0.01218   0.00000  Uiso   1.00
C59    C     0.15591   0.95995   0.02917   0.00000  Uiso   1.00
C60    C     0.37455   0.78924   0.88310   0.00000  Uiso   1.00
C61    C     0.34110   0.73160   0.90074   0.00000  Uiso   1.00
C62    C     0.24879   0.69517   0.87754   0.00000  Uiso   1.00
C63    C     0.23268   0.64437   0.89953   0.00000  Uiso   1.00
C64    C     0.53758   0.79198   0.87712   0.00000  Uiso   1.00
C65    C     0.61045   0.80632   0.83406   0.00000  Uiso   1.00
C66    C     0.75974   0.80637   0.83616   0.00000  Uiso   1.00
C67    C     0.33786   0.82673   0.92645   0.00000  Uiso   1.00
C68    C     0.24286   0.87031   0.92486   0.00000  Uiso   1.00
C69    C     0.22404   0.89963   0.96849   0.00000  Uiso   1.00
H70    H     0.56741   0.75307   0.99735   0.00000  Uiso   1.00
H71    H     0.45575   0.65637   0.00013   0.00000  Uiso   1.00
H72    H     0.81735   0.76752   0.95666   0.00000  Uiso   1.00
H73    H     0.44981   0.83149   0.04745   0.00000  Uiso   1.00
H74    H     0.29953   0.55524   0.98397   0.00000  Uiso   1.00
H75    H     0.06197   0.78961   0.89231   0.00000  Uiso   1.00
H76    H     0.28695   0.92452   0.08376   0.00000  Uiso   1.00
H77    H     0.31724   0.79999   0.84914   0.00000  Uiso   1.00
H78    H     0.19184   0.70586   0.84379   0.00000  Uiso   1.00
H79    H     0.55344   0.81700   0.80032   0.00000  Uiso   1.00
H80    H     0.18591   0.88098   0.89110   0.00000  Uiso   1.00
H81    H     0.08533   0.59541   0.85708   0.00000  Uiso   1.00
H82    H     0.84779   0.82978   0.76542   0.00000  Uiso   1.00
H83    H     0.07276   0.96469   0.95686   0.00000  Uiso   1.00
O84    O     0.11449   0.51255   0.91967   0.00000  Uiso   1.00
O85    O     0.11479   0.82004   0.79942   0.00000  Uiso   1.00
O86    O     0.09798   0.99704   0.05059   0.00000  Uiso   1.00
N87    N     0.26630   0.57762   0.95485   0.00000  Uiso   1.00
N88    N     0.97915   0.79673   0.86915   0.00000  Uiso   1.00
N89    N     0.25460   0.92287   0.04813   0.00000  Uiso   1.00
N90    N     0.15104   0.59923   0.88657   0.00000  Uiso   1.00
N91    N     0.86389   0.81834   0.80087   0.00000  Uiso   1.00
N92    N     0.13934   0.94448   0.97985   0.00000  Uiso   1.00
C93    C     0.01009   0.73618   0.03660   0.00000  Uiso   1.00
C94    C     0.91472   0.78221   0.05564   0.00000  Uiso   1.00
C95    C     0.89875   0.83296   0.03362   0.00000  Uiso   1.00
C96    C     0.80644   0.86946   0.05678   0.00000  Uiso   1.00
C97    C     0.66961   0.94305   0.07972   0.00000  Uiso   1.00
C98    C     0.11119   0.72183   0.07927   0.00000  Uiso   1.00
C99    C     0.26041   0.72180   0.07710   0.00000  Uiso   1.00
C100   C     0.33349   0.70747   0.12015   0.00000  Uiso   1.00
C101   C     0.50168   0.68727   0.17975   0.00000  Uiso   1.00
C102   C     0.91149   0.68707   0.02994   0.00000  Uiso   1.00
C103   C     0.89282   0.65781   0.98630   0.00000  Uiso   1.00
C104   C     0.79779   0.61421   0.98782   0.00000  Uiso   1.00
C105   C     0.65591   0.54005   0.97083   0.00000  Uiso   1.00
C106   C     0.87455   0.71076   0.11690   0.00000  Uiso   1.00
C107   C     0.84110   0.76840   0.09926   0.00000  Uiso   1.00
C108   C     0.74879   0.80483   0.12246   0.00000  Uiso   1.00
C109   C     0.73268   0.85563   0.10047   0.00000  Uiso   1.00
C110   C     0.03758   0.70802   0.12288   0.00000  Uiso   1.00
C111   C     0.11045   0.69368   0.16594   0.00000  Uiso   1.00
C112   C     0.25974   0.69363   0.16384   0.00000  Uiso   1.00
C113   C     0.83786   0.67327   0.07355   0.00000  Uiso   1.00
C114   C     0.74286   0.62969   0.07514   0.00000  Uiso   1.00
C115   C     0.72404   0.60037   0.03151   0.00000  Uiso   1.00
H116   H     0.06741   0.74693   0.00265   0.00000  Uiso   1.00
H117   H     0.95575   0.84363   0.99987   0.00000  Uiso   1.00
H118   H     0.31735   0.73248   0.04334   0.00000  Uiso   1.00
H119   H     0.94981   0.66851   0.95255   0.00000  Uiso   1.00
H120   H     0.79953   0.94476   0.01603   0.00000  Uiso   1.00
H121   H     0.56197   0.71039   0.10769   0.00000  Uiso   1.00
H122   H     0.78695   0.57548   0.91624   0.00000  Uiso   1.00
H123   H     0.81724   0.70001   0.15086   0.00000  Uiso   1.00
H124   H     0.69184   0.79414   0.15621   0.00000  Uiso   1.00
H125   H     0.05344   0.68300   0.19968   0.00000  Uiso   1.00
H126   H     0.68591   0.61902   0.10890   0.00000  Uiso   1.00
H127   H     0.58533   0.90459   0.14292   0.00000  Uiso   1.00
H128   H     0.34779   0.67022   0.23458   0.00000  Uiso   1.00
H129   H     0.57276   0.53531   0.04314   0.00000  Uiso   1.00
O130   O     0.61449   0.98745   0.08033   0.00000  Uiso   1.00
O131   O     0.61479   0.67996   0.20058   0.00000  Uiso   1.00
O132   O     0.59798   0.50296   0.94941   0.00000  Uiso   1.00
N133   N     0.76630   0.92238   0.04515   0.00000  Uiso   1.00
N134   N     0.47915   0.70327   0.13085   0.00000  Uiso   1.00
N135   N     0.75460   0.57713   0.95187   0.00000  Uiso   1.00
N136   N     0.65104   0.90077   0.11343   0.00000  Uiso   1.00
N137   N     0.36389   0.68166   0.19913   0.00000  Uiso   1.00
N138   N     0.63934   0.55552   0.02015   0.00000  Uiso   1.00
C139   C     0.48991   0.76382   0.53660   0.00000  Uiso   1.00
C140   C     0.58528   0.71779   0.55564   0.00000  Uiso   1.00
C141   C     0.60125   0.66704   0.53362   0.00000  Uiso   1.00
C142   C     0.69356   0.63054   0.55678   0.00000  Uiso   1.00
C143   C     0.83039   0.55695   0.57972   0.00000  Uiso   1.00
C144   C     0.38881   0.77817   0.57927   0.00000  Uiso   1.00
C145   C     0.23959   0.77820   0.57710   0.00000  Uiso   1.00
C146   C     0.16651   0.79253   0.62015   0.00000  Uiso   1.00
C147   C     0.99832   0.81273   0.67975   0.00000  Uiso   1.00
C148   C     0.58851   0.81293   0.52994   0.00000  Uiso   1.00
C149   C     0.60718   0.84219   0.48630   0.00000  Uiso   1.00
C150   C     0.70221   0.88579   0.48782   0.00000  Uiso   1.00
C151   C     0.84409   0.95995   0.47083   0.00000  Uiso   1.00
C152   C     0.62545   0.78924   0.61690   0.00000  Uiso   1.00
C153   C     0.65890   0.73160   0.59926   0.00000  Uiso   1.00
C154   C     0.75121   0.69517   0.62246   0.00000  Uiso   1.00
C155   C     0.76732   0.64437   0.60047   0.00000  Uiso   1.00
C156   C     0.46242   0.79198   0.62288   0.00000  Uiso   1.00
C157   C     0.38955   0.80632   0.66594   0.00000  Uiso   1.00
C158   C     0.24026   0.80637   0.66384   0.00000  Uiso   1.00
C159   C     0.66214   0.82673   0.57355   0.00000  Uiso   1.00
C160   C     0.75714   0.87031   0.57514   0.00000  Uiso   1.00
C161   C     0.77596   0.89963   0.53151   0.00000  Uiso   1.00
H162   H     0.43259   0.75307   0.50265   0.00000  Uiso   1.00
H163   H     0.54425   0.65637   0.49987   0.00000  Uiso   1.00
H164   H     0.18265   0.76752   0.54334   0.00000  Uiso   1.00
H165   H     0.55019   0.83149   0.45255   0.00000  Uiso   1.00
H166   H     0.70047   0.55524   0.51603   0.00000  Uiso   1.00
H167   H     0.93803   0.78961   0.60769   0.00000  Uiso   1.00
H168   H     0.71305   0.92452   0.41624   0.00000  Uiso   1.00
H169   H     0.68276   0.79999   0.65086   0.00000  Uiso   1.00
H170   H     0.80816   0.70586   0.65621   0.00000  Uiso   1.00
H171   H     0.44656   0.81700   0.69968   0.00000  Uiso   1.00
H172   H     0.81409   0.88098   0.60890   0.00000  Uiso   1.00
H173   H     0.91467   0.59541   0.64292   0.00000  Uiso   1.00
H174   H     0.15221   0.82978   0.73458   0.00000  Uiso   1.00
H175   H     0.92724   0.96469   0.54314   0.00000  Uiso   1.00
O176   O     0.88551   0.51255   0.58033   0.00000  Uiso   1.00
O177   O     0.88521   0.82004   0.70058   0.00000  Uiso   1.00
O178   O     0.90202   0.99704   0.44941   0.00000  Uiso   1.00
N179   N     0.73370   0.57762   0.54515   0.00000  Uiso   1.00
N180   N     0.02085   0.79673   0.63085   0.00000  Uiso   1.00
N181   N     0.74540   0.92287   0.45187   0.00000  Uiso   1.00
N182   N     0.84896   0.59923   0.61343   0.00000  Uiso   1.00
N183   N     0.13611   0.81834   0.69913   0.00000  Uiso   1.00
N184   N     0.86066   0.94448   0.52015   0.00000  Uiso   1.00
C185   C     0.01009   0.26382   0.53660   0.00000  Uiso   1.00
C186   C     0.91472   0.21779   0.55564   0.00000  Uiso   1.00
C187   C     0.89875   0.16704   0.53362   0.00000  Uiso   1.00
C188   C     0.80644   0.13054   0.55678   0.00000  Uiso   1.00
C189   C     0.66961   0.05695   0.57972   0.00000  Uiso   1.00
C190   C     0.11119   0.27817   0.57927   0.00000  Uiso   1.00
C191   C     0.26041   0.27820   0.57710   0.00000  Uiso   1.00
C192   C     0.33349   0.29253   0.62015   0.00000  Uiso   1.00
C193   C     0.50168   0.31273   0.67975   0.00000  Uiso   1.00
C194   C     0.91149   0.31293   0.52994   0.00000  Uiso   1.00
C195   C     0.89282   0.34219   0.48630   0.00000  Uiso   1.00
C196   C     0.79779   0.38579   0.48782   0.00000  Uiso   1.00
C197   C     0.65591   0.45995   0.47083   0.00000  Uiso   1.00
C198   C     0.87455   0.28924   0.61690   0.00000  Uiso   1.00
C199   C     0.84110   0.23160   0.59926   0.00000  Uiso   1.00
C200   C     0.74879   0.19517   0.62246   0.00000  Uiso   1.00
C201   C     0.73268   0.14437   0.60047   0.00000  Uiso   1.00
C202   C     0.03758   0.29198   0.62288   0.00000  Uiso   1.00
C203   C     0.11045   0.30632   0.66594   0.00000  Uiso   1.00
C204   C     0.25974   0.30637   0.66384   0.00000  Uiso   1.00
C205   C     0.83786   0.32673   0.57355   0.00000  Uiso   1.00
C206   C     0.74286   0.37031   0.57514   0.00000  Uiso   1.00
C207   C     0.72404   0.39963   0.53151   0.00000  Uiso   1.00
H208   H     0.06741   0.25307   0.50265   0.00000  Uiso   1.00
H209   H     0.95575   0.15637   0.49987   0.00000  Uiso   1.00
H210   H     0.31735   0.26752   0.54334   0.00000  Uiso   1.00
H211   H     0.94981   0.33149   0.45255   0.00000  Uiso   1.00
H212   H     0.79953   0.05524   0.51603   0.00000  Uiso   1.00
H213   H     0.56197   0.28961   0.60769   0.00000  Uiso   1.00
H214   H     0.78695   0.42452   0.41624   0.00000  Uiso   1.00
H215   H     0.81724   0.29999   0.65086   0.00000  Uiso   1.00
H216   H     0.69184   0.20586   0.65621   0.00000  Uiso   1.00
H217   H     0.05344   0.31700   0.69968   0.00000  Uiso   1.00
H218   H     0.68591   0.38098   0.60890   0.00000  Uiso   1.00
H219   H     0.58533   0.09541   0.64292   0.00000  Uiso   1.00
H220   H     0.34779   0.32978   0.73458   0.00000  Uiso   1.00
H221   H     0.57276   0.46469   0.54314   0.00000  Uiso   1.00
O222   O     0.61449   0.01255   0.58033   0.00000  Uiso   1.00
O223   O     0.61479   0.32004   0.70058   0.00000  Uiso   1.00
O224   O     0.59798   0.49704   0.44941   0.00000  Uiso   1.00
N225   N     0.76630   0.07762   0.54515   0.00000  Uiso   1.00
N226   N     0.47915   0.29673   0.63085   0.00000  Uiso   1.00
N227   N     0.75460   0.42287   0.45187   0.00000  Uiso   1.00
N228   N     0.65104   0.09923   0.61343   0.00000  Uiso   1.00
N229   N     0.36389   0.31834   0.69913   0.00000  Uiso   1.00
N230   N     0.63934   0.44448   0.52015   0.00000  Uiso   1.00
C231   C     0.48991   0.23618   0.03660   0.00000  Uiso   1.00
C232   C     0.58528   0.28221   0.05564   0.00000  Uiso   1.00
C233   C     0.60125   0.33296   0.03362   0.00000  Uiso   1.00
C234   C     0.69356   0.36946   0.05678   0.00000  Uiso   1.00
C235   C     0.83039   0.44305   0.07972   0.00000  Uiso   1.00
C236   C     0.38881   0.22183   0.07927   0.00000  Uiso   1.00
C237   C     0.23959   0.22180   0.07710   0.00000  Uiso   1.00
C238   C     0.16651   0.20747   0.12015   0.00000  Uiso   1.00
C239   C     0.99832   0.18727   0.17975   0.00000  Uiso   1.00
C240   C     0.58851   0.18707   0.02994   0.00000  Uiso   1.00
C241   C     0.60718   0.15781   0.98630   0.00000  Uiso   1.00
C242   C     0.70221   0.11421   0.98782   0.00000  Uiso   1.00
C243   C     0.84409   0.04005   0.97083   0.00000  Uiso   1.00
C244   C     0.62545   0.21076   0.11690   0.00000  Uiso   1.00
C245   C     0.65890   0.26840   0.09926   0.00000  Uiso   1.00
C246   C     0.75121   0.30483   0.12246   0.00000  Uiso   1.00
C247   C     0.76732   0.35563   0.10047   0.00000  Uiso   1.00
C248   C     0.46242   0.20802   0.12288   0.00000  Uiso   1.00
C249   C     0.38955   0.19368   0.16594   0.00000  Uiso   1.00
C250   C     0.24026   0.19363   0.16384   0.00000  Uiso   1.00
C251   C     0.66214   0.17327   0.07355   0.00000  Uiso   1.00
C252   C     0.75714   0.12969   0.07514   0.00000  Uiso   1.00
C253   C     0.77596   0.10037   0.03151   0.00000  Uiso   1.00
H254   H     0.43259   0.24693   0.00265   0.00000  Uiso   1.00
H255   H     0.54425   0.34363   0.99987   0.00000  Uiso   1.00
H256   H     0.18265   0.23248   0.04334   0.00000  Uiso   1.00
H257   H     0.55019   0.16851   0.95255   0.00000  Uiso   1.00
H258   H     0.70047   0.44476   0.01603   0.00000  Uiso   1.00
H259   H     0.93803   0.21039   0.10769   0.00000  Uiso   1.00
H260   H     0.71305   0.07548   0.91624   0.00000  Uiso   1.00
H261   H     0.68276   0.20001   0.15086   0.00000  Uiso   1.00
H262   H     0.80816   0.29414   0.15621   0.00000  Uiso   1.00
H263   H     0.44656   0.18300   0.19968   0.00000  Uiso   1.00
H264   H     0.81409   0.11902   0.10890   0.00000  Uiso   1.00
H265   H     0.91467   0.40459   0.14292   0.00000  Uiso   1.00
H266   H     0.15221   0.17022   0.23458   0.00000  Uiso   1.00
H267   H     0.92724   0.03531   0.04314   0.00000  Uiso   1.00
O268   O     0.88551   0.48745   0.08033   0.00000  Uiso   1.00
O269   O     0.88521   0.17996   0.20058   0.00000  Uiso   1.00
O270   O     0.90202   0.00296   0.94941   0.00000  Uiso   1.00
N271   N     0.73370   0.42238   0.04515   0.00000  Uiso   1.00
N272   N     0.02085   0.20327   0.13085   0.00000  Uiso   1.00
N273   N     0.74540   0.07713   0.95187   0.00000  Uiso   1.00
N274   N     0.84896   0.40077   0.11343   0.00000  Uiso   1.00
N275   N     0.13611   0.18166   0.19913   0.00000  Uiso   1.00
N276   N     0.86066   0.05552   0.02015   0.00000  Uiso   1.00
C277   C     0.98991   0.26382   0.96340   0.00000  Uiso   1.00
C278   C     0.08528   0.21779   0.94436   0.00000  Uiso   1.00
C279   C     0.10125   0.16704   0.96638   0.00000  Uiso   1.00
C280   C     0.19356   0.13054   0.94322   0.00000  Uiso   1.00
C281   C     0.33039   0.05695   0.92028   0.00000  Uiso   1.00
C282   C     0.88881   0.27817   0.92073   0.00000  Uiso   1.00
C283   C     0.73959   0.27820   0.92290   0.00000  Uiso   1.00
C284   C     0.66651   0.29253   0.87985   0.00000  Uiso   1.00
C285   C     0.49832   0.31273   0.82025   0.00000  Uiso   1.00
C286   C     0.08851   0.31293   0.97006   0.00000  Uiso   1.00
C287   C     0.10718   0.34219   0.01370   0.00000  Uiso   1.00
C288   C     0.20221   0.38579   0.01218   0.00000  Uiso   1.00
C289   C     0.34409   0.45995   0.02917   0.00000  Uiso   1.00
C290   C     0.12545   0.28924   0.88310   0.00000  Uiso   1.00
C291   C     0.15890   0.23160   0.90074   0.00000  Uiso   1.00
C292   C     0.25121   0.19517   0.87754   0.00000  Uiso   1.00
C293   C     0.26732   0.14437   0.89953   0.00000  Uiso   1.00
C294   C     0.96242   0.29198   0.87712   0.00000  Uiso   1.00
C295   C     0.88955   0.30632   0.83406   0.00000  Uiso   1.00
C296   C     0.74026   0.30637   0.83616   0.00000  Uiso   1.00
C297   C     0.16214   0.32673   0.92645   0.00000  Uiso   1.00
C298   C     0.25714   0.37031   0.92486   0.00000  Uiso   1.00
C299   C     0.27596   0.39963   0.96849   0.00000  Uiso   1.00
H300   H     0.93259   0.25307   0.99735   0.00000  Uiso   1.00
H301   H     0.04425   0.15637   0.00013   0.00000  Uiso   1.00
H302   H     0.68265   0.26752   0.95666   0.00000  Uiso   1.00
H303   H     0.05019   0.33149   0.04745   0.00000  Uiso   1.00
H304   H     0.20047   0.05524   0.98397   0.00000  Uiso   1.00
H305   H     0.43803   0.28961   0.89231   0.00000  Uiso   1.00
H306   H     0.21305   0.42452   0.08376   0.00000  Uiso   1.00
H307   H     0.18276   0.29999   0.84914   0.00000  Uiso   1.00
H308   H     0.30816   0.20586   0.84379   0.00000  Uiso   1.00
H309   H     0.94656   0.31700   0.80032   0.00000  Uiso   1.00
H310   H     0.31409   0.38098   0.89110   0.00000  Uiso   1.00
H311   H     0.41467   0.09541   0.85708   0.00000  Uiso   1.00
H312   H     0.65221   0.32978   0.76542   0.00000  Uiso   1.00
H313   H     0.42724   0.46469   0.95686   0.00000  Uiso   1.00
O314   O     0.38551   0.01255   0.91967   0.00000  Uiso   1.00
O315   O     0.38521   0.32004   0.79942   0.00000  Uiso   1.00
O316   O     0.40202   0.49704   0.05059   0.00000  Uiso   1.00
N317   N     0.23370   0.07762   0.95485   0.00000  Uiso   1.00
N318   N     0.52085   0.29673   0.86915   0.00000  Uiso   1.00
N319   N     0.24540   0.42287   0.04813   0.00000  Uiso   1.00
N320   N     0.34896   0.09923   0.88657   0.00000  Uiso   1.00
N321   N     0.63611   0.31834   0.80087   0.00000  Uiso   1.00
N322   N     0.36066   0.44448   0.97985   0.00000  Uiso   1.00
C323   C     0.51009   0.23618   0.46340   0.00000  Uiso   1.00
C324   C     0.41472   0.28221   0.44436   0.00000  Uiso   1.00
C325   C     0.39875   0.33296   0.46638   0.00000  Uiso   1.00
C326   C     0.30644   0.36946   0.44322   0.00000  Uiso   1.00
C327   C     0.16961   0.44305   0.42028   0.00000  Uiso   1.00
C328   C     0.61119   0.22183   0.42073   0.00000  Uiso   1.00
C329   C     0.76041   0.22180   0.42290   0.00000  Uiso   1.00
C330   C     0.83349   0.20747   0.37985   0.00000  Uiso   1.00
C331   C     0.00168   0.18727   0.32025   0.00000  Uiso   1.00
C332   C     0.41149   0.18707   0.47006   0.00000  Uiso   1.00
C333   C     0.39282   0.15781   0.51370   0.00000  Uiso   1.00
C334   C     0.29779   0.11421   0.51218   0.00000  Uiso   1.00
C335   C     0.15591   0.04005   0.52917   0.00000  Uiso   1.00
C336   C     0.37455   0.21076   0.38310   0.00000  Uiso   1.00
C337   C     0.34110   0.26840   0.40074   0.00000  Uiso   1.00
C338   C     0.24879   0.30483   0.37754   0.00000  Uiso   1.00
C339   C     0.23268   0.35563   0.39953   0.00000  Uiso   1.00
C340   C     0.53758   0.20802   0.37712   0.00000  Uiso   1.00
C341   C     0.61045   0.19368   0.33406   0.00000  Uiso   1.00
C342   C     0.75974   0.19363   0.33616   0.00000  Uiso   1.00
C343   C     0.33786   0.17327   0.42645   0.00000  Uiso   1.00
C344   C     0.24286   0.12969   0.42486   0.00000  Uiso   1.00
C345   C     0.22404   0.10037   0.46849   0.00000  Uiso   1.00
H346   H     0.56741   0.24693   0.49735   0.00000  Uiso   1.00
H347   H     0.45575   0.34363   0.50013   0.00000  Uiso   1.00
H348   H     0.81735   0.23248   0.45666   0.00000  Uiso   1.00
H349   H     0.44981   0.16851   0.54745   0.00000  Uiso   1.00
H350   H     0.29953   0.44476   0.48397   0.00000  Uiso   1.00
H351   H     0.06197   0.21039   0.39231   0.00000  Uiso   1.00
H352   H     0.28695   0.07548   0.58376   0.00000  Uiso   1.00
H353   H     0.31724   0.20001   0.34914   0.00000  Uiso   1.00
H354   H     0.19184   0.29414   0.34379   0.00000  Uiso   1.00
H355   H     0.55344   0.18300   0.30032   0.00000  Uiso   1.00
H356   H     0.18591   0.11902   0.39110   0.00000  Uiso   1.00
H357   H     0.08533   0.40459   0.35708   0.00000  Uiso   1.00
H358   H     0.84779   0.17022   0.26542   0.00000  Uiso   1.00
H359   H     0.07276   0.03531   0.45686   0.00000  Uiso   1.00
O360   O     0.11449   0.48745   0.41967   0.00000  Uiso   1.00
O361   O     0.11479   0.17996   0.29942   0.00000  Uiso   1.00
O362   O     0.09798   0.00296   0.55059   0.00000  Uiso   1.00
N363   N     0.26630   0.42238   0.45485   0.00000  Uiso   1.00
N364   N     0.97915   0.20327   0.36915   0.00000  Uiso   1.00
N365   N     0.25460   0.07713   0.54813   0.00000  Uiso   1.00
N366   N     0.15104   0.40077   0.38657   0.00000  Uiso   1.00
N367   N     0.86389   0.18166   0.30087   0.00000  Uiso   1.00
N368   N     0.13934   0.05552   0.47985   0.00000  Uiso   1.00
