data_job_04990
_audit_creation_date              2018-12-19
_audit_creation_method            'Materials Studio'
_symmetry_space_group_name_H-M    'P1'
_symmetry_Int_Tables_number       1
_symmetry_cell_setting            triclinic
loop_
_symmetry_equiv_pos_as_xyz
  x,y,z
_cell_length_a                    18.6937
_cell_length_b                    10.2973
_cell_length_c                    29.7630
_cell_angle_alpha                 90.0000
_cell_angle_beta                  119.0177
_cell_angle_gamma                 90.0000
loop_
_atom_site_label
_atom_site_type_symbol
_atom_site_fract_x
_atom_site_fract_y
_atom_site_fract_z
_atom_site_U_iso_or_equiv
_atom_site_adp_type
_atom_site_occupancy
C1     C     0.37684   0.27853   0.15494   0.00000  Uiso   1.00
C2     C     0.45251   0.23255   0.15261   0.00000  Uiso   1.00
C3     C     0.51141   0.14781   0.18693   0.00000  Uiso   1.00
C4     C     0.57601   0.11775   0.17817   0.00000  Uiso   1.00
C5     C     0.69270   0.03836   0.18088   0.00000  Uiso   1.00
C6     C     0.38105   0.42647   0.15650   0.00000  Uiso   1.00
C7     C     0.37985   0.50477   0.19408   0.00000  Uiso   1.00
C8     C     0.38428   0.63796   0.18859   0.00000  Uiso   1.00
C9     C     0.38997   0.85964   0.19732   0.00000  Uiso   1.00
C10    C     0.30381   0.24328   0.10325   0.00000  Uiso   1.00
C11    C     0.23765   0.16758   0.09605   0.00000  Uiso   1.00
C12    C     0.17704   0.14656   0.04572   0.00000  Uiso   1.00
C13    C     0.06280   0.08381   0.97178   0.00000  Uiso   1.00
C14    C     0.38683   0.37585   0.07836   0.00000  Uiso   1.00
C15    C     0.45793   0.28541   0.11101   0.00000  Uiso   1.00
C16    C     0.52246   0.25547   0.10219   0.00000  Uiso   1.00
C17    C     0.58144   0.17070   0.13649   0.00000  Uiso   1.00
C18    C     0.38647   0.47933   0.11490   0.00000  Uiso   1.00
C19    C     0.39090   0.61243   0.10935   0.00000  Uiso   1.00
C20    C     0.38972   0.69092   0.14691   0.00000  Uiso   1.00
C21    C     0.30923   0.29613   0.06165   0.00000  Uiso   1.00
C22    C     0.24871   0.27524   0.01132   0.00000  Uiso   1.00
C23    C     0.18248   0.19952   0.00405   0.00000  Uiso   1.00
H24    H     0.37261   0.23739   0.18733   0.00000  Uiso   1.00
H25    H     0.50719   0.10694   0.21912   0.00000  Uiso   1.00
H26    H     0.37565   0.46384   0.22627   0.00000  Uiso   1.00
H27    H     0.23347   0.12670   0.12825   0.00000  Uiso   1.00
H28    H     0.65880   0.98564   0.23602   0.00000  Uiso   1.00
H29    H     0.38140   0.73820   0.25109   0.00000  Uiso   1.00
H30    H     0.08160   0.02727   0.04441   0.00000  Uiso   1.00
H31    H     0.39105   0.41700   0.04597   0.00000  Uiso   1.00
H32    H     0.52664   0.29639   0.07000   0.00000  Uiso   1.00
H33    H     0.39510   0.65330   0.07715   0.00000  Uiso   1.00
H34    H     0.25293   0.31616   0.97914   0.00000  Uiso   1.00
H35    H     0.67459   0.13942   0.11500   0.00000  Uiso   1.00
H36    H     0.39719   0.89198   0.13006   0.00000  Uiso   1.00
H37    H     0.09739   0.18104   0.92338   0.00000  Uiso   1.00
O38    O     0.75557   0.97998   0.19388   0.00000  Uiso   1.00
O39    O     0.39162   0.96731   0.21364   0.00000  Uiso   1.00
O40    O     0.99830   0.03458   0.94248   0.00000  Uiso   1.00
N41    N     0.64390   0.03837   0.20424   0.00000  Uiso   1.00
N42    N     0.38456   0.74196   0.21833   0.00000  Uiso   1.00
N43    N     0.10426   0.07733   0.02510   0.00000  Uiso   1.00
N44    N     0.65240   0.12111   0.13911   0.00000  Uiso   1.00
N45    N     0.39306   0.82471   0.15320   0.00000  Uiso   1.00
N46    N     0.11276   0.16007   0.95998   0.00000  Uiso   1.00
C47    C     0.07179   0.43456   0.36814   0.00000  Uiso   1.00
C48    C     0.14486   0.47256   0.36140   0.00000  Uiso   1.00
C49    C     0.14625   0.57204   0.33037   0.00000  Uiso   1.00
C50    C     0.21902   0.59136   0.32944   0.00000  Uiso   1.00
C51    C     0.32199   0.66211   0.31452   0.00000  Uiso   1.00
C52    C     0.05622   0.29106   0.35406   0.00000  Uiso   1.00
C53    C     0.98306   0.23794   0.31686   0.00000  Uiso   1.00
C54    C     0.98121   0.10448   0.30975   0.00000  Uiso   1.00
C55    C     0.94655   0.89344   0.28347   0.00000  Uiso   1.00
C56    C     0.10117   0.44233   0.42564   0.00000  Uiso   1.00
C57    C     0.06580   0.51636   0.44864   0.00000  Uiso   1.00
C58    C     0.10179   0.51022   0.50181   0.00000  Uiso   1.00
C59    C     0.13692   0.53404   0.58668   0.00000  Uiso   1.00
C60    C     0.19857   0.29197   0.42166   0.00000  Uiso   1.00
C61    C     0.21373   0.39511   0.39047   0.00000  Uiso   1.00
C62    C     0.28652   0.41429   0.38958   0.00000  Uiso   1.00
C63    C     0.28801   0.51378   0.35856   0.00000  Uiso   1.00
C64    C     0.12508   0.21362   0.38312   0.00000  Uiso   1.00
C65    C     0.12333   0.08019   0.37607   0.00000  Uiso   1.00
C66    C     0.05020   0.02689   0.33888   0.00000  Uiso   1.00
C67    C     0.17004   0.36488   0.45472   0.00000  Uiso   1.00
C68    C     0.20608   0.35861   0.50786   0.00000  Uiso   1.00
C69    C     0.17078   0.43263   0.53093   0.00000  Uiso   1.00
H70    H     0.01818   0.49484   0.34551   0.00000  Uiso   1.00
H71    H     0.09294   0.63194   0.30787   0.00000  Uiso   1.00
H72    H     0.92978   0.29790   0.29437   0.00000  Uiso   1.00
H73    H     0.01251   0.57628   0.42614   0.00000  Uiso   1.00
H74    H     0.20619   0.74976   0.27896   0.00000  Uiso   1.00
H75    H     0.86215   0.04541   0.25050   0.00000  Uiso   1.00
H76    H     0.03660   0.63242   0.52835   0.00000  Uiso   1.00
H77    H     0.25219   0.23167   0.44430   0.00000  Uiso   1.00
H78    H     0.33980   0.35434   0.41208   0.00000  Uiso   1.00
H79    H     0.17664   0.02029   0.39858   0.00000  Uiso   1.00
H80    H     0.25937   0.29867   0.53034   0.00000  Uiso   1.00
H81    H     0.40654   0.52444   0.36353   0.00000  Uiso   1.00
H82    H     0.06251   0.82008   0.33508   0.00000  Uiso   1.00
H83    H     0.23696   0.40710   0.61292   0.00000  Uiso   1.00
O84    O     0.35977   0.72251   0.29826   0.00000  Uiso   1.00
O85    O     0.90840   0.79843   0.26093   0.00000  Uiso   1.00
O86    O     0.13728   0.56858   0.62546   0.00000  Uiso   1.00
N87    N     0.24132   0.67991   0.30329   0.00000  Uiso   1.00
N88    N     0.91967   0.02139   0.27668   0.00000  Uiso   1.00
N89    N     0.08276   0.57017   0.53644   0.00000  Uiso   1.00
N90    N     0.34913   0.55867   0.34880   0.00000  Uiso   1.00
N91    N     0.02749   0.90015   0.32219   0.00000  Uiso   1.00
N92    N     0.19057   0.44893   0.58195   0.00000  Uiso   1.00
C93    C     0.62316   0.27853   0.34506   0.00000  Uiso   1.00
C94    C     0.54749   0.23255   0.34739   0.00000  Uiso   1.00
C95    C     0.48859   0.14781   0.31307   0.00000  Uiso   1.00
C96    C     0.42399   0.11775   0.32183   0.00000  Uiso   1.00
C97    C     0.30730   0.03836   0.31912   0.00000  Uiso   1.00
C98    C     0.61895   0.42647   0.34350   0.00000  Uiso   1.00
C99    C     0.62015   0.50477   0.30592   0.00000  Uiso   1.00
C100   C     0.61572   0.63796   0.31141   0.00000  Uiso   1.00
C101   C     0.61003   0.85964   0.30268   0.00000  Uiso   1.00
C102   C     0.69619   0.24328   0.39675   0.00000  Uiso   1.00
C103   C     0.76235   0.16758   0.40395   0.00000  Uiso   1.00
C104   C     0.82296   0.14656   0.45428   0.00000  Uiso   1.00
C105   C     0.93720   0.08381   0.52822   0.00000  Uiso   1.00
C106   C     0.61317   0.37585   0.42164   0.00000  Uiso   1.00
C107   C     0.54207   0.28541   0.38899   0.00000  Uiso   1.00
C108   C     0.47754   0.25547   0.39781   0.00000  Uiso   1.00
C109   C     0.41856   0.17070   0.36351   0.00000  Uiso   1.00
C110   C     0.61353   0.47933   0.38510   0.00000  Uiso   1.00
C111   C     0.60910   0.61243   0.39065   0.00000  Uiso   1.00
C112   C     0.61028   0.69092   0.35309   0.00000  Uiso   1.00
C113   C     0.69077   0.29613   0.43835   0.00000  Uiso   1.00
C114   C     0.75129   0.27524   0.48868   0.00000  Uiso   1.00
C115   C     0.81752   0.19952   0.49595   0.00000  Uiso   1.00
H116   H     0.62739   0.23739   0.31267   0.00000  Uiso   1.00
H117   H     0.49281   0.10694   0.28088   0.00000  Uiso   1.00
H118   H     0.62435   0.46384   0.27373   0.00000  Uiso   1.00
H119   H     0.76653   0.12670   0.37175   0.00000  Uiso   1.00
H120   H     0.34120   0.98564   0.26398   0.00000  Uiso   1.00
H121   H     0.61860   0.73820   0.24891   0.00000  Uiso   1.00
H122   H     0.91840   0.02727   0.45559   0.00000  Uiso   1.00
H123   H     0.60895   0.41700   0.45403   0.00000  Uiso   1.00
H124   H     0.47336   0.29639   0.43000   0.00000  Uiso   1.00
H125   H     0.60490   0.65330   0.42285   0.00000  Uiso   1.00
H126   H     0.74707   0.31616   0.52086   0.00000  Uiso   1.00
H127   H     0.32541   0.13942   0.38500   0.00000  Uiso   1.00
H128   H     0.60281   0.89198   0.36994   0.00000  Uiso   1.00
H129   H     0.90261   0.18104   0.57662   0.00000  Uiso   1.00
O130   O     0.24443   0.97998   0.30612   0.00000  Uiso   1.00
O131   O     0.60838   0.96731   0.28636   0.00000  Uiso   1.00
O132   O     0.00170   0.03458   0.55752   0.00000  Uiso   1.00
N133   N     0.35610   0.03837   0.29576   0.00000  Uiso   1.00
N134   N     0.61544   0.74196   0.28167   0.00000  Uiso   1.00
N135   N     0.89574   0.07733   0.47490   0.00000  Uiso   1.00
N136   N     0.34760   0.12111   0.36089   0.00000  Uiso   1.00
N137   N     0.60694   0.82471   0.34680   0.00000  Uiso   1.00
N138   N     0.88724   0.16007   0.54002   0.00000  Uiso   1.00
C139   C     0.92821   0.43456   0.13186   0.00000  Uiso   1.00
C140   C     0.85514   0.47256   0.13860   0.00000  Uiso   1.00
C141   C     0.85375   0.57204   0.16963   0.00000  Uiso   1.00
C142   C     0.78098   0.59136   0.17056   0.00000  Uiso   1.00
C143   C     0.67801   0.66211   0.18548   0.00000  Uiso   1.00
C144   C     0.94378   0.29106   0.14594   0.00000  Uiso   1.00
C145   C     0.01694   0.23794   0.18314   0.00000  Uiso   1.00
C146   C     0.01879   0.10448   0.19025   0.00000  Uiso   1.00
C147   C     0.05345   0.89344   0.21653   0.00000  Uiso   1.00
C148   C     0.89883   0.44233   0.07436   0.00000  Uiso   1.00
C149   C     0.93420   0.51636   0.05136   0.00000  Uiso   1.00
C150   C     0.89821   0.51022   0.99819   0.00000  Uiso   1.00
C151   C     0.86308   0.53404   0.91332   0.00000  Uiso   1.00
C152   C     0.80143   0.29197   0.07834   0.00000  Uiso   1.00
C153   C     0.78627   0.39511   0.10953   0.00000  Uiso   1.00
C154   C     0.71348   0.41429   0.11042   0.00000  Uiso   1.00
C155   C     0.71199   0.51378   0.14144   0.00000  Uiso   1.00
C156   C     0.87492   0.21362   0.11688   0.00000  Uiso   1.00
C157   C     0.87667   0.08019   0.12393   0.00000  Uiso   1.00
C158   C     0.94980   0.02689   0.16112   0.00000  Uiso   1.00
C159   C     0.82996   0.36488   0.04528   0.00000  Uiso   1.00
C160   C     0.79392   0.35861   0.99214   0.00000  Uiso   1.00
C161   C     0.82922   0.43263   0.96907   0.00000  Uiso   1.00
H162   H     0.98182   0.49484   0.15449   0.00000  Uiso   1.00
H163   H     0.90706   0.63194   0.19213   0.00000  Uiso   1.00
H164   H     0.07022   0.29790   0.20563   0.00000  Uiso   1.00
H165   H     0.98749   0.57628   0.07386   0.00000  Uiso   1.00
H166   H     0.79381   0.74976   0.22104   0.00000  Uiso   1.00
H167   H     0.13785   0.04541   0.24950   0.00000  Uiso   1.00
H168   H     0.96340   0.63242   0.97165   0.00000  Uiso   1.00
H169   H     0.74781   0.23167   0.05570   0.00000  Uiso   1.00
H170   H     0.66020   0.35434   0.08792   0.00000  Uiso   1.00
H171   H     0.82336   0.02029   0.10142   0.00000  Uiso   1.00
H172   H     0.74063   0.29867   0.96966   0.00000  Uiso   1.00
H173   H     0.59346   0.52444   0.13647   0.00000  Uiso   1.00
H174   H     0.93749   0.82008   0.16492   0.00000  Uiso   1.00
H175   H     0.76304   0.40710   0.88708   0.00000  Uiso   1.00
O176   O     0.64023   0.72251   0.20174   0.00000  Uiso   1.00
O177   O     0.09160   0.79843   0.23907   0.00000  Uiso   1.00
O178   O     0.86272   0.56858   0.87454   0.00000  Uiso   1.00
N179   N     0.75868   0.67991   0.19671   0.00000  Uiso   1.00
N180   N     0.08033   0.02139   0.22332   0.00000  Uiso   1.00
N181   N     0.91724   0.57017   0.96356   0.00000  Uiso   1.00
N182   N     0.65087   0.55867   0.15120   0.00000  Uiso   1.00
N183   N     0.97251   0.90015   0.17781   0.00000  Uiso   1.00
N184   N     0.80943   0.44893   0.91805   0.00000  Uiso   1.00
C185   C     0.62316   0.72147   0.84506   0.00000  Uiso   1.00
C186   C     0.54749   0.76745   0.84739   0.00000  Uiso   1.00
C187   C     0.48859   0.85219   0.81307   0.00000  Uiso   1.00
C188   C     0.42399   0.88225   0.82183   0.00000  Uiso   1.00
C189   C     0.30730   0.96164   0.81912   0.00000  Uiso   1.00
C190   C     0.61895   0.57353   0.84350   0.00000  Uiso   1.00
C191   C     0.62015   0.49523   0.80592   0.00000  Uiso   1.00
C192   C     0.61572   0.36204   0.81141   0.00000  Uiso   1.00
C193   C     0.61003   0.14036   0.80268   0.00000  Uiso   1.00
C194   C     0.69619   0.75672   0.89675   0.00000  Uiso   1.00
C195   C     0.76235   0.83242   0.90395   0.00000  Uiso   1.00
C196   C     0.82296   0.85344   0.95428   0.00000  Uiso   1.00
C197   C     0.93720   0.91619   0.02822   0.00000  Uiso   1.00
C198   C     0.61317   0.62415   0.92164   0.00000  Uiso   1.00
C199   C     0.54207   0.71459   0.88899   0.00000  Uiso   1.00
C200   C     0.47754   0.74453   0.89781   0.00000  Uiso   1.00
C201   C     0.41856   0.82930   0.86351   0.00000  Uiso   1.00
C202   C     0.61353   0.52067   0.88510   0.00000  Uiso   1.00
C203   C     0.60910   0.38757   0.89065   0.00000  Uiso   1.00
C204   C     0.61028   0.30908   0.85309   0.00000  Uiso   1.00
C205   C     0.69077   0.70387   0.93835   0.00000  Uiso   1.00
C206   C     0.75129   0.72476   0.98868   0.00000  Uiso   1.00
C207   C     0.81752   0.80048   0.99595   0.00000  Uiso   1.00
H208   H     0.62739   0.76261   0.81267   0.00000  Uiso   1.00
H209   H     0.49281   0.89306   0.78088   0.00000  Uiso   1.00
H210   H     0.62435   0.53616   0.77373   0.00000  Uiso   1.00
H211   H     0.76653   0.87330   0.87175   0.00000  Uiso   1.00
H212   H     0.34120   0.01436   0.76398   0.00000  Uiso   1.00
H213   H     0.61860   0.26180   0.74891   0.00000  Uiso   1.00
H214   H     0.91840   0.97273   0.95559   0.00000  Uiso   1.00
H215   H     0.60895   0.58300   0.95403   0.00000  Uiso   1.00
H216   H     0.47336   0.70361   0.93000   0.00000  Uiso   1.00
H217   H     0.60490   0.34670   0.92285   0.00000  Uiso   1.00
H218   H     0.74707   0.68384   0.02086   0.00000  Uiso   1.00
H219   H     0.32541   0.86058   0.88500   0.00000  Uiso   1.00
H220   H     0.60281   0.10802   0.86994   0.00000  Uiso   1.00
H221   H     0.90261   0.81896   0.07662   0.00000  Uiso   1.00
O222   O     0.24443   0.02002   0.80612   0.00000  Uiso   1.00
O223   O     0.60838   0.03269   0.78636   0.00000  Uiso   1.00
O224   O     0.00170   0.96542   0.05752   0.00000  Uiso   1.00
N225   N     0.35610   0.96163   0.79576   0.00000  Uiso   1.00
N226   N     0.61544   0.25804   0.78167   0.00000  Uiso   1.00
N227   N     0.89574   0.92267   0.97490   0.00000  Uiso   1.00
N228   N     0.34760   0.87889   0.86089   0.00000  Uiso   1.00
N229   N     0.60694   0.17529   0.84680   0.00000  Uiso   1.00
N230   N     0.88724   0.83993   0.04002   0.00000  Uiso   1.00
C231   C     0.92821   0.56544   0.63186   0.00000  Uiso   1.00
C232   C     0.85514   0.52744   0.63860   0.00000  Uiso   1.00
C233   C     0.85375   0.42796   0.66963   0.00000  Uiso   1.00
C234   C     0.78098   0.40864   0.67056   0.00000  Uiso   1.00
C235   C     0.67801   0.33789   0.68548   0.00000  Uiso   1.00
C236   C     0.94378   0.70894   0.64594   0.00000  Uiso   1.00
C237   C     0.01694   0.76206   0.68314   0.00000  Uiso   1.00
C238   C     0.01879   0.89552   0.69025   0.00000  Uiso   1.00
C239   C     0.05345   0.10656   0.71653   0.00000  Uiso   1.00
C240   C     0.89883   0.55767   0.57436   0.00000  Uiso   1.00
C241   C     0.93420   0.48364   0.55136   0.00000  Uiso   1.00
C242   C     0.89821   0.48978   0.49819   0.00000  Uiso   1.00
C243   C     0.86308   0.46596   0.41332   0.00000  Uiso   1.00
C244   C     0.80143   0.70803   0.57834   0.00000  Uiso   1.00
C245   C     0.78627   0.60489   0.60953   0.00000  Uiso   1.00
C246   C     0.71348   0.58571   0.61042   0.00000  Uiso   1.00
C247   C     0.71199   0.48622   0.64144   0.00000  Uiso   1.00
C248   C     0.87492   0.78638   0.61688   0.00000  Uiso   1.00
C249   C     0.87667   0.91981   0.62393   0.00000  Uiso   1.00
C250   C     0.94980   0.97311   0.66112   0.00000  Uiso   1.00
C251   C     0.82996   0.63512   0.54528   0.00000  Uiso   1.00
C252   C     0.79392   0.64139   0.49214   0.00000  Uiso   1.00
C253   C     0.82922   0.56737   0.46907   0.00000  Uiso   1.00
H254   H     0.98182   0.50516   0.65449   0.00000  Uiso   1.00
H255   H     0.90706   0.36806   0.69213   0.00000  Uiso   1.00
H256   H     0.07022   0.70210   0.70563   0.00000  Uiso   1.00
H257   H     0.98749   0.42372   0.57386   0.00000  Uiso   1.00
H258   H     0.79381   0.25024   0.72104   0.00000  Uiso   1.00
H259   H     0.13785   0.95459   0.74950   0.00000  Uiso   1.00
H260   H     0.96340   0.36758   0.47165   0.00000  Uiso   1.00
H261   H     0.74781   0.76833   0.55570   0.00000  Uiso   1.00
H262   H     0.66020   0.64566   0.58792   0.00000  Uiso   1.00
H263   H     0.82336   0.97971   0.60142   0.00000  Uiso   1.00
H264   H     0.74063   0.70133   0.46966   0.00000  Uiso   1.00
H265   H     0.59346   0.47556   0.63647   0.00000  Uiso   1.00
H266   H     0.93749   0.17992   0.66492   0.00000  Uiso   1.00
H267   H     0.76304   0.59290   0.38708   0.00000  Uiso   1.00
O268   O     0.64023   0.27749   0.70174   0.00000  Uiso   1.00
O269   O     0.09160   0.20157   0.73907   0.00000  Uiso   1.00
O270   O     0.86272   0.43142   0.37454   0.00000  Uiso   1.00
N271   N     0.75868   0.32009   0.69671   0.00000  Uiso   1.00
N272   N     0.08033   0.97861   0.72332   0.00000  Uiso   1.00
N273   N     0.91724   0.42983   0.46356   0.00000  Uiso   1.00
N274   N     0.65087   0.44133   0.65120   0.00000  Uiso   1.00
N275   N     0.97251   0.09985   0.67781   0.00000  Uiso   1.00
N276   N     0.80943   0.55107   0.41805   0.00000  Uiso   1.00
C277   C     0.37684   0.72147   0.65494   0.00000  Uiso   1.00
C278   C     0.45251   0.76745   0.65261   0.00000  Uiso   1.00
C279   C     0.51141   0.85219   0.68693   0.00000  Uiso   1.00
C280   C     0.57601   0.88225   0.67817   0.00000  Uiso   1.00
C281   C     0.69270   0.96164   0.68088   0.00000  Uiso   1.00
C282   C     0.38105   0.57353   0.65650   0.00000  Uiso   1.00
C283   C     0.37985   0.49523   0.69408   0.00000  Uiso   1.00
C284   C     0.38428   0.36204   0.68859   0.00000  Uiso   1.00
C285   C     0.38997   0.14036   0.69732   0.00000  Uiso   1.00
C286   C     0.30381   0.75672   0.60325   0.00000  Uiso   1.00
C287   C     0.23765   0.83242   0.59605   0.00000  Uiso   1.00
C288   C     0.17704   0.85344   0.54572   0.00000  Uiso   1.00
C289   C     0.06280   0.91619   0.47178   0.00000  Uiso   1.00
C290   C     0.38683   0.62415   0.57836   0.00000  Uiso   1.00
C291   C     0.45793   0.71459   0.61101   0.00000  Uiso   1.00
C292   C     0.52246   0.74453   0.60219   0.00000  Uiso   1.00
C293   C     0.58144   0.82930   0.63649   0.00000  Uiso   1.00
C294   C     0.38647   0.52067   0.61490   0.00000  Uiso   1.00
C295   C     0.39090   0.38757   0.60935   0.00000  Uiso   1.00
C296   C     0.38972   0.30908   0.64691   0.00000  Uiso   1.00
C297   C     0.30923   0.70387   0.56165   0.00000  Uiso   1.00
C298   C     0.24871   0.72476   0.51132   0.00000  Uiso   1.00
C299   C     0.18248   0.80048   0.50405   0.00000  Uiso   1.00
H300   H     0.37261   0.76261   0.68733   0.00000  Uiso   1.00
H301   H     0.50719   0.89306   0.71912   0.00000  Uiso   1.00
H302   H     0.37565   0.53616   0.72627   0.00000  Uiso   1.00
H303   H     0.23347   0.87330   0.62825   0.00000  Uiso   1.00
H304   H     0.65880   0.01436   0.73602   0.00000  Uiso   1.00
H305   H     0.38140   0.26180   0.75109   0.00000  Uiso   1.00
H306   H     0.08160   0.97273   0.54441   0.00000  Uiso   1.00
H307   H     0.39105   0.58300   0.54597   0.00000  Uiso   1.00
H308   H     0.52664   0.70361   0.57000   0.00000  Uiso   1.00
H309   H     0.39510   0.34670   0.57715   0.00000  Uiso   1.00
H310   H     0.25293   0.68384   0.47914   0.00000  Uiso   1.00
H311   H     0.67459   0.86058   0.61500   0.00000  Uiso   1.00
H312   H     0.39719   0.10802   0.63006   0.00000  Uiso   1.00
H313   H     0.09739   0.81896   0.42338   0.00000  Uiso   1.00
O314   O     0.75557   0.02002   0.69388   0.00000  Uiso   1.00
O315   O     0.39162   0.03269   0.71364   0.00000  Uiso   1.00
O316   O     0.99830   0.96542   0.44248   0.00000  Uiso   1.00
N317   N     0.64390   0.96163   0.70424   0.00000  Uiso   1.00
N318   N     0.38456   0.25804   0.71833   0.00000  Uiso   1.00
N319   N     0.10426   0.92267   0.52510   0.00000  Uiso   1.00
N320   N     0.65240   0.87889   0.63911   0.00000  Uiso   1.00
N321   N     0.39306   0.17529   0.65320   0.00000  Uiso   1.00
N322   N     0.11276   0.83993   0.45998   0.00000  Uiso   1.00
C323   C     0.07179   0.56544   0.86814   0.00000  Uiso   1.00
C324   C     0.14486   0.52744   0.86140   0.00000  Uiso   1.00
C325   C     0.14625   0.42796   0.83037   0.00000  Uiso   1.00
C326   C     0.21902   0.40864   0.82944   0.00000  Uiso   1.00
C327   C     0.32199   0.33789   0.81452   0.00000  Uiso   1.00
C328   C     0.05622   0.70894   0.85406   0.00000  Uiso   1.00
C329   C     0.98306   0.76206   0.81686   0.00000  Uiso   1.00
C330   C     0.98121   0.89552   0.80975   0.00000  Uiso   1.00
C331   C     0.94655   0.10656   0.78347   0.00000  Uiso   1.00
C332   C     0.10117   0.55767   0.92564   0.00000  Uiso   1.00
C333   C     0.06580   0.48364   0.94864   0.00000  Uiso   1.00
C334   C     0.10179   0.48978   0.00181   0.00000  Uiso   1.00
C335   C     0.13692   0.46596   0.08668   0.00000  Uiso   1.00
C336   C     0.19857   0.70803   0.92166   0.00000  Uiso   1.00
C337   C     0.21373   0.60489   0.89047   0.00000  Uiso   1.00
C338   C     0.28652   0.58571   0.88958   0.00000  Uiso   1.00
C339   C     0.28801   0.48622   0.85856   0.00000  Uiso   1.00
C340   C     0.12508   0.78638   0.88312   0.00000  Uiso   1.00
C341   C     0.12333   0.91981   0.87607   0.00000  Uiso   1.00
C342   C     0.05020   0.97311   0.83888   0.00000  Uiso   1.00
C343   C     0.17004   0.63512   0.95472   0.00000  Uiso   1.00
C344   C     0.20608   0.64139   0.00786   0.00000  Uiso   1.00
C345   C     0.17078   0.56737   0.03093   0.00000  Uiso   1.00
H346   H     0.01818   0.50516   0.84551   0.00000  Uiso   1.00
H347   H     0.09294   0.36806   0.80787   0.00000  Uiso   1.00
H348   H     0.92978   0.70210   0.79437   0.00000  Uiso   1.00
H349   H     0.01251   0.42372   0.92614   0.00000  Uiso   1.00
H350   H     0.20619   0.25024   0.77896   0.00000  Uiso   1.00
H351   H     0.86215   0.95459   0.75050   0.00000  Uiso   1.00
H352   H     0.03660   0.36758   0.02835   0.00000  Uiso   1.00
H353   H     0.25219   0.76833   0.94430   0.00000  Uiso   1.00
H354   H     0.33980   0.64566   0.91208   0.00000  Uiso   1.00
H355   H     0.17664   0.97971   0.89858   0.00000  Uiso   1.00
H356   H     0.25937   0.70133   0.03034   0.00000  Uiso   1.00
H357   H     0.40654   0.47556   0.86353   0.00000  Uiso   1.00
H358   H     0.06251   0.17992   0.83508   0.00000  Uiso   1.00
H359   H     0.23696   0.59290   0.11292   0.00000  Uiso   1.00
O360   O     0.35977   0.27749   0.79826   0.00000  Uiso   1.00
O361   O     0.90840   0.20157   0.76093   0.00000  Uiso   1.00
O362   O     0.13728   0.43142   0.12546   0.00000  Uiso   1.00
N363   N     0.24132   0.32009   0.80329   0.00000  Uiso   1.00
N364   N     0.91967   0.97861   0.77668   0.00000  Uiso   1.00
N365   N     0.08276   0.42983   0.03644   0.00000  Uiso   1.00
N366   N     0.34913   0.44133   0.84880   0.00000  Uiso   1.00
N367   N     0.02749   0.09985   0.82219   0.00000  Uiso   1.00
N368   N     0.19057   0.55107   0.08195   0.00000  Uiso   1.00
