data_job_06955
_audit_creation_date              2018-12-19
_audit_creation_method            'Materials Studio'
_symmetry_space_group_name_H-M    'P1'
_symmetry_Int_Tables_number       1
_symmetry_cell_setting            triclinic
loop_
_symmetry_equiv_pos_as_xyz
  x,y,z
_cell_length_a                    17.6381
_cell_length_b                    22.7863
_cell_length_c                    20.6919
_cell_angle_alpha                 108.8080
_cell_angle_beta                  95.8582
_cell_angle_gamma                 90.0257
loop_
_atom_site_label
_atom_site_type_symbol
_atom_site_fract_x
_atom_site_fract_y
_atom_site_fract_z
_atom_site_U_iso_or_equiv
_atom_site_adp_type
_atom_site_occupancy
C1     C     0.44023   0.51874   0.28089   0.00000  Uiso   1.00
C2     C     0.41976   0.47177   0.20958   0.00000  Uiso   1.00
C3     C     0.45113   0.41404   0.18439   0.00000  Uiso   1.00
C4     C     0.42480   0.37792   0.11783   0.00000  Uiso   1.00
C5     C     0.40151   0.30182   0.01317   0.00000  Uiso   1.00
C6     C     0.46506   0.57844   0.26948   0.00000  Uiso   1.00
C7     C     0.53451   0.61039   0.29465   0.00000  Uiso   1.00
C8     C     0.54630   0.66407   0.27853   0.00000  Uiso   1.00
C9     C     0.59332   0.75359   0.26690   0.00000  Uiso   1.00
C10    C     0.36561   0.53242   0.31331   0.00000  Uiso   1.00
C11    C     0.35145   0.52569   0.37535   0.00000  Uiso   1.00
C12    C     0.27952   0.54064   0.39614   0.00000  Uiso   1.00
C13    C     0.17213   0.55871   0.45256   0.00000  Uiso   1.00
C14    C     0.33770   0.55727   0.20751   0.00000  Uiso   1.00
C15    C     0.36407   0.49270   0.16972   0.00000  Uiso   1.00
C16    C     0.33768   0.45666   0.10319   0.00000  Uiso   1.00
C17    C     0.36900   0.39888   0.07790   0.00000  Uiso   1.00
C18    C     0.40937   0.59937   0.22962   0.00000  Uiso   1.00
C19    C     0.42106   0.65301   0.21346   0.00000  Uiso   1.00
C20    C     0.49051   0.68503   0.23860   0.00000  Uiso   1.00
C21    C     0.30992   0.55335   0.27345   0.00000  Uiso   1.00
C22    C     0.23800   0.56832   0.29416   0.00000  Uiso   1.00
C23    C     0.22373   0.56161   0.35621   0.00000  Uiso   1.00
H24    H     0.48359   0.50245   0.31192   0.00000  Uiso   1.00
H25    H     0.49423   0.39786   0.21525   0.00000  Uiso   1.00
H26    H     0.57759   0.59418   0.32550   0.00000  Uiso   1.00
H27    H     0.39456   0.50950   0.40618   0.00000  Uiso   1.00
H28    H     0.48148   0.29114   0.09048   0.00000  Uiso   1.00
H29    H     0.65724   0.70511   0.32298   0.00000  Uiso   1.00
H30    H     0.27129   0.52653   0.49311   0.00000  Uiso   1.00
H31    H     0.29433   0.57356   0.17647   0.00000  Uiso   1.00
H32    H     0.29458   0.47287   0.07236   0.00000  Uiso   1.00
H33    H     0.37795   0.66919   0.18262   0.00000  Uiso   1.00
H34    H     0.19492   0.58451   0.26330   0.00000  Uiso   1.00
H35    H     0.31945   0.35202   0.97450   0.00000  Uiso   1.00
H36    H     0.49521   0.76599   0.20701   0.00000  Uiso   1.00
H37    H     0.10925   0.58742   0.37714   0.00000  Uiso   1.00
O38    O     0.40406   0.25407   0.96644   0.00000  Uiso   1.00
O39    O     0.63465   0.79718   0.27148   0.00000  Uiso   1.00
O40    O     0.12828   0.56289   0.49469   0.00000  Uiso   1.00
N41    N     0.44330   0.31928   0.07747   0.00000  Uiso   1.00
N42    N     0.60763   0.70631   0.29484   0.00000  Uiso   1.00
N43    N     0.24680   0.53938   0.45391   0.00000  Uiso   1.00
N44    N     0.35611   0.35204   0.01507   0.00000  Uiso   1.00
N45    N     0.52044   0.73907   0.23244   0.00000  Uiso   1.00
N46    N     0.15961   0.57214   0.39150   0.00000  Uiso   1.00
C47    C     0.18378   0.38711   0.61564   0.00000  Uiso   1.00
C48    C     0.11619   0.38852   0.56403   0.00000  Uiso   1.00
C49    C     0.11623   0.41681   0.51383   0.00000  Uiso   1.00
C50    C     0.04865   0.41293   0.47166   0.00000  Uiso   1.00
C51    C     0.95361   0.41988   0.39035   0.00000  Uiso   1.00
C52    C     0.15650   0.41484   0.68646   0.00000  Uiso   1.00
C53    C     0.19044   0.46523   0.73921   0.00000  Uiso   1.00
C54    C     0.15680   0.48350   0.80010   0.00000  Uiso   1.00
C55    C     0.12436   0.53127   0.90889   0.00000  Uiso   1.00
C56    C     0.19638   0.31879   0.60629   0.00000  Uiso   1.00
C57    C     0.26386   0.28843   0.59164   0.00000  Uiso   1.00
C58    C     0.26380   0.22583   0.58506   0.00000  Uiso   1.00
C59    C     0.29329   0.12447   0.56937   0.00000  Uiso   1.00
C60    C     0.06371   0.32993   0.63001   0.00000  Uiso   1.00
C61    C     0.05097   0.35747   0.57184   0.00000  Uiso   1.00
C62    C     0.98338   0.35354   0.52973   0.00000  Uiso   1.00
C63    C     0.98332   0.38181   0.47948   0.00000  Uiso   1.00
C64    C     0.09128   0.38378   0.69427   0.00000  Uiso   1.00
C65    C     0.05758   0.40197   0.75510   0.00000  Uiso   1.00
C66    C     0.09146   0.45239   0.80792   0.00000  Uiso   1.00
C67    C     0.13116   0.28773   0.61409   0.00000  Uiso   1.00
C68    C     0.13100   0.22516   0.60754   0.00000  Uiso   1.00
C69    C     0.19846   0.19472   0.59288   0.00000  Uiso   1.00
H70    H     0.23456   0.41129   0.60957   0.00000  Uiso   1.00
H71    H     0.16671   0.44084   0.50781   0.00000  Uiso   1.00
H72    H     0.24091   0.48926   0.73315   0.00000  Uiso   1.00
H73    H     0.31431   0.31248   0.58561   0.00000  Uiso   1.00
H74    H     0.06272   0.45993   0.39845   0.00000  Uiso   1.00
H75    H     0.21918   0.56200   0.87360   0.00000  Uiso   1.00
H76    H     0.37398   0.18923   0.56248   0.00000  Uiso   1.00
H77    H     0.01293   0.30575   0.63609   0.00000  Uiso   1.00
H78    H     0.93291   0.32950   0.53578   0.00000  Uiso   1.00
H79    H     0.00712   0.37792   0.76113   0.00000  Uiso   1.00
H80    H     0.08052   0.20114   0.61358   0.00000  Uiso   1.00
H81    H     0.87296   0.36956   0.42116   0.00000  Uiso   1.00
H82    H     0.02943   0.47164   0.89631   0.00000  Uiso   1.00
H83    H     0.18422   0.09887   0.58519   0.00000  Uiso   1.00
O84    O     0.91919   0.43230   0.34336   0.00000  Uiso   1.00
O85    O     0.12448   0.56620   0.96674   0.00000  Uiso   1.00
O86    O     0.32756   0.07714   0.55855   0.00000  Uiso   1.00
N87    N     0.02904   0.43539   0.41755   0.00000  Uiso   1.00
N88    N     0.17532   0.53083   0.86179   0.00000  Uiso   1.00
N89    N     0.32005   0.18232   0.57093   0.00000  Uiso   1.00
N90    N     0.92693   0.38676   0.42977   0.00000  Uiso   1.00
N91    N     0.07322   0.48220   0.87400   0.00000  Uiso   1.00
N92    N     0.21794   0.13370   0.58315   0.00000  Uiso   1.00
C93    C     0.54188   0.17918   0.44316   0.00000  Uiso   1.00
C94    C     0.52528   0.11212   0.43830   0.00000  Uiso   1.00
C95    C     0.46320   0.09090   0.46169   0.00000  Uiso   1.00
C96    C     0.45825   0.02785   0.45245   0.00000  Uiso   1.00
C97    C     0.42411   0.92986   0.44973   0.00000  Uiso   1.00
C98    C     0.62150   0.19624   0.48149   0.00000  Uiso   1.00
C99    C     0.64030   0.24575   0.54119   0.00000  Uiso   1.00
C100   C     0.71635   0.25352   0.56831   0.00000  Uiso   1.00
C101   C     0.83159   0.28615   0.63261   0.00000  Uiso   1.00
C102   C     0.54851   0.17832   0.36996   0.00000  Uiso   1.00
C103   C     0.50597   0.21277   0.33588   0.00000  Uiso   1.00
C104   C     0.52059   0.20546   0.26910   0.00000  Uiso   1.00
C105   C     0.52251   0.21026   0.16024   0.00000  Uiso   1.00
C106   C     0.64351   0.10494   0.38517   0.00000  Uiso   1.00
C107   C     0.58049   0.07180   0.40680   0.00000  Uiso   1.00
C108   C     0.57564   0.00876   0.39753   0.00000  Uiso   1.00
C109   C     0.51355   0.98745   0.42090   0.00000  Uiso   1.00
C110   C     0.67670   0.15592   0.44999   0.00000  Uiso   1.00
C111   C     0.75274   0.16361   0.47703   0.00000  Uiso   1.00
C112   C     0.77166   0.21312   0.53675   0.00000  Uiso   1.00
C113   C     0.60371   0.13799   0.33846   0.00000  Uiso   1.00
C114   C     0.61841   0.13063   0.27172   0.00000  Uiso   1.00
C115   C     0.57589   0.16506   0.23755   0.00000  Uiso   1.00
H116   H     0.49891   0.21058   0.46768   0.00000  Uiso   1.00
H117   H     0.42049   0.12212   0.48607   0.00000  Uiso   1.00
H118   H     0.59757   0.27695   0.56555   0.00000  Uiso   1.00
H119   H     0.46326   0.24397   0.36027   0.00000  Uiso   1.00
H120   H     0.35791   0.00627   0.49258   0.00000  Uiso   1.00
H121   H     0.73130   0.33275   0.66016   0.00000  Uiso   1.00
H122   H     0.44807   0.26321   0.22730   0.00000  Uiso   1.00
H123   H     0.68649   0.07355   0.36064   0.00000  Uiso   1.00
H124   H     0.61836   0.97757   0.37315   0.00000  Uiso   1.00
H125   H     0.79544   0.13240   0.45264   0.00000  Uiso   1.00
H126   H     0.66113   0.09942   0.24736   0.00000  Uiso   1.00
H127   H     0.51851   0.88895   0.40093   0.00000  Uiso   1.00
H128   H     0.89190   0.21543   0.56851   0.00000  Uiso   1.00
H129   H     0.60868   0.14589   0.13565   0.00000  Uiso   1.00
O130   O     0.39003   0.88695   0.45693   0.00000  Uiso   1.00
O131   O     0.87989   0.31528   0.67678   0.00000  Uiso   1.00
O132   O     0.50831   0.22404   0.10889   0.00000  Uiso   1.00
N133   N     0.40505   0.99183   0.46928   0.00000  Uiso   1.00
N134   N     0.75414   0.29706   0.62596   0.00000  Uiso   1.00
N135   N     0.48937   0.23206   0.22128   0.00000  Uiso   1.00
N136   N     0.49147   0.92870   0.41997   0.00000  Uiso   1.00
N137   N     0.84056   0.23393   0.57665   0.00000  Uiso   1.00
N138   N     0.57578   0.16893   0.17197   0.00000  Uiso   1.00
C139   C     0.82340   0.59928   0.01978   0.00000  Uiso   1.00
C140   C     0.79131   0.53642   0.01756   0.00000  Uiso   1.00
C141   C     0.81406   0.47904   0.97757   0.00000  Uiso   1.00
C142   C     0.77774   0.42697   0.98287   0.00000  Uiso   1.00
C143   C     0.73661   0.32859   0.97281   0.00000  Uiso   1.00
C144   C     0.85161   0.63331   0.09482   0.00000  Uiso   1.00
C145   C     0.92506   0.65739   0.11977   0.00000  Uiso   1.00
C146   C     0.93948   0.68689   0.19010   0.00000  Uiso   1.00
C147   C     0.99196   0.73896   0.29996   0.00000  Uiso   1.00
C148   C     0.75534   0.63466   0.00213   0.00000  Uiso   1.00
C149   C     0.74785   0.65990   0.94917   0.00000  Uiso   1.00
C150   C     0.68124   0.69055   0.94148   0.00000  Uiso   1.00
C151   C     0.58425   0.74471   0.90745   0.00000  Uiso   1.00
C152   C     0.71843   0.60884   0.10030   0.00000  Uiso   1.00
C153   C     0.73430   0.54162   0.06130   0.00000  Uiso   1.00
C154   C     0.69792   0.48963   0.06666   0.00000  Uiso   1.00
C155   C     0.72061   0.43218   0.02668   0.00000  Uiso   1.00
C156   C     0.79460   0.63850   0.13855   0.00000  Uiso   1.00
C157   C     0.80892   0.66798   0.20886   0.00000  Uiso   1.00
C158   C     0.88237   0.69210   0.23392   0.00000  Uiso   1.00
C159   C     0.69833   0.63985   0.04587   0.00000  Uiso   1.00
C160   C     0.63171   0.67048   0.03826   0.00000  Uiso   1.00
C161   C     0.62412   0.69576   0.98530   0.00000  Uiso   1.00
H162   H     0.86779   0.59523   0.98573   0.00000  Uiso   1.00
H163   H     0.85819   0.47504   0.94373   0.00000  Uiso   1.00
H164   H     0.96916   0.65337   0.08591   0.00000  Uiso   1.00
H165   H     0.79199   0.65587   0.91534   0.00000  Uiso   1.00
H166   H     0.82243   0.34407   0.91648   0.00000  Uiso   1.00
H167   H     0.05641   0.72011   0.21626   0.00000  Uiso   1.00
H168   H     0.68280   0.72538   0.85658   0.00000  Uiso   1.00
H169   H     0.67404   0.61289   0.13435   0.00000  Uiso   1.00
H170   H     0.65380   0.49366   0.10051   0.00000  Uiso   1.00
H171   H     0.76478   0.67199   0.24269   0.00000  Uiso   1.00
H172   H     0.58761   0.67449   0.07212   0.00000  Uiso   1.00
H173   H     0.65654   0.35919   0.04373   0.00000  Uiso   1.00
H174   H     0.89053   0.73523   0.34352   0.00000  Uiso   1.00
H175   H     0.51692   0.74050   0.98383   0.00000  Uiso   1.00
O176   O     0.72969   0.27288   0.95518   0.00000  Uiso   1.00
O177   O     0.03666   0.76624   0.34848   0.00000  Uiso   1.00
O178   O     0.54650   0.77315   0.87659   0.00000  Uiso   1.00
N179   N     0.78615   0.36399   0.95107   0.00000  Uiso   1.00
N180   N     0.00492   0.71556   0.23134   0.00000  Uiso   1.00
N181   N     0.65563   0.72050   0.89508   0.00000  Uiso   1.00
N182   N     0.69689   0.37213   0.01954   0.00000  Uiso   1.00
N183   N     0.91566   0.72369   0.29982   0.00000  Uiso   1.00
N184   N     0.56637   0.72863   0.96356   0.00000  Uiso   1.00
C185   C     0.70148   0.99658   0.90585   0.00000  Uiso   1.00
C186   C     0.61592   0.98142   0.89330   0.00000  Uiso   1.00
C187   C     0.58125   0.92597   0.89091   0.00000  Uiso   1.00
C188   C     0.50224   0.92123   0.87883   0.00000  Uiso   1.00
C189   C     0.37589   0.89026   0.86080   0.00000  Uiso   1.00
C190   C     0.71292   0.05553   0.96781   0.00000  Uiso   1.00
C191   C     0.75980   0.06239   0.02805   0.00000  Uiso   1.00
C192   C     0.76244   0.12003   0.07869   0.00000  Uiso   1.00
C193   C     0.78673   0.20414   0.17631   0.00000  Uiso   1.00
C194   C     0.72169   0.01457   0.84466   0.00000  Uiso   1.00
C195   C     0.77596   0.98701   0.80137   0.00000  Uiso   1.00
C196   C     0.78600   0.01018   0.74833   0.00000  Uiso   1.00
C197   C     0.82390   0.03068   0.65475   0.00000  Uiso   1.00
C198   C     0.62282   0.08676   0.88865   0.00000  Uiso   1.00
C199   C     0.57320   0.03041   0.88396   0.00000  Uiso   1.00
C200   C     0.49422   0.02575   0.87187   0.00000  Uiso   1.00
C201   C     0.45944   0.97030   0.86946   0.00000  Uiso   1.00
C202   C     0.67020   0.10452   0.95847   0.00000  Uiso   1.00
C203   C     0.67278   0.16217   0.00902   0.00000  Uiso   1.00
C204   C     0.71965   0.16911   0.06933   0.00000  Uiso   1.00
C205   C     0.67896   0.06356   0.83531   0.00000  Uiso   1.00
C206   C     0.68893   0.08678   0.78234   0.00000  Uiso   1.00
C207   C     0.74320   0.05925   0.73897   0.00000  Uiso   1.00
H208   H     0.73474   0.95844   0.91313   0.00000  Uiso   1.00
H209   H     0.61433   0.88808   0.89815   0.00000  Uiso   1.00
H210   H     0.79286   0.02448   0.03527   0.00000  Uiso   1.00
H211   H     0.80901   0.94910   0.80862   0.00000  Uiso   1.00
H212   H     0.46199   0.83167   0.87745   0.00000  Uiso   1.00
H213   H     0.83845   0.11928   0.16656   0.00000  Uiso   1.00
H214   H     0.87251   0.96034   0.68863   0.00000  Uiso   1.00
H215   H     0.58956   0.12490   0.88137   0.00000  Uiso   1.00
H216   H     0.46118   0.06366   0.86465   0.00000  Uiso   1.00
H217   H     0.63971   0.20006   0.00177   0.00000  Uiso   1.00
H218   H     0.65586   0.12469   0.77512   0.00000  Uiso   1.00
H219   H     0.33769   0.97419   0.85026   0.00000  Uiso   1.00
H220   H     0.71415   0.26180   0.13937   0.00000  Uiso   1.00
H221   H     0.74821   0.10286   0.66144   0.00000  Uiso   1.00
O222   O     0.31800   0.85965   0.85345   0.00000  Uiso   1.00
O223   O     0.81192   0.23699   0.23274   0.00000  Uiso   1.00
O224   O     0.85660   0.02846   0.60571   0.00000  Uiso   1.00
N225   N     0.45035   0.87361   0.87333   0.00000  Uiso   1.00
N226   N     0.80231   0.14251   0.14364   0.00000  Uiso   1.00
N227   N     0.83417   0.99392   0.69682   0.00000  Uiso   1.00
N228   N     0.38347   0.95030   0.85870   0.00000  Uiso   1.00
N229   N     0.73543   0.21919   0.12901   0.00000  Uiso   1.00
N230   N     0.76729   0.07061   0.68219   0.00000  Uiso   1.00
C231   C     0.88785   0.80002   0.79641   0.00000  Uiso   1.00
C232   C     0.89722   0.80293   0.72504   0.00000  Uiso   1.00
C233   C     0.84156   0.81932   0.68218   0.00000  Uiso   1.00
C234   C     0.86136   0.81917   0.61888   0.00000  Uiso   1.00
C235   C     0.86483   0.82614   0.51107   0.00000  Uiso   1.00
C236   C     0.95082   0.84261   0.84488   0.00000  Uiso   1.00
C237   C     0.94024   0.89238   0.90278   0.00000  Uiso   1.00
C238   C     0.00516   0.92562   0.94037   0.00000  Uiso   1.00
C239   C     0.09186   0.99418   0.01864   0.00000  Uiso   1.00
C240   C     0.90744   0.73435   0.79450   0.00000  Uiso   1.00
C241   C     0.86038   0.69309   0.81007   0.00000  Uiso   1.00
C242   C     0.88879   0.63518   0.80527   0.00000  Uiso   1.00
C243   C     0.90812   0.53565   0.80532   0.00000  Uiso   1.00
C244   C     0.02198   0.77058   0.76020   0.00000  Uiso   1.00
C245   C     0.97008   0.78693   0.70537   0.00000  Uiso   1.00
C246   C     0.98996   0.78675   0.64212   0.00000  Uiso   1.00
C247   C     0.93435   0.80314   0.59918   0.00000  Uiso   1.00
C248   C     0.02368   0.82662   0.82521   0.00000  Uiso   1.00
C249   C     0.08864   0.85980   0.86273   0.00000  Uiso   1.00
C250   C     0.07815   0.90960   0.92068   0.00000  Uiso   1.00
C251   C     0.98029   0.71836   0.77484   0.00000  Uiso   1.00
C252   C     0.00878   0.66051   0.77001   0.00000  Uiso   1.00
C253   C     0.96178   0.61916   0.78557   0.00000  Uiso   1.00
H254   H     0.83114   0.81248   0.81172   0.00000  Uiso   1.00
H255   H     0.78519   0.83170   0.69742   0.00000  Uiso   1.00
H256   H     0.88385   0.90474   0.91799   0.00000  Uiso   1.00
H257   H     0.80401   0.70548   0.82529   0.00000  Uiso   1.00
H258   H     0.76639   0.84599   0.56204   0.00000  Uiso   1.00
H259   H     0.97442   0.99997   0.02714   0.00000  Uiso   1.00
H260   H     0.80606   0.57980   0.83166   0.00000  Uiso   1.00
H261   H     0.07871   0.75812   0.74489   0.00000  Uiso   1.00
H262   H     0.04635   0.77437   0.62692   0.00000  Uiso   1.00
H263   H     0.14501   0.84740   0.84750   0.00000  Uiso   1.00
H264   H     0.06516   0.64815   0.75479   0.00000  Uiso   1.00
H265   H     0.97836   0.79946   0.50482   0.00000  Uiso   1.00
H266   H     0.18639   0.95344   0.96993   0.00000  Uiso   1.00
H267   H     0.01802   0.53327   0.77444   0.00000  Uiso   1.00
O268   O     0.84663   0.83441   0.45704   0.00000  Uiso   1.00
O269   O     0.11955   0.03642   0.06724   0.00000  Uiso   1.00
O270   O     0.89866   0.48517   0.81077   0.00000  Uiso   1.00
N271   N     0.82071   0.83280   0.56475   0.00000  Uiso   1.00
N272   N     0.01521   0.97677   0.99959   0.00000  Uiso   1.00
N273   N     0.85781   0.58395   0.81685   0.00000  Uiso   1.00
N274   N     0.93477   0.80776   0.53397   0.00000  Uiso   1.00
N275   N     0.12926   0.95173   0.96880   0.00000  Uiso   1.00
N276   N     0.97186   0.55891   0.78606   0.00000  Uiso   1.00
C277   C     0.44320   0.46187   0.79136   0.00000  Uiso   1.00
C278   C     0.44196   0.50979   0.86240   0.00000  Uiso   1.00
C279   C     0.39842   0.56226   0.87814   0.00000  Uiso   1.00
C280   C     0.40533   0.60031   0.94621   0.00000  Uiso   1.00
C281   C     0.39596   0.67682   0.04886   0.00000  Uiso   1.00
C282   C     0.42282   0.39951   0.79885   0.00000  Uiso   1.00
C283   C     0.36320   0.35926   0.76115   0.00000  Uiso   1.00
C284   C     0.35401   0.30447   0.77571   0.00000  Uiso   1.00
C285   C     0.31497   0.20975   0.77966   0.00000  Uiso   1.00
C286   C     0.52628   0.45869   0.77647   0.00000  Uiso   1.00
C287   C     0.55364   0.46817   0.71994   0.00000  Uiso   1.00
C288   C     0.63156   0.46319   0.71565   0.00000  Uiso   1.00
C289   C     0.75315   0.46035   0.68485   0.00000  Uiso   1.00
C290   C     0.53290   0.43615   0.88425   0.00000  Uiso   1.00
C291   C     0.49068   0.49582   0.91286   0.00000  Uiso   1.00
C292   C     0.49766   0.53380   0.98092   0.00000  Uiso   1.00
C293   C     0.45414   0.58632   0.99675   0.00000  Uiso   1.00
C294   C     0.47154   0.38554   0.84931   0.00000  Uiso   1.00
C295   C     0.46244   0.33080   0.86392   0.00000  Uiso   1.00
C296   C     0.40282   0.29047   0.82625   0.00000  Uiso   1.00
C297   C     0.57500   0.44472   0.82693   0.00000  Uiso   1.00
C298   C     0.65289   0.43971   0.82272   0.00000  Uiso   1.00
C299   C     0.68037   0.44919   0.76620   0.00000  Uiso   1.00
H300   H     0.40526   0.47275   0.75207   0.00000  Uiso   1.00
H301   H     0.36071   0.57305   0.83908   0.00000  Uiso   1.00
H302   H     0.32551   0.37008   0.72210   0.00000  Uiso   1.00
H303   H     0.51592   0.47898   0.68091   0.00000  Uiso   1.00
H304   H     0.33279   0.67808   0.95780   0.00000  Uiso   1.00
H305   H     0.25858   0.25010   0.71113   0.00000  Uiso   1.00
H306   H     0.66010   0.47973   0.62425   0.00000  Uiso   1.00
H307   H     0.57083   0.42527   0.92353   0.00000  Uiso   1.00
H308   H     0.53537   0.52298   0.01995   0.00000  Uiso   1.00
H309   H     0.50016   0.32000   0.90297   0.00000  Uiso   1.00
H310   H     0.69057   0.42890   0.86177   0.00000  Uiso   1.00
H311   H     0.47454   0.63744   0.10460   0.00000  Uiso   1.00
H312   H     0.40033   0.20945   0.85792   0.00000  Uiso   1.00
H313   H     0.80185   0.43908   0.77105   0.00000  Uiso   1.00
O314   O     0.37733   0.72288   0.09154   0.00000  Uiso   1.00
O315   O     0.27997   0.16137   0.76790   0.00000  Uiso   1.00
O316   O     0.80676   0.46265   0.65393   0.00000  Uiso   1.00
N317   N     0.37103   0.65512   0.97912   0.00000  Uiso   1.00
N318   N     0.30163   0.25498   0.74850   0.00000  Uiso   1.00
N319   N     0.67702   0.46965   0.66727   0.00000  Uiso   1.00
N320   N     0.44731   0.63325   0.05811   0.00000  Uiso   1.00
N321   N     0.37791   0.23311   0.82749   0.00000  Uiso   1.00
N322   N     0.75330   0.44778   0.74626   0.00000  Uiso   1.00
C323   C     0.71653   0.55467   0.45892   0.00000  Uiso   1.00
C324   C     0.79775   0.55436   0.49207   0.00000  Uiso   1.00
C325   C     0.81858   0.53662   0.54940   0.00000  Uiso   1.00
C326   C     0.89585   0.53963   0.57178   0.00000  Uiso   1.00
C327   C     0.01369   0.53608   0.62838   0.00000  Uiso   1.00
C328   C     0.71598   0.51424   0.38405   0.00000  Uiso   1.00
C329   C     0.66804   0.46277   0.35055   0.00000  Uiso   1.00
C330   C     0.67648   0.43201   0.28199   0.00000  Uiso   1.00
C331   C     0.66732   0.36620   0.17087   0.00000  Uiso   1.00
C332   C     0.70454   0.62068   0.45801   0.00000  Uiso   1.00
C333   C     0.64697   0.65870   0.48668   0.00000  Uiso   1.00
C334   C     0.64576   0.71755   0.48039   0.00000  Uiso   1.00
C335   C     0.61884   0.81700   0.48410   0.00000  Uiso   1.00
C336   C     0.81674   0.59157   0.39673   0.00000  Uiso   1.00
C337   C     0.85218   0.57440   0.45829   0.00000  Uiso   1.00
C338   C     0.92945   0.57744   0.48059   0.00000  Uiso   1.00
C339   C     0.95038   0.55971   0.53795   0.00000  Uiso   1.00
C340   C     0.77041   0.53428   0.35027   0.00000  Uiso   1.00
C341   C     0.77891   0.50360   0.28174   0.00000  Uiso   1.00
C342   C     0.73100   0.45209   0.24815   0.00000  Uiso   1.00
C343   C     0.75897   0.64072   0.42423   0.00000  Uiso   1.00
C344   C     0.75784   0.69952   0.41788   0.00000  Uiso   1.00
C345   C     0.70028   0.73763   0.44654   0.00000  Uiso   1.00
H346   H     0.67415   0.53906   0.48521   0.00000  Uiso   1.00
H347   H     0.77644   0.52111   0.57552   0.00000  Uiso   1.00
H348   H     0.62592   0.44728   0.37670   0.00000  Uiso   1.00
H349   H     0.60486   0.64317   0.51282   0.00000  Uiso   1.00
H350   H     0.91384   0.51002   0.66074   0.00000  Uiso   1.00
H351   H     0.59645   0.35436   0.24151   0.00000  Uiso   1.00
H352   H     0.55203   0.76744   0.52854   0.00000  Uiso   1.00
H353   H     0.85912   0.60717   0.37043   0.00000  Uiso   1.00
H354   H     0.97156   0.59295   0.45444   0.00000  Uiso   1.00
H355   H     0.82104   0.51912   0.25562   0.00000  Uiso   1.00
H356   H     0.79997   0.71502   0.39174   0.00000  Uiso   1.00
H357   H     0.07221   0.56833   0.56246   0.00000  Uiso   1.00
H358   H     0.75481   0.41266   0.14323   0.00000  Uiso   1.00
H359   H     0.71039   0.82575   0.43026   0.00000  Uiso   1.00
O360   O     0.06365   0.52857   0.66893   0.00000  Uiso   1.00
O361   O     0.64724   0.32436   0.11891   0.00000  Uiso   1.00
O362   O     0.58896   0.86631   0.49549   0.00000  Uiso   1.00
N363   N     0.93568   0.52570   0.62609   0.00000  Uiso   1.00
N364   N     0.63895   0.38016   0.23413   0.00000  Uiso   1.00
N365   N     0.59740   0.76636   0.50247   0.00000  Uiso   1.00
N366   N     0.02090   0.55708   0.57321   0.00000  Uiso   1.00
N367   N     0.72417   0.41154   0.18125   0.00000  Uiso   1.00
N368   N     0.68262   0.79773   0.44958   0.00000  Uiso   1.00
C369   C     0.38998   0.80447   0.60761   0.00000  Uiso   1.00
C370   C     0.39145   0.87498   0.63858   0.00000  Uiso   1.00
C371   C     0.45618   0.91381   0.65599   0.00000  Uiso   1.00
C372   C     0.44551   0.97700   0.68367   0.00000  Uiso   1.00
C373   C     0.45886   0.08292   0.73022   0.00000  Uiso   1.00
C374   C     0.33690   0.78835   0.54091   0.00000  Uiso   1.00
C375   C     0.35578   0.75433   0.47620   0.00000  Uiso   1.00
C376   C     0.29918   0.74460   0.42166   0.00000  Uiso   1.00
C377   C     0.22784   0.71599   0.31659   0.00000  Uiso   1.00
C378   C     0.34972   0.77967   0.65580   0.00000  Uiso   1.00
C379   C     0.37936   0.73835   0.68768   0.00000  Uiso   1.00
C380   C     0.33354   0.72130   0.72986   0.00000  Uiso   1.00
C381   C     0.28209   0.67921   0.80317   0.00000  Uiso   1.00
C382   C     0.25591   0.84766   0.62579   0.00000  Uiso   1.00
C383   C     0.31862   0.89844   0.64845   0.00000  Uiso   1.00
C384   C     0.30784   0.96159   0.67611   0.00000  Uiso   1.00
C385   C     0.37255   0.00051   0.69357   0.00000  Uiso   1.00
C386   C     0.26408   0.81181   0.55078   0.00000  Uiso   1.00
C387   C     0.20744   0.80212   0.49632   0.00000  Uiso   1.00
C388   C     0.22623   0.76810   0.43156   0.00000  Uiso   1.00
C389   C     0.27689   0.80313   0.66568   0.00000  Uiso   1.00
C390   C     0.23102   0.78614   0.70780   0.00000  Uiso   1.00
C391   C     0.26058   0.74480   0.73975   0.00000  Uiso   1.00
H392   H     0.44668   0.78620   0.59992   0.00000  Uiso   1.00
H393   H     0.51253   0.89563   0.64834   0.00000  Uiso   1.00
H394   H     0.41214   0.73618   0.46858   0.00000  Uiso   1.00
H395   H     0.43571   0.72020   0.68003   0.00000  Uiso   1.00
H396   H     0.55342   0.02731   0.70635   0.00000  Uiso   1.00
H397   H     0.34173   0.69107   0.32733   0.00000  Uiso   1.00
H398   H     0.39144   0.65738   0.77321   0.00000  Uiso   1.00
H399   H     0.19921   0.86592   0.63348   0.00000  Uiso   1.00
H400   H     0.25148   0.97973   0.68375   0.00000  Uiso   1.00
H401   H     0.15109   0.82028   0.50399   0.00000  Uiso   1.00
H402   H     0.17467   0.80430   0.71543   0.00000  Uiso   1.00
H403   H     0.34155   0.09557   0.73509   0.00000  Uiso   1.00
H404   H     0.12986   0.75933   0.35606   0.00000  Uiso   1.00
H405   H     0.17957   0.72564   0.80194   0.00000  Uiso   1.00
O406   O     0.48634   0.13487   0.75316   0.00000  Uiso   1.00
O407   O     0.20860   0.69373   0.25590   0.00000  Uiso   1.00
O408   O     0.27383   0.64953   0.84088   0.00000  Uiso   1.00
N409   N     0.49638   0.02775   0.70623   0.00000  Uiso   1.00
N410   N     0.29847   0.71340   0.35186   0.00000  Uiso   1.00
N411   N     0.34494   0.68189   0.76871   0.00000  Uiso   1.00
N412   N     0.38238   0.06448   0.72169   0.00000  Uiso   1.00
N413   N     0.18446   0.75013   0.36733   0.00000  Uiso   1.00
N414   N     0.23093   0.71862   0.78417   0.00000  Uiso   1.00
C415   C     0.00288   0.25846   0.04008   0.00000  Uiso   1.00
C416   C     0.01500   0.32652   0.08384   0.00000  Uiso   1.00
C417   C     0.98763   0.35422   0.14678   0.00000  Uiso   1.00
C418   C     0.00487   0.41706   0.17871   0.00000  Uiso   1.00
C419   C     0.01711   0.51760   0.25120   0.00000  Uiso   1.00
C420   C     0.96572   0.25819   0.97013   0.00000  Uiso   1.00
C421   C     0.89690   0.22843   0.93745   0.00000  Uiso   1.00
C422   C     0.87266   0.23374   0.87365   0.00000  Uiso   1.00
C423   C     0.80841   0.22815   0.76958   0.00000  Uiso   1.00
C424   C     0.08225   0.23338   0.02845   0.00000  Uiso   1.00
C425   C     0.11142   0.18276   0.04479   0.00000  Uiso   1.00
C426   C     0.18528   0.16717   0.03008   0.00000  Uiso   1.00
C427   C     0.30197   0.12307   0.01656   0.00000  Uiso   1.00
C428   C     0.08218   0.32078   0.98489   0.00000  Uiso   1.00
C429   C     0.05808   0.36037   0.05386   0.00000  Uiso   1.00
C430   C     0.07537   0.42318   0.08571   0.00000  Uiso   1.00
C431   C     0.04802   0.45097   0.14868   0.00000  Uiso   1.00
C432   C     0.00879   0.29204   0.94015   0.00000  Uiso   1.00
C433   C     0.98464   0.29739   0.87639   0.00000  Uiso   1.00
C434   C     0.91581   0.26765   0.84362   0.00000  Uiso   1.00
C435   C     0.12533   0.26723   0.99847   0.00000  Uiso   1.00
C436   C     0.19916   0.25172   0.98373   0.00000  Uiso   1.00
C437   C     0.22843   0.20108   0.00005   0.00000  Uiso   1.00
H438   H     0.96934   0.23210   0.06342   0.00000  Uiso   1.00
H439   H     0.95429   0.32801   0.16996   0.00000  Uiso   1.00
H440   H     0.86359   0.20223   0.96066   0.00000  Uiso   1.00
H441   H     0.07807   0.15657   0.06799   0.00000  Uiso   1.00
H442   H     0.95658   0.44928   0.27484   0.00000  Uiso   1.00
H443   H     0.76534   0.18405   0.83352   0.00000  Uiso   1.00
H444   H     0.21761   0.08776   0.05983   0.00000  Uiso   1.00
H445   H     0.11571   0.34714   0.96155   0.00000  Uiso   1.00
H446   H     0.10870   0.44936   0.06250   0.00000  Uiso   1.00
H447   H     0.01799   0.32358   0.85320   0.00000  Uiso   1.00
H448   H     0.23247   0.27792   0.96053   0.00000  Uiso   1.00
H449   H     0.08190   0.54777   0.18762   0.00000  Uiso   1.00
H450   H     0.89066   0.28254   0.74630   0.00000  Uiso   1.00
H451   H     0.34293   0.18626   0.97262   0.00000  Uiso   1.00
O452   O     0.01196   0.56370   0.29947   0.00000  Uiso   1.00
O453   O     0.76107   0.21572   0.72046   0.00000  Uiso   1.00
O454   O     0.35444   0.08940   0.01739   0.00000  Uiso   1.00
N455   N     0.98705   0.45843   0.24047   0.00000  Uiso   1.00
N456   N     0.80824   0.21046   0.82786   0.00000  Uiso   1.00
N457   N     0.23107   0.12043   0.03943   0.00000  Uiso   1.00
N458   N     0.05448   0.51143   0.19353   0.00000  Uiso   1.00
N459   N     0.87568   0.26346   0.78093   0.00000  Uiso   1.00
N460   N     0.29851   0.17343   0.99250   0.00000  Uiso   1.00
C461   C     0.18848   0.93147   0.16412   0.00000  Uiso   1.00
C462   C     0.26891   0.93481   0.14428   0.00000  Uiso   1.00
C463   C     0.29640   0.97806   0.11735   0.00000  Uiso   1.00
C464   C     0.37162   0.97327   0.10255   0.00000  Uiso   1.00
C465   C     0.48949   0.98549   0.06993   0.00000  Uiso   1.00
C466   C     0.15664   0.86628   0.12358   0.00000  Uiso   1.00
C467   C     0.08974   0.85192   0.07925   0.00000  Uiso   1.00
C468   C     0.07046   0.78945   0.04704   0.00000  Uiso   1.00
C469   C     0.01400   0.69527   0.98232   0.00000  Uiso   1.00
C470   C     0.19795   0.93480   0.23931   0.00000  Uiso   1.00
C471   C     0.16576   0.97804   0.29230   0.00000  Uiso   1.00
C472   C     0.18124   0.97325   0.35752   0.00000  Uiso   1.00
C473   C     0.18892   0.98546   0.47249   0.00000  Uiso   1.00
C474   C     0.27319   0.84606   0.18574   0.00000  Uiso   1.00
C475   C     0.31492   0.88841   0.15602   0.00000  Uiso   1.00
C476   C     0.39012   0.88356   0.14127   0.00000  Uiso   1.00
C477   C     0.41772   0.92680   0.11432   0.00000  Uiso   1.00
C478   C     0.20265   0.81989   0.13532   0.00000  Uiso   1.00
C479   C     0.18346   0.75742   0.10317   0.00000  Uiso   1.00
C480   C     0.11655   0.74297   0.05881   0.00000  Uiso   1.00
C481   C     0.24396   0.88841   0.25106   0.00000  Uiso   1.00
C482   C     0.25949   0.88355   0.31621   0.00000  Uiso   1.00
C483   C     0.22733   0.92677   0.36929   0.00000  Uiso   1.00
H484   H     0.15266   0.96759   0.15498   0.00000  Uiso   1.00
H485   H     0.26077   0.01395   0.10826   0.00000  Uiso   1.00
H486   H     0.05414   0.88783   0.07018   0.00000  Uiso   1.00
H487   H     0.13016   0.01393   0.28319   0.00000  Uiso   1.00
H488   H     0.40091   0.04488   0.06162   0.00000  Uiso   1.00
H489   H     0.96521   0.77895   0.98135   0.00000  Uiso   1.00
H490   H     0.12550   0.04486   0.43051   0.00000  Uiso   1.00
H491   H     0.30902   0.80994   0.19489   0.00000  Uiso   1.00
H492   H     0.42571   0.84766   0.15036   0.00000  Uiso   1.00
H493   H     0.21908   0.72154   0.11228   0.00000  Uiso   1.00
H494   H     0.29510   0.84764   0.32528   0.00000  Uiso   1.00
H495   H     0.53479   0.90991   0.09579   0.00000  Uiso   1.00
H496   H     0.09908   0.64398   0.01551   0.00000  Uiso   1.00
H497   H     0.25937   0.90989   0.46468   0.00000  Uiso   1.00
O498   O     0.54179   0.00503   0.04868   0.00000  Uiso   1.00
O499   O     0.97015   0.65614   0.94337   0.00000  Uiso   1.00
O500   O     0.18045   0.00502   0.53266   0.00000  Uiso   1.00
N501   N     0.41641   0.00795   0.07579   0.00000  Uiso   1.00
N502   N     0.00906   0.75931   0.00072   0.00000  Uiso   1.00
N503   N     0.15890   0.00791   0.42066   0.00000  Uiso   1.00
N504   N     0.48845   0.93532   0.09417   0.00000  Uiso   1.00
N505   N     0.08109   0.68669   0.01911   0.00000  Uiso   1.00
N506   N     0.23094   0.93528   0.43904   0.00000  Uiso   1.00
C507   C     0.92710   0.93484   0.25128   0.00000  Uiso   1.00
C508   C     0.94246   0.94118   0.32714   0.00000  Uiso   1.00
C509   C     0.99537   0.90851   0.35504   0.00000  Uiso   1.00
C510   C     0.00080   0.92096   0.42563   0.00000  Uiso   1.00
C511   C     0.03161   0.92415   0.53716   0.00000  Uiso   1.00
C512   C     0.84217   0.91853   0.23154   0.00000  Uiso   1.00
C513   C     0.81076   0.86682   0.17904   0.00000  Uiso   1.00
C514   C     0.73177   0.86022   0.16915   0.00000  Uiso   1.00
C515   C     0.60687   0.82827   0.13222   0.00000  Uiso   1.00
C516   C     0.93878   0.99977   0.24707   0.00000  Uiso   1.00
C517   C     0.98858   0.01637   0.20763   0.00000  Uiso   1.00
C518   C     0.99091   0.07816   0.21081   0.00000  Uiso   1.00
C519   C     0.01601   0.17235   0.19800   0.00000  Uiso   1.00
C520   C     0.84265   0.01504   0.32704   0.00000  Uiso   1.00
C521   C     0.89659   0.98474   0.36829   0.00000  Uiso   1.00
C522   C     0.90194   0.99724   0.43886   0.00000  Uiso   1.00
C523   C     0.95485   0.96460   0.46686   0.00000  Uiso   1.00
C524   C     0.79630   0.96209   0.27269   0.00000  Uiso   1.00
C525   C     0.71733   0.95556   0.26287   0.00000  Uiso   1.00
C526   C     0.68581   0.90385   0.21038   0.00000  Uiso   1.00
C527   C     0.89291   0.04333   0.28823   0.00000  Uiso   1.00
C528   C     0.89515   0.10510   0.29146   0.00000  Uiso   1.00
C529   C     0.94495   0.12180   0.25203   0.00000  Uiso   1.00
H530   H     0.96280   0.90092   0.21924   0.00000  Uiso   1.00
H531   H     0.03085   0.87480   0.32317   0.00000  Uiso   1.00
H532   H     0.84627   0.83313   0.14720   0.00000  Uiso   1.00
H533   H     0.02407   0.98265   0.17579   0.00000  Uiso   1.00
H534   H     0.08605   0.86503   0.45655   0.00000  Uiso   1.00
H535   H     0.69686   0.77717   0.08549   0.00000  Uiso   1.00
H536   H     0.07177   0.09247   0.14577   0.00000  Uiso   1.00
H537   H     0.80694   0.04895   0.35908   0.00000  Uiso   1.00
H538   H     0.86644   0.03095   0.47070   0.00000  Uiso   1.00
H539   H     0.68186   0.98928   0.29472   0.00000  Uiso   1.00
H540   H     0.85965   0.13880   0.32331   0.00000  Uiso   1.00
H541   H     0.95261   0.99177   0.57628   0.00000  Uiso   1.00
H542   H     0.56341   0.90391   0.20522   0.00000  Uiso   1.00
H543   H     0.93832   0.21920   0.26551   0.00000  Uiso   1.00
O544   O     0.06127   0.91387   0.58731   0.00000  Uiso   1.00
O545   O     0.55066   0.79861   0.10049   0.00000  Uiso   1.00
O546   O     0.04253   0.21227   0.17958   0.00000  Uiso   1.00
N547   N     0.04649   0.89734   0.46941   0.00000  Uiso   1.00
N548   N     0.68262   0.81519   0.12250   0.00000  Uiso   1.00
N549   N     0.03311   0.10996   0.17885   0.00000  Uiso   1.00
N550   N     0.97469   0.96553   0.53384   0.00000  Uiso   1.00
N551   N     0.61081   0.88338   0.18693   0.00000  Uiso   1.00
N552   N     0.96131   0.17816   0.24327   0.00000  Uiso   1.00
