data_job_01522
_audit_creation_date              2018-12-19
_audit_creation_method            'Materials Studio'
_symmetry_space_group_name_H-M    'P1'
_symmetry_Int_Tables_number       1
_symmetry_cell_setting            triclinic
loop_
_symmetry_equiv_pos_as_xyz
  x,y,z
_cell_length_a                    7.6310
_cell_length_b                    14.5823
_cell_length_c                    20.1703
_cell_angle_alpha                 90.0000
_cell_angle_beta                  89.3501
_cell_angle_gamma                 90.0000
loop_
_atom_site_label
_atom_site_type_symbol
_atom_site_fract_x
_atom_site_fract_y
_atom_site_fract_z
_atom_site_U_iso_or_equiv
_atom_site_adp_type
_atom_site_occupancy
C1     C     0.16273   0.75975   0.23509   0.00000  Uiso   1.00
C2     C     0.14512   0.78269   0.30863   0.00000  Uiso   1.00
C3     C     0.25718   0.75360   0.35809   0.00000  Uiso   1.00
C4     C     0.21855   0.78196   0.42232   0.00000  Uiso   1.00
C5     C     0.21330   0.80910   0.53435   0.00000  Uiso   1.00
C6     C     0.99005   0.71506   0.21571   0.00000  Uiso   1.00
C7     C     0.97176   0.62912   0.18704   0.00000  Uiso   1.00
C8     C     0.80259   0.60056   0.17304   0.00000  Uiso   1.00
C9     C     0.55661   0.52273   0.14077   0.00000  Uiso   1.00
C10    C     0.16942   0.85146   0.19883   0.00000  Uiso   1.00
C11    C     0.30190   0.88021   0.15595   0.00000  Uiso   1.00
C12    C     0.28373   0.96648   0.12772   0.00000  Uiso   1.00
C13    C     0.31624   0.10044   0.06924   0.00000  Uiso   1.00
C14    C     0.89484   0.86184   0.26120   0.00000  Uiso   1.00
C15    C     0.99961   0.83813   0.32281   0.00000  Uiso   1.00
C16    C     0.96080   0.86655   0.38698   0.00000  Uiso   1.00
C17    C     0.07280   0.83751   0.43653   0.00000  Uiso   1.00
C18    C     0.84455   0.77050   0.22989   0.00000  Uiso   1.00
C19    C     0.67538   0.74207   0.21593   0.00000  Uiso   1.00
C20    C     0.65683   0.65611   0.18725   0.00000  Uiso   1.00
C21    C     0.02392   0.90691   0.21301   0.00000  Uiso   1.00
C22    C     0.00553   0.99316   0.18484   0.00000  Uiso   1.00
C23    C     0.13796   0.02203   0.14193   0.00000  Uiso   1.00
H24    H     0.27600   0.71658   0.22405   0.00000  Uiso   1.00
H25    H     0.36976   0.71068   0.34710   0.00000  Uiso   1.00
H26    H     0.08438   0.58623   0.17607   0.00000  Uiso   1.00
H27    H     0.41448   0.83728   0.14499   0.00000  Uiso   1.00
H28    H     0.40952   0.72857   0.48977   0.00000  Uiso   1.00
H29    H     0.80778   0.46617   0.12913   0.00000  Uiso   1.00
H30    H     0.50386   0.99555   0.06358   0.00000  Uiso   1.00
H31    H     0.78156   0.90501   0.27224   0.00000  Uiso   1.00
H32    H     0.84820   0.90946   0.39794   0.00000  Uiso   1.00
H33    H     0.56281   0.78500   0.22691   0.00000  Uiso   1.00
H34    H     0.89291   0.03605   0.19583   0.00000  Uiso   1.00
H35    H     0.98619   0.88990   0.53104   0.00000  Uiso   1.00
H36    H     0.38445   0.62749   0.17039   0.00000  Uiso   1.00
H37    H     0.08053   0.15688   0.10485   0.00000  Uiso   1.00
O38    O     0.25058   0.80874   0.59223   0.00000  Uiso   1.00
O39    O     0.46113   0.46448   0.11906   0.00000  Uiso   1.00
O40    O     0.37437   0.15902   0.03307   0.00000  Uiso   1.00
N41    N     0.30076   0.76595   0.48223   0.00000  Uiso   1.00
N42    N     0.73817   0.52061   0.14506   0.00000  Uiso   1.00
N43    N     0.38892   0.01553   0.08377   0.00000  Uiso   1.00
N44    N     0.07297   0.85276   0.50444   0.00000  Uiso   1.00
N45    N     0.51038   0.60742   0.16727   0.00000  Uiso   1.00
N46    N     0.16114   0.10234   0.10597   0.00000  Uiso   1.00
C47    C     0.83727   0.25975   0.26491   0.00000  Uiso   1.00
C48    C     0.85488   0.28269   0.19137   0.00000  Uiso   1.00
C49    C     0.74282   0.25360   0.14191   0.00000  Uiso   1.00
C50    C     0.78145   0.28196   0.07768   0.00000  Uiso   1.00
C51    C     0.78670   0.30910   0.96565   0.00000  Uiso   1.00
C52    C     0.00995   0.21506   0.28429   0.00000  Uiso   1.00
C53    C     0.02824   0.12912   0.31296   0.00000  Uiso   1.00
C54    C     0.19741   0.10056   0.32696   0.00000  Uiso   1.00
C55    C     0.44339   0.02273   0.35923   0.00000  Uiso   1.00
C56    C     0.83058   0.35146   0.30117   0.00000  Uiso   1.00
C57    C     0.69810   0.38021   0.34405   0.00000  Uiso   1.00
C58    C     0.71627   0.46648   0.37228   0.00000  Uiso   1.00
C59    C     0.68376   0.60044   0.43076   0.00000  Uiso   1.00
C60    C     0.10516   0.36184   0.23880   0.00000  Uiso   1.00
C61    C     0.00039   0.33813   0.17719   0.00000  Uiso   1.00
C62    C     0.03920   0.36655   0.11302   0.00000  Uiso   1.00
C63    C     0.92720   0.33751   0.06347   0.00000  Uiso   1.00
C64    C     0.15545   0.27050   0.27011   0.00000  Uiso   1.00
C65    C     0.32462   0.24207   0.28407   0.00000  Uiso   1.00
C66    C     0.34317   0.15611   0.31275   0.00000  Uiso   1.00
C67    C     0.97608   0.40691   0.28699   0.00000  Uiso   1.00
C68    C     0.99447   0.49316   0.31516   0.00000  Uiso   1.00
C69    C     0.86204   0.52203   0.35807   0.00000  Uiso   1.00
H70    H     0.72400   0.21658   0.27595   0.00000  Uiso   1.00
H71    H     0.63024   0.21068   0.15290   0.00000  Uiso   1.00
H72    H     0.91562   0.08623   0.32393   0.00000  Uiso   1.00
H73    H     0.58552   0.33728   0.35501   0.00000  Uiso   1.00
H74    H     0.59048   0.22857   0.01023   0.00000  Uiso   1.00
H75    H     0.19222   0.96617   0.37087   0.00000  Uiso   1.00
H76    H     0.49614   0.49555   0.43642   0.00000  Uiso   1.00
H77    H     0.21844   0.40501   0.22776   0.00000  Uiso   1.00
H78    H     0.15180   0.40946   0.10206   0.00000  Uiso   1.00
H79    H     0.43719   0.28500   0.27309   0.00000  Uiso   1.00
H80    H     0.10709   0.53605   0.30417   0.00000  Uiso   1.00
H81    H     0.01381   0.38990   0.96896   0.00000  Uiso   1.00
H82    H     0.61555   0.12749   0.32961   0.00000  Uiso   1.00
H83    H     0.91947   0.65688   0.39515   0.00000  Uiso   1.00
O84    O     0.74942   0.30874   0.90777   0.00000  Uiso   1.00
O85    O     0.53887   0.96448   0.38094   0.00000  Uiso   1.00
O86    O     0.62563   0.65902   0.46693   0.00000  Uiso   1.00
N87    N     0.69924   0.26595   0.01777   0.00000  Uiso   1.00
N88    N     0.26183   0.02061   0.35494   0.00000  Uiso   1.00
N89    N     0.61108   0.51553   0.41623   0.00000  Uiso   1.00
N90    N     0.92703   0.35276   0.99556   0.00000  Uiso   1.00
N91    N     0.48962   0.10742   0.33273   0.00000  Uiso   1.00
N92    N     0.83886   0.60234   0.39403   0.00000  Uiso   1.00
C93    C     0.83727   0.24025   0.76491   0.00000  Uiso   1.00
C94    C     0.85488   0.21731   0.69137   0.00000  Uiso   1.00
C95    C     0.74282   0.24640   0.64191   0.00000  Uiso   1.00
C96    C     0.78145   0.21804   0.57768   0.00000  Uiso   1.00
C97    C     0.78670   0.19090   0.46565   0.00000  Uiso   1.00
C98    C     0.00995   0.28494   0.78429   0.00000  Uiso   1.00
C99    C     0.02824   0.37088   0.81296   0.00000  Uiso   1.00
C100   C     0.19741   0.39944   0.82696   0.00000  Uiso   1.00
C101   C     0.44339   0.47727   0.85923   0.00000  Uiso   1.00
C102   C     0.83058   0.14854   0.80117   0.00000  Uiso   1.00
C103   C     0.69810   0.11979   0.84405   0.00000  Uiso   1.00
C104   C     0.71627   0.03352   0.87228   0.00000  Uiso   1.00
C105   C     0.68376   0.89956   0.93076   0.00000  Uiso   1.00
C106   C     0.10516   0.13816   0.73880   0.00000  Uiso   1.00
C107   C     0.00039   0.16187   0.67719   0.00000  Uiso   1.00
C108   C     0.03920   0.13345   0.61302   0.00000  Uiso   1.00
C109   C     0.92720   0.16249   0.56347   0.00000  Uiso   1.00
C110   C     0.15545   0.22950   0.77011   0.00000  Uiso   1.00
C111   C     0.32462   0.25793   0.78407   0.00000  Uiso   1.00
C112   C     0.34317   0.34389   0.81275   0.00000  Uiso   1.00
C113   C     0.97608   0.09309   0.78699   0.00000  Uiso   1.00
C114   C     0.99447   0.00684   0.81516   0.00000  Uiso   1.00
C115   C     0.86204   0.97797   0.85807   0.00000  Uiso   1.00
H116   H     0.72400   0.28342   0.77595   0.00000  Uiso   1.00
H117   H     0.63024   0.28932   0.65290   0.00000  Uiso   1.00
H118   H     0.91562   0.41377   0.82393   0.00000  Uiso   1.00
H119   H     0.58552   0.16272   0.85501   0.00000  Uiso   1.00
H120   H     0.59048   0.27143   0.51023   0.00000  Uiso   1.00
H121   H     0.19222   0.53383   0.87087   0.00000  Uiso   1.00
H122   H     0.49614   0.00445   0.93642   0.00000  Uiso   1.00
H123   H     0.21844   0.09499   0.72776   0.00000  Uiso   1.00
H124   H     0.15180   0.09054   0.60206   0.00000  Uiso   1.00
H125   H     0.43719   0.21500   0.77309   0.00000  Uiso   1.00
H126   H     0.10709   0.96395   0.80417   0.00000  Uiso   1.00
H127   H     0.01381   0.11010   0.46896   0.00000  Uiso   1.00
H128   H     0.61555   0.37251   0.82961   0.00000  Uiso   1.00
H129   H     0.91947   0.84312   0.89515   0.00000  Uiso   1.00
O130   O     0.74942   0.19126   0.40777   0.00000  Uiso   1.00
O131   O     0.53887   0.53552   0.88094   0.00000  Uiso   1.00
O132   O     0.62563   0.84098   0.96693   0.00000  Uiso   1.00
N133   N     0.69924   0.23405   0.51777   0.00000  Uiso   1.00
N134   N     0.26183   0.47939   0.85494   0.00000  Uiso   1.00
N135   N     0.61108   0.98447   0.91623   0.00000  Uiso   1.00
N136   N     0.92703   0.14724   0.49556   0.00000  Uiso   1.00
N137   N     0.48962   0.39258   0.83273   0.00000  Uiso   1.00
N138   N     0.83886   0.89766   0.89403   0.00000  Uiso   1.00
C139   C     0.16273   0.74025   0.73509   0.00000  Uiso   1.00
C140   C     0.14512   0.71731   0.80863   0.00000  Uiso   1.00
C141   C     0.25718   0.74640   0.85809   0.00000  Uiso   1.00
C142   C     0.21855   0.71804   0.92232   0.00000  Uiso   1.00
C143   C     0.21330   0.69090   0.03435   0.00000  Uiso   1.00
C144   C     0.99005   0.78494   0.71571   0.00000  Uiso   1.00
C145   C     0.97176   0.87088   0.68704   0.00000  Uiso   1.00
C146   C     0.80259   0.89944   0.67304   0.00000  Uiso   1.00
C147   C     0.55661   0.97727   0.64077   0.00000  Uiso   1.00
C148   C     0.16942   0.64854   0.69883   0.00000  Uiso   1.00
C149   C     0.30190   0.61979   0.65595   0.00000  Uiso   1.00
C150   C     0.28373   0.53352   0.62772   0.00000  Uiso   1.00
C151   C     0.31624   0.39956   0.56924   0.00000  Uiso   1.00
C152   C     0.89484   0.63816   0.76120   0.00000  Uiso   1.00
C153   C     0.99961   0.66187   0.82281   0.00000  Uiso   1.00
C154   C     0.96080   0.63345   0.88698   0.00000  Uiso   1.00
C155   C     0.07280   0.66249   0.93653   0.00000  Uiso   1.00
C156   C     0.84455   0.72950   0.72989   0.00000  Uiso   1.00
C157   C     0.67538   0.75793   0.71593   0.00000  Uiso   1.00
C158   C     0.65683   0.84389   0.68725   0.00000  Uiso   1.00
C159   C     0.02392   0.59309   0.71301   0.00000  Uiso   1.00
C160   C     0.00553   0.50684   0.68484   0.00000  Uiso   1.00
C161   C     0.13796   0.47797   0.64193   0.00000  Uiso   1.00
H162   H     0.27600   0.78342   0.72405   0.00000  Uiso   1.00
H163   H     0.36976   0.78932   0.84710   0.00000  Uiso   1.00
H164   H     0.08438   0.91377   0.67607   0.00000  Uiso   1.00
H165   H     0.41448   0.66272   0.64499   0.00000  Uiso   1.00
H166   H     0.40952   0.77143   0.98977   0.00000  Uiso   1.00
H167   H     0.80778   0.03383   0.62913   0.00000  Uiso   1.00
H168   H     0.50386   0.50445   0.56358   0.00000  Uiso   1.00
H169   H     0.78156   0.59499   0.77224   0.00000  Uiso   1.00
H170   H     0.84820   0.59054   0.89794   0.00000  Uiso   1.00
H171   H     0.56281   0.71500   0.72691   0.00000  Uiso   1.00
H172   H     0.89291   0.46395   0.69583   0.00000  Uiso   1.00
H173   H     0.98619   0.61010   0.03104   0.00000  Uiso   1.00
H174   H     0.38445   0.87251   0.67039   0.00000  Uiso   1.00
H175   H     0.08053   0.34312   0.60485   0.00000  Uiso   1.00
O176   O     0.25058   0.69126   0.09223   0.00000  Uiso   1.00
O177   O     0.46113   0.03552   0.61906   0.00000  Uiso   1.00
O178   O     0.37437   0.34098   0.53307   0.00000  Uiso   1.00
N179   N     0.30076   0.73405   0.98223   0.00000  Uiso   1.00
N180   N     0.73817   0.97939   0.64506   0.00000  Uiso   1.00
N181   N     0.38892   0.48447   0.58377   0.00000  Uiso   1.00
N182   N     0.07297   0.64724   0.00444   0.00000  Uiso   1.00
N183   N     0.51038   0.89258   0.66727   0.00000  Uiso   1.00
N184   N     0.16114   0.39766   0.60597   0.00000  Uiso   1.00
