data_job_03891
_audit_creation_date              2018-12-19
_audit_creation_method            'Materials Studio'
_symmetry_space_group_name_H-M    'P1'
_symmetry_Int_Tables_number       1
_symmetry_cell_setting            triclinic
loop_
_symmetry_equiv_pos_as_xyz
  x,y,z
_cell_length_a                    10.4645
_cell_length_b                    13.5762
_cell_length_c                    18.2151
_cell_angle_alpha                 90.0000
_cell_angle_beta                  90.0000
_cell_angle_gamma                 90.0000
loop_
_atom_site_label
_atom_site_type_symbol
_atom_site_fract_x
_atom_site_fract_y
_atom_site_fract_z
_atom_site_U_iso_or_equiv
_atom_site_adp_type
_atom_site_occupancy
C1     C     0.35519   0.19823   0.87628   0.00000  Uiso   1.00
C2     C     0.41348   0.22580   0.95021   0.00000  Uiso   1.00
C3     C     0.39754   0.31501   0.98626   0.00000  Uiso   1.00
C4     C     0.45880   0.32586   0.05338   0.00000  Uiso   1.00
C5     C     0.53803   0.38021   0.16360   0.00000  Uiso   1.00
C6     C     0.46689   0.16936   0.82701   0.00000  Uiso   1.00
C7     C     0.49584   0.21110   0.75948   0.00000  Uiso   1.00
C8     C     0.60207   0.17441   0.72289   0.00000  Uiso   1.00
C9     C     0.76416   0.14108   0.64182   0.00000  Uiso   1.00
C10    C     0.27921   0.10402   0.88938   0.00000  Uiso   1.00
C11    C     0.15035   0.09080   0.87427   0.00000  Uiso   1.00
C12    C     0.09856   0.99909   0.89018   0.00000  Uiso   1.00
C13    C     0.96925   0.86431   0.90594   0.00000  Uiso   1.00
C14    C     0.49234   0.05885   0.93138   0.00000  Uiso   1.00
C15    C     0.48798   0.15010   0.98013   0.00000  Uiso   1.00
C16    C     0.54928   0.16081   0.04722   0.00000  Uiso   1.00
C17    C     0.53343   0.25002   0.08337   0.00000  Uiso   1.00
C18    C     0.54139   0.09366   0.85694   0.00000  Uiso   1.00
C19    C     0.64759   0.05689   0.82044   0.00000  Uiso   1.00
C20    C     0.67670   0.09857   0.75287   0.00000  Uiso   1.00
C21    C     0.35370   0.02831   0.91931   0.00000  Uiso   1.00
C22    C     0.30210   0.93660   0.93523   0.00000  Uiso   1.00
C23    C     0.17319   0.92325   0.92016   0.00000  Uiso   1.00
H24    H     0.29720   0.25717   0.85298   0.00000  Uiso   1.00
H25    H     0.33989   0.37358   0.96308   0.00000  Uiso   1.00
H26    H     0.43817   0.26968   0.73633   0.00000  Uiso   1.00
H27    H     0.09274   0.14940   0.85111   0.00000  Uiso   1.00
H28    H     0.42011   0.46928   0.09833   0.00000  Uiso   1.00
H29    H     0.62732   0.25017   0.62021   0.00000  Uiso   1.00
H30    H     0.89890   0.99654   0.86224   0.00000  Uiso   1.00
H31    H     0.55035   0.99991   0.95468   0.00000  Uiso   1.00
H32    H     0.60692   0.10221   0.07037   0.00000  Uiso   1.00
H33    H     0.70521   0.99831   0.84361   0.00000  Uiso   1.00
H34    H     0.35978   0.87803   0.95839   0.00000  Uiso   1.00
H35    H     0.63685   0.24903   0.18541   0.00000  Uiso   1.00
H36    H     0.84405   0.02991   0.70728   0.00000  Uiso   1.00
H37    H     0.11564   0.77629   0.94932   0.00000  Uiso   1.00
O38    O     0.56116   0.43110   0.21612   0.00000  Uiso   1.00
O39    O     0.83299   0.14362   0.58884   0.00000  Uiso   1.00
O40    O     0.87733   0.81088   0.90638   0.00000  Uiso   1.00
N41    N     0.46333   0.40340   0.10296   0.00000  Uiso   1.00
N42    N     0.65707   0.19855   0.65594   0.00000  Uiso   1.00
N43    N     0.97607   0.96143   0.88221   0.00000  Uiso   1.00
N44    N     0.57996   0.28488   0.14981   0.00000  Uiso   1.00
N45    N     0.77370   0.08003   0.70280   0.00000  Uiso   1.00
N46    N     0.09270   0.84291   0.92906   0.00000  Uiso   1.00
C47    C     0.64481   0.80177   0.37628   0.00000  Uiso   1.00
C48    C     0.58652   0.77420   0.45021   0.00000  Uiso   1.00
C49    C     0.60246   0.68499   0.48626   0.00000  Uiso   1.00
C50    C     0.54120   0.67414   0.55338   0.00000  Uiso   1.00
C51    C     0.46197   0.61979   0.66360   0.00000  Uiso   1.00
C52    C     0.53311   0.83064   0.32701   0.00000  Uiso   1.00
C53    C     0.50416   0.78890   0.25948   0.00000  Uiso   1.00
C54    C     0.39793   0.82559   0.22289   0.00000  Uiso   1.00
C55    C     0.23584   0.85892   0.14182   0.00000  Uiso   1.00
C56    C     0.72079   0.89598   0.38938   0.00000  Uiso   1.00
C57    C     0.84965   0.90920   0.37427   0.00000  Uiso   1.00
C58    C     0.90144   0.00091   0.39018   0.00000  Uiso   1.00
C59    C     0.03075   0.13569   0.40594   0.00000  Uiso   1.00
C60    C     0.50766   0.94115   0.43138   0.00000  Uiso   1.00
C61    C     0.51202   0.84990   0.48013   0.00000  Uiso   1.00
C62    C     0.45072   0.83919   0.54722   0.00000  Uiso   1.00
C63    C     0.46657   0.74998   0.58337   0.00000  Uiso   1.00
C64    C     0.45861   0.90634   0.35694   0.00000  Uiso   1.00
C65    C     0.35241   0.94311   0.32044   0.00000  Uiso   1.00
C66    C     0.32330   0.90143   0.25287   0.00000  Uiso   1.00
C67    C     0.64630   0.97169   0.41931   0.00000  Uiso   1.00
C68    C     0.69790   0.06340   0.43523   0.00000  Uiso   1.00
C69    C     0.82681   0.07675   0.42016   0.00000  Uiso   1.00
H70    H     0.70280   0.74283   0.35298   0.00000  Uiso   1.00
H71    H     0.66011   0.62642   0.46308   0.00000  Uiso   1.00
H72    H     0.56183   0.73032   0.23633   0.00000  Uiso   1.00
H73    H     0.90726   0.85060   0.35111   0.00000  Uiso   1.00
H74    H     0.57989   0.53072   0.59833   0.00000  Uiso   1.00
H75    H     0.37268   0.74983   0.12021   0.00000  Uiso   1.00
H76    H     0.10110   0.00346   0.36224   0.00000  Uiso   1.00
H77    H     0.44965   0.00009   0.45468   0.00000  Uiso   1.00
H78    H     0.39308   0.89779   0.57037   0.00000  Uiso   1.00
H79    H     0.29479   0.00169   0.34361   0.00000  Uiso   1.00
H80    H     0.64022   0.12197   0.45839   0.00000  Uiso   1.00
H81    H     0.36315   0.75097   0.68541   0.00000  Uiso   1.00
H82    H     0.15595   0.97009   0.20728   0.00000  Uiso   1.00
H83    H     0.88436   0.22371   0.44932   0.00000  Uiso   1.00
O84    O     0.43884   0.56890   0.71612   0.00000  Uiso   1.00
O85    O     0.16701   0.85638   0.08884   0.00000  Uiso   1.00
O86    O     0.12267   0.18912   0.40638   0.00000  Uiso   1.00
N87    N     0.53667   0.59660   0.60296   0.00000  Uiso   1.00
N88    N     0.34293   0.80145   0.15594   0.00000  Uiso   1.00
N89    N     0.02393   0.03857   0.38221   0.00000  Uiso   1.00
N90    N     0.42004   0.71512   0.64981   0.00000  Uiso   1.00
N91    N     0.22630   0.91997   0.20280   0.00000  Uiso   1.00
N92    N     0.90730   0.15709   0.42906   0.00000  Uiso   1.00
C93    C     0.85519   0.30177   0.87628   0.00000  Uiso   1.00
C94    C     0.91348   0.27420   0.95021   0.00000  Uiso   1.00
C95    C     0.89754   0.18499   0.98626   0.00000  Uiso   1.00
C96    C     0.95880   0.17414   0.05338   0.00000  Uiso   1.00
C97    C     0.03803   0.11979   0.16360   0.00000  Uiso   1.00
C98    C     0.96689   0.33064   0.82701   0.00000  Uiso   1.00
C99    C     0.99584   0.28890   0.75948   0.00000  Uiso   1.00
C100   C     0.10207   0.32559   0.72289   0.00000  Uiso   1.00
C101   C     0.26416   0.35892   0.64182   0.00000  Uiso   1.00
C102   C     0.77921   0.39598   0.88938   0.00000  Uiso   1.00
C103   C     0.65035   0.40920   0.87427   0.00000  Uiso   1.00
C104   C     0.59856   0.50091   0.89018   0.00000  Uiso   1.00
C105   C     0.46925   0.63569   0.90594   0.00000  Uiso   1.00
C106   C     0.99234   0.44115   0.93138   0.00000  Uiso   1.00
C107   C     0.98798   0.34990   0.98013   0.00000  Uiso   1.00
C108   C     0.04928   0.33919   0.04722   0.00000  Uiso   1.00
C109   C     0.03343   0.24998   0.08337   0.00000  Uiso   1.00
C110   C     0.04139   0.40634   0.85694   0.00000  Uiso   1.00
C111   C     0.14759   0.44311   0.82044   0.00000  Uiso   1.00
C112   C     0.17670   0.40143   0.75287   0.00000  Uiso   1.00
C113   C     0.85370   0.47169   0.91931   0.00000  Uiso   1.00
C114   C     0.80210   0.56340   0.93523   0.00000  Uiso   1.00
C115   C     0.67319   0.57675   0.92016   0.00000  Uiso   1.00
H116   H     0.79720   0.24283   0.85298   0.00000  Uiso   1.00
H117   H     0.83989   0.12642   0.96308   0.00000  Uiso   1.00
H118   H     0.93817   0.23032   0.73633   0.00000  Uiso   1.00
H119   H     0.59274   0.35060   0.85111   0.00000  Uiso   1.00
H120   H     0.92011   0.03072   0.09833   0.00000  Uiso   1.00
H121   H     0.12732   0.24983   0.62021   0.00000  Uiso   1.00
H122   H     0.39890   0.50346   0.86224   0.00000  Uiso   1.00
H123   H     0.05035   0.50009   0.95468   0.00000  Uiso   1.00
H124   H     0.10692   0.39779   0.07037   0.00000  Uiso   1.00
H125   H     0.20521   0.50169   0.84361   0.00000  Uiso   1.00
H126   H     0.85978   0.62197   0.95839   0.00000  Uiso   1.00
H127   H     0.13685   0.25097   0.18541   0.00000  Uiso   1.00
H128   H     0.34405   0.47009   0.70728   0.00000  Uiso   1.00
H129   H     0.61564   0.72371   0.94932   0.00000  Uiso   1.00
O130   O     0.06116   0.06890   0.21612   0.00000  Uiso   1.00
O131   O     0.33299   0.35638   0.58884   0.00000  Uiso   1.00
O132   O     0.37733   0.68912   0.90638   0.00000  Uiso   1.00
N133   N     0.96333   0.09660   0.10296   0.00000  Uiso   1.00
N134   N     0.15707   0.30145   0.65594   0.00000  Uiso   1.00
N135   N     0.47607   0.53857   0.88221   0.00000  Uiso   1.00
N136   N     0.07996   0.21512   0.14981   0.00000  Uiso   1.00
N137   N     0.27370   0.41997   0.70280   0.00000  Uiso   1.00
N138   N     0.59270   0.65709   0.92906   0.00000  Uiso   1.00
C139   C     0.14481   0.69823   0.37628   0.00000  Uiso   1.00
C140   C     0.08652   0.72580   0.45021   0.00000  Uiso   1.00
C141   C     0.10246   0.81501   0.48626   0.00000  Uiso   1.00
C142   C     0.04120   0.82586   0.55338   0.00000  Uiso   1.00
C143   C     0.96197   0.88021   0.66360   0.00000  Uiso   1.00
C144   C     0.03311   0.66936   0.32701   0.00000  Uiso   1.00
C145   C     0.00416   0.71110   0.25948   0.00000  Uiso   1.00
C146   C     0.89793   0.67441   0.22289   0.00000  Uiso   1.00
C147   C     0.73584   0.64108   0.14182   0.00000  Uiso   1.00
C148   C     0.22079   0.60402   0.38938   0.00000  Uiso   1.00
C149   C     0.34965   0.59080   0.37427   0.00000  Uiso   1.00
C150   C     0.40144   0.49909   0.39018   0.00000  Uiso   1.00
C151   C     0.53075   0.36431   0.40594   0.00000  Uiso   1.00
C152   C     0.00766   0.55885   0.43138   0.00000  Uiso   1.00
C153   C     0.01202   0.65010   0.48013   0.00000  Uiso   1.00
C154   C     0.95072   0.66081   0.54722   0.00000  Uiso   1.00
C155   C     0.96657   0.75002   0.58337   0.00000  Uiso   1.00
C156   C     0.95861   0.59366   0.35694   0.00000  Uiso   1.00
C157   C     0.85241   0.55689   0.32044   0.00000  Uiso   1.00
C158   C     0.82330   0.59857   0.25287   0.00000  Uiso   1.00
C159   C     0.14630   0.52831   0.41931   0.00000  Uiso   1.00
C160   C     0.19790   0.43660   0.43523   0.00000  Uiso   1.00
C161   C     0.32681   0.42325   0.42016   0.00000  Uiso   1.00
H162   H     0.20280   0.75717   0.35298   0.00000  Uiso   1.00
H163   H     0.16011   0.87358   0.46308   0.00000  Uiso   1.00
H164   H     0.06183   0.76968   0.23633   0.00000  Uiso   1.00
H165   H     0.40726   0.64940   0.35111   0.00000  Uiso   1.00
H166   H     0.07989   0.96928   0.59833   0.00000  Uiso   1.00
H167   H     0.87268   0.75017   0.12021   0.00000  Uiso   1.00
H168   H     0.60110   0.49654   0.36224   0.00000  Uiso   1.00
H169   H     0.94965   0.49991   0.45468   0.00000  Uiso   1.00
H170   H     0.89308   0.60221   0.57037   0.00000  Uiso   1.00
H171   H     0.79479   0.49831   0.34361   0.00000  Uiso   1.00
H172   H     0.14022   0.37803   0.45839   0.00000  Uiso   1.00
H173   H     0.86315   0.74903   0.68541   0.00000  Uiso   1.00
H174   H     0.65595   0.52991   0.20728   0.00000  Uiso   1.00
H175   H     0.38436   0.27629   0.44932   0.00000  Uiso   1.00
O176   O     0.93884   0.93110   0.71612   0.00000  Uiso   1.00
O177   O     0.66701   0.64362   0.08884   0.00000  Uiso   1.00
O178   O     0.62267   0.31088   0.40638   0.00000  Uiso   1.00
N179   N     0.03667   0.90340   0.60296   0.00000  Uiso   1.00
N180   N     0.84293   0.69855   0.15594   0.00000  Uiso   1.00
N181   N     0.52393   0.46143   0.38221   0.00000  Uiso   1.00
N182   N     0.92004   0.78488   0.64981   0.00000  Uiso   1.00
N183   N     0.72630   0.58003   0.20280   0.00000  Uiso   1.00
N184   N     0.40730   0.34291   0.42906   0.00000  Uiso   1.00
