data_job_05585
_audit_creation_date              2018-12-19
_audit_creation_method            'Materials Studio'
_symmetry_space_group_name_H-M    'P1'
_symmetry_Int_Tables_number       1
_symmetry_cell_setting            triclinic
loop_
_symmetry_equiv_pos_as_xyz
  x,y,z
_cell_length_a                    19.5625
_cell_length_b                    19.5625
_cell_length_c                    12.4913
_cell_angle_alpha                 90.0000
_cell_angle_beta                  90.0000
_cell_angle_gamma                 90.0000
loop_
_atom_site_label
_atom_site_type_symbol
_atom_site_fract_x
_atom_site_fract_y
_atom_site_fract_z
_atom_site_U_iso_or_equiv
_atom_site_adp_type
_atom_site_occupancy
C1     C     0.19544   0.05515   0.40458   0.00000  Uiso   1.00
C2     C     0.25040   0.02765   0.32949   0.00000  Uiso   1.00
C3     C     0.27579   0.06086   0.23974   0.00000  Uiso   1.00
C4     C     0.32596   0.02714   0.18150   0.00000  Uiso   1.00
C5     C     0.40765   0.99425   0.06024   0.00000  Uiso   1.00
C6     C     0.13906   0.00132   0.40653   0.00000  Uiso   1.00
C7     C     0.07083   0.01242   0.38156   0.00000  Uiso   1.00
C8     C     0.02727   0.95654   0.38819   0.00000  Uiso   1.00
C9     C     0.93609   0.88280   0.38661   0.00000  Uiso   1.00
C10    C     0.22697   0.05495   0.51622   0.00000  Uiso   1.00
C11    C     0.23263   0.11113   0.58349   0.00000  Uiso   1.00
C12    C     0.26307   0.10040   0.68248   0.00000  Uiso   1.00
C13    C     0.30838   0.10992   0.85120   0.00000  Uiso   1.00
C14    C     0.23940   0.93620   0.46078   0.00000  Uiso   1.00
C15    C     0.27428   0.96303   0.36002   0.00000  Uiso   1.00
C16    C     0.32443   0.92925   0.30192   0.00000  Uiso   1.00
C17    C     0.34989   0.96242   0.21209   0.00000  Uiso   1.00
C18    C     0.16294   0.93672   0.43706   0.00000  Uiso   1.00
C19    C     0.11947   0.88081   0.44374   0.00000  Uiso   1.00
C20    C     0.05119   0.89181   0.41877   0.00000  Uiso   1.00
C21    C     0.25085   0.99034   0.54675   0.00000  Uiso   1.00
C22    C     0.28128   0.97952   0.64566   0.00000  Uiso   1.00
C23    C     0.28700   0.03567   0.71307   0.00000  Uiso   1.00
H24    H     0.17684   0.10545   0.38081   0.00000  Uiso   1.00
H25    H     0.25729   0.11086   0.21613   0.00000  Uiso   1.00
H26    H     0.05236   0.06242   0.35795   0.00000  Uiso   1.00
H27    H     0.21414   0.16112   0.55984   0.00000  Uiso   1.00
H28    H     0.35699   0.08836   0.04699   0.00000  Uiso   1.00
H29    H     0.92489   0.98623   0.34605   0.00000  Uiso   1.00
H30    H     0.26604   0.19435   0.77178   0.00000  Uiso   1.00
H31    H     0.25800   0.88589   0.48455   0.00000  Uiso   1.00
H32    H     0.34291   0.87926   0.32556   0.00000  Uiso   1.00
H33    H     0.13797   0.83082   0.46737   0.00000  Uiso   1.00
H34    H     0.29976   0.92952   0.66926   0.00000  Uiso   1.00
H35    H     0.42648   0.90038   0.13580   0.00000  Uiso   1.00
H36    H     0.99437   0.79825   0.43486   0.00000  Uiso   1.00
H37    H     0.33553   0.00637   0.86059   0.00000  Uiso   1.00
O38    O     0.44611   0.99395   0.98492   0.00000  Uiso   1.00
O39    O     0.87920   0.85997   0.37729   0.00000  Uiso   1.00
O40    O     0.32679   0.13302   0.93583   0.00000  Uiso   1.00
N41    N     0.36171   0.04503   0.08973   0.00000  Uiso   1.00
N42    N     0.95771   0.94955   0.36931   0.00000  Uiso   1.00
N43    N     0.27664   0.14412   0.76734   0.00000  Uiso   1.00
N44    N     0.39910   0.94388   0.13752   0.00000  Uiso   1.00
N45    N     0.99511   0.84840   0.41710   0.00000  Uiso   1.00
N46    N     0.31404   0.04297   0.81513   0.00000  Uiso   1.00
C47    C     0.80456   0.94485   0.90458   0.00000  Uiso   1.00
C48    C     0.74960   0.97235   0.82949   0.00000  Uiso   1.00
C49    C     0.72421   0.93914   0.73974   0.00000  Uiso   1.00
C50    C     0.67404   0.97286   0.68150   0.00000  Uiso   1.00
C51    C     0.59235   0.00575   0.56024   0.00000  Uiso   1.00
C52    C     0.86094   0.99868   0.90653   0.00000  Uiso   1.00
C53    C     0.92917   0.98758   0.88156   0.00000  Uiso   1.00
C54    C     0.97273   0.04346   0.88819   0.00000  Uiso   1.00
C55    C     0.06391   0.11720   0.88661   0.00000  Uiso   1.00
C56    C     0.77303   0.94505   0.01622   0.00000  Uiso   1.00
C57    C     0.76737   0.88887   0.08349   0.00000  Uiso   1.00
C58    C     0.73693   0.89960   0.18248   0.00000  Uiso   1.00
C59    C     0.69162   0.89008   0.35120   0.00000  Uiso   1.00
C60    C     0.76060   0.06380   0.96078   0.00000  Uiso   1.00
C61    C     0.72572   0.03697   0.86002   0.00000  Uiso   1.00
C62    C     0.67557   0.07075   0.80192   0.00000  Uiso   1.00
C63    C     0.65011   0.03758   0.71209   0.00000  Uiso   1.00
C64    C     0.83706   0.06328   0.93706   0.00000  Uiso   1.00
C65    C     0.88053   0.11919   0.94374   0.00000  Uiso   1.00
C66    C     0.94881   0.10819   0.91877   0.00000  Uiso   1.00
C67    C     0.74915   0.00966   0.04675   0.00000  Uiso   1.00
C68    C     0.71872   0.02048   0.14566   0.00000  Uiso   1.00
C69    C     0.71300   0.96433   0.21307   0.00000  Uiso   1.00
H70    H     0.82316   0.89455   0.88081   0.00000  Uiso   1.00
H71    H     0.74271   0.88914   0.71613   0.00000  Uiso   1.00
H72    H     0.94764   0.93758   0.85795   0.00000  Uiso   1.00
H73    H     0.78586   0.83888   0.05984   0.00000  Uiso   1.00
H74    H     0.64301   0.91164   0.54699   0.00000  Uiso   1.00
H75    H     0.07511   0.01377   0.84605   0.00000  Uiso   1.00
H76    H     0.73396   0.80565   0.27178   0.00000  Uiso   1.00
H77    H     0.74200   0.11411   0.98455   0.00000  Uiso   1.00
H78    H     0.65709   0.12074   0.82556   0.00000  Uiso   1.00
H79    H     0.86203   0.16918   0.96737   0.00000  Uiso   1.00
H80    H     0.70024   0.07048   0.16926   0.00000  Uiso   1.00
H81    H     0.57352   0.09962   0.63580   0.00000  Uiso   1.00
H82    H     0.00563   0.20175   0.93486   0.00000  Uiso   1.00
H83    H     0.66447   0.99363   0.36059   0.00000  Uiso   1.00
O84    O     0.55389   0.00605   0.48492   0.00000  Uiso   1.00
O85    O     0.12080   0.14003   0.87729   0.00000  Uiso   1.00
O86    O     0.67321   0.86698   0.43583   0.00000  Uiso   1.00
N87    N     0.63829   0.95497   0.58973   0.00000  Uiso   1.00
N88    N     0.04229   0.05045   0.86931   0.00000  Uiso   1.00
N89    N     0.72336   0.85588   0.26734   0.00000  Uiso   1.00
N90    N     0.60090   0.05612   0.63752   0.00000  Uiso   1.00
N91    N     0.00489   0.15160   0.91710   0.00000  Uiso   1.00
N92    N     0.68596   0.95703   0.31513   0.00000  Uiso   1.00
C93    C     0.44485   0.69544   0.15458   0.00000  Uiso   1.00
C94    C     0.47235   0.75040   0.07949   0.00000  Uiso   1.00
C95    C     0.43914   0.77579   0.98974   0.00000  Uiso   1.00
C96    C     0.47286   0.82596   0.93150   0.00000  Uiso   1.00
C97    C     0.50575   0.90765   0.81024   0.00000  Uiso   1.00
C98    C     0.49868   0.63906   0.15653   0.00000  Uiso   1.00
C99    C     0.48758   0.57083   0.13156   0.00000  Uiso   1.00
C100   C     0.54346   0.52727   0.13819   0.00000  Uiso   1.00
C101   C     0.61720   0.43609   0.13661   0.00000  Uiso   1.00
C102   C     0.44505   0.72697   0.26622   0.00000  Uiso   1.00
C103   C     0.38887   0.73263   0.33349   0.00000  Uiso   1.00
C104   C     0.39960   0.76307   0.43248   0.00000  Uiso   1.00
C105   C     0.39008   0.80838   0.60120   0.00000  Uiso   1.00
C106   C     0.56380   0.73940   0.21078   0.00000  Uiso   1.00
C107   C     0.53697   0.77428   0.11002   0.00000  Uiso   1.00
C108   C     0.57075   0.82443   0.05192   0.00000  Uiso   1.00
C109   C     0.53758   0.84989   0.96209   0.00000  Uiso   1.00
C110   C     0.56328   0.66294   0.18706   0.00000  Uiso   1.00
C111   C     0.61919   0.61947   0.19374   0.00000  Uiso   1.00
C112   C     0.60819   0.55119   0.16877   0.00000  Uiso   1.00
C113   C     0.50966   0.75085   0.29675   0.00000  Uiso   1.00
C114   C     0.52048   0.78128   0.39566   0.00000  Uiso   1.00
C115   C     0.46433   0.78700   0.46307   0.00000  Uiso   1.00
H116   H     0.39455   0.67684   0.13081   0.00000  Uiso   1.00
H117   H     0.38914   0.75729   0.96613   0.00000  Uiso   1.00
H118   H     0.43758   0.55236   0.10795   0.00000  Uiso   1.00
H119   H     0.33888   0.71414   0.30984   0.00000  Uiso   1.00
H120   H     0.41164   0.85699   0.79699   0.00000  Uiso   1.00
H121   H     0.51377   0.42489   0.09605   0.00000  Uiso   1.00
H122   H     0.30565   0.76604   0.52178   0.00000  Uiso   1.00
H123   H     0.61411   0.75800   0.23455   0.00000  Uiso   1.00
H124   H     0.62074   0.84291   0.07556   0.00000  Uiso   1.00
H125   H     0.66918   0.63797   0.21737   0.00000  Uiso   1.00
H126   H     0.57048   0.79976   0.41926   0.00000  Uiso   1.00
H127   H     0.59962   0.92648   0.88580   0.00000  Uiso   1.00
H128   H     0.70175   0.49437   0.18486   0.00000  Uiso   1.00
H129   H     0.49363   0.83553   0.61059   0.00000  Uiso   1.00
O130   O     0.50605   0.94611   0.73492   0.00000  Uiso   1.00
O131   O     0.64003   0.37920   0.12729   0.00000  Uiso   1.00
O132   O     0.36698   0.82679   0.68583   0.00000  Uiso   1.00
N133   N     0.45497   0.86171   0.83973   0.00000  Uiso   1.00
N134   N     0.55045   0.45771   0.11931   0.00000  Uiso   1.00
N135   N     0.35588   0.77664   0.51734   0.00000  Uiso   1.00
N136   N     0.55612   0.89910   0.88752   0.00000  Uiso   1.00
N137   N     0.65160   0.49511   0.16710   0.00000  Uiso   1.00
N138   N     0.45703   0.81404   0.56513   0.00000  Uiso   1.00
C139   C     0.55515   0.30456   0.65458   0.00000  Uiso   1.00
C140   C     0.52765   0.24960   0.57949   0.00000  Uiso   1.00
C141   C     0.56086   0.22421   0.48974   0.00000  Uiso   1.00
C142   C     0.52714   0.17404   0.43150   0.00000  Uiso   1.00
C143   C     0.49425   0.09235   0.31024   0.00000  Uiso   1.00
C144   C     0.50132   0.36094   0.65653   0.00000  Uiso   1.00
C145   C     0.51242   0.42917   0.63156   0.00000  Uiso   1.00
C146   C     0.45654   0.47273   0.63819   0.00000  Uiso   1.00
C147   C     0.38280   0.56391   0.63661   0.00000  Uiso   1.00
C148   C     0.55495   0.27303   0.76622   0.00000  Uiso   1.00
C149   C     0.61113   0.26737   0.83349   0.00000  Uiso   1.00
C150   C     0.60040   0.23693   0.93248   0.00000  Uiso   1.00
C151   C     0.60992   0.19162   0.10120   0.00000  Uiso   1.00
C152   C     0.43620   0.26060   0.71078   0.00000  Uiso   1.00
C153   C     0.46303   0.22572   0.61002   0.00000  Uiso   1.00
C154   C     0.42925   0.17557   0.55192   0.00000  Uiso   1.00
C155   C     0.46242   0.15011   0.46209   0.00000  Uiso   1.00
C156   C     0.43672   0.33706   0.68706   0.00000  Uiso   1.00
C157   C     0.38081   0.38053   0.69374   0.00000  Uiso   1.00
C158   C     0.39181   0.44881   0.66877   0.00000  Uiso   1.00
C159   C     0.49034   0.24915   0.79675   0.00000  Uiso   1.00
C160   C     0.47952   0.21872   0.89566   0.00000  Uiso   1.00
C161   C     0.53567   0.21300   0.96307   0.00000  Uiso   1.00
H162   H     0.60545   0.32316   0.63081   0.00000  Uiso   1.00
H163   H     0.61086   0.24271   0.46613   0.00000  Uiso   1.00
H164   H     0.56242   0.44764   0.60795   0.00000  Uiso   1.00
H165   H     0.66112   0.28586   0.80984   0.00000  Uiso   1.00
H166   H     0.58836   0.14301   0.29699   0.00000  Uiso   1.00
H167   H     0.48623   0.57511   0.59605   0.00000  Uiso   1.00
H168   H     0.69435   0.23396   0.02178   0.00000  Uiso   1.00
H169   H     0.38589   0.24200   0.73455   0.00000  Uiso   1.00
H170   H     0.37926   0.15709   0.57556   0.00000  Uiso   1.00
H171   H     0.33082   0.36203   0.71737   0.00000  Uiso   1.00
H172   H     0.42952   0.20024   0.91926   0.00000  Uiso   1.00
H173   H     0.40038   0.07352   0.38580   0.00000  Uiso   1.00
H174   H     0.29825   0.50563   0.68486   0.00000  Uiso   1.00
H175   H     0.50637   0.16447   0.11059   0.00000  Uiso   1.00
O176   O     0.49395   0.05389   0.23492   0.00000  Uiso   1.00
O177   O     0.35997   0.62080   0.62729   0.00000  Uiso   1.00
O178   O     0.63302   0.17321   0.18583   0.00000  Uiso   1.00
N179   N     0.54503   0.13829   0.33973   0.00000  Uiso   1.00
N180   N     0.44955   0.54229   0.61931   0.00000  Uiso   1.00
N181   N     0.64412   0.22336   0.01734   0.00000  Uiso   1.00
N182   N     0.44388   0.10090   0.38752   0.00000  Uiso   1.00
N183   N     0.34840   0.50489   0.66710   0.00000  Uiso   1.00
N184   N     0.54297   0.18596   0.06513   0.00000  Uiso   1.00
C185   C     0.30456   0.55515   0.34542   0.00000  Uiso   1.00
C186   C     0.24960   0.52765   0.42051   0.00000  Uiso   1.00
C187   C     0.22421   0.56086   0.51026   0.00000  Uiso   1.00
C188   C     0.17404   0.52714   0.56850   0.00000  Uiso   1.00
C189   C     0.09235   0.49425   0.68976   0.00000  Uiso   1.00
C190   C     0.36094   0.50132   0.34347   0.00000  Uiso   1.00
C191   C     0.42917   0.51242   0.36844   0.00000  Uiso   1.00
C192   C     0.47273   0.45654   0.36181   0.00000  Uiso   1.00
C193   C     0.56391   0.38280   0.36339   0.00000  Uiso   1.00
C194   C     0.27303   0.55495   0.23378   0.00000  Uiso   1.00
C195   C     0.26737   0.61113   0.16651   0.00000  Uiso   1.00
C196   C     0.23693   0.60040   0.06752   0.00000  Uiso   1.00
C197   C     0.19162   0.60992   0.89880   0.00000  Uiso   1.00
C198   C     0.26060   0.43620   0.28922   0.00000  Uiso   1.00
C199   C     0.22572   0.46303   0.38998   0.00000  Uiso   1.00
C200   C     0.17557   0.42925   0.44808   0.00000  Uiso   1.00
C201   C     0.15011   0.46242   0.53791   0.00000  Uiso   1.00
C202   C     0.33706   0.43672   0.31294   0.00000  Uiso   1.00
C203   C     0.38053   0.38081   0.30626   0.00000  Uiso   1.00
C204   C     0.44881   0.39181   0.33123   0.00000  Uiso   1.00
C205   C     0.24915   0.49034   0.20325   0.00000  Uiso   1.00
C206   C     0.21872   0.47952   0.10434   0.00000  Uiso   1.00
C207   C     0.21300   0.53567   0.03693   0.00000  Uiso   1.00
H208   H     0.32316   0.60545   0.36919   0.00000  Uiso   1.00
H209   H     0.24271   0.61086   0.53387   0.00000  Uiso   1.00
H210   H     0.44764   0.56242   0.39205   0.00000  Uiso   1.00
H211   H     0.28586   0.66112   0.19016   0.00000  Uiso   1.00
H212   H     0.14301   0.58836   0.70301   0.00000  Uiso   1.00
H213   H     0.57511   0.48623   0.40395   0.00000  Uiso   1.00
H214   H     0.23396   0.69435   0.97822   0.00000  Uiso   1.00
H215   H     0.24200   0.38589   0.26545   0.00000  Uiso   1.00
H216   H     0.15709   0.37926   0.42444   0.00000  Uiso   1.00
H217   H     0.36203   0.33082   0.28263   0.00000  Uiso   1.00
H218   H     0.20024   0.42952   0.08074   0.00000  Uiso   1.00
H219   H     0.07352   0.40038   0.61420   0.00000  Uiso   1.00
H220   H     0.50563   0.29825   0.31514   0.00000  Uiso   1.00
H221   H     0.16447   0.50637   0.88941   0.00000  Uiso   1.00
O222   O     0.05389   0.49395   0.76508   0.00000  Uiso   1.00
O223   O     0.62080   0.35997   0.37271   0.00000  Uiso   1.00
O224   O     0.17321   0.63302   0.81417   0.00000  Uiso   1.00
N225   N     0.13829   0.54503   0.66027   0.00000  Uiso   1.00
N226   N     0.54229   0.44955   0.38069   0.00000  Uiso   1.00
N227   N     0.22336   0.64412   0.98266   0.00000  Uiso   1.00
N228   N     0.10090   0.44388   0.61248   0.00000  Uiso   1.00
N229   N     0.50489   0.34840   0.33290   0.00000  Uiso   1.00
N230   N     0.18596   0.54297   0.93487   0.00000  Uiso   1.00
C231   C     0.69544   0.44485   0.84542   0.00000  Uiso   1.00
C232   C     0.75040   0.47235   0.92051   0.00000  Uiso   1.00
C233   C     0.77579   0.43914   0.01026   0.00000  Uiso   1.00
C234   C     0.82596   0.47286   0.06850   0.00000  Uiso   1.00
C235   C     0.90765   0.50575   0.18976   0.00000  Uiso   1.00
C236   C     0.63906   0.49868   0.84347   0.00000  Uiso   1.00
C237   C     0.57083   0.48758   0.86844   0.00000  Uiso   1.00
C238   C     0.52727   0.54346   0.86181   0.00000  Uiso   1.00
C239   C     0.43609   0.61720   0.86339   0.00000  Uiso   1.00
C240   C     0.72697   0.44505   0.73378   0.00000  Uiso   1.00
C241   C     0.73263   0.38887   0.66651   0.00000  Uiso   1.00
C242   C     0.76307   0.39960   0.56752   0.00000  Uiso   1.00
C243   C     0.80838   0.39008   0.39880   0.00000  Uiso   1.00
C244   C     0.73940   0.56380   0.78922   0.00000  Uiso   1.00
C245   C     0.77428   0.53697   0.88998   0.00000  Uiso   1.00
C246   C     0.82443   0.57075   0.94808   0.00000  Uiso   1.00
C247   C     0.84989   0.53758   0.03791   0.00000  Uiso   1.00
C248   C     0.66294   0.56328   0.81294   0.00000  Uiso   1.00
C249   C     0.61947   0.61919   0.80626   0.00000  Uiso   1.00
C250   C     0.55119   0.60819   0.83123   0.00000  Uiso   1.00
C251   C     0.75085   0.50966   0.70325   0.00000  Uiso   1.00
C252   C     0.78128   0.52048   0.60434   0.00000  Uiso   1.00
C253   C     0.78700   0.46433   0.53693   0.00000  Uiso   1.00
H254   H     0.67684   0.39455   0.86919   0.00000  Uiso   1.00
H255   H     0.75729   0.38914   0.03387   0.00000  Uiso   1.00
H256   H     0.55236   0.43758   0.89205   0.00000  Uiso   1.00
H257   H     0.71414   0.33888   0.69016   0.00000  Uiso   1.00
H258   H     0.85699   0.41164   0.20301   0.00000  Uiso   1.00
H259   H     0.42489   0.51377   0.90395   0.00000  Uiso   1.00
H260   H     0.76604   0.30565   0.47822   0.00000  Uiso   1.00
H261   H     0.75800   0.61411   0.76545   0.00000  Uiso   1.00
H262   H     0.84291   0.62074   0.92444   0.00000  Uiso   1.00
H263   H     0.63797   0.66918   0.78263   0.00000  Uiso   1.00
H264   H     0.79976   0.57048   0.58074   0.00000  Uiso   1.00
H265   H     0.92648   0.59962   0.11420   0.00000  Uiso   1.00
H266   H     0.49437   0.70175   0.81514   0.00000  Uiso   1.00
H267   H     0.83553   0.49363   0.38941   0.00000  Uiso   1.00
O268   O     0.94611   0.50605   0.26508   0.00000  Uiso   1.00
O269   O     0.37920   0.64003   0.87271   0.00000  Uiso   1.00
O270   O     0.82679   0.36698   0.31417   0.00000  Uiso   1.00
N271   N     0.86171   0.45497   0.16027   0.00000  Uiso   1.00
N272   N     0.45771   0.55045   0.88069   0.00000  Uiso   1.00
N273   N     0.77664   0.35588   0.48266   0.00000  Uiso   1.00
N274   N     0.89910   0.55612   0.11248   0.00000  Uiso   1.00
N275   N     0.49511   0.65160   0.83290   0.00000  Uiso   1.00
N276   N     0.81404   0.45703   0.43487   0.00000  Uiso   1.00
C277   C     0.05515   0.19544   0.59542   0.00000  Uiso   1.00
C278   C     0.02765   0.25040   0.67051   0.00000  Uiso   1.00
C279   C     0.06086   0.27579   0.76026   0.00000  Uiso   1.00
C280   C     0.02714   0.32596   0.81850   0.00000  Uiso   1.00
C281   C     0.99425   0.40765   0.93976   0.00000  Uiso   1.00
C282   C     0.00132   0.13906   0.59347   0.00000  Uiso   1.00
C283   C     0.01242   0.07083   0.61844   0.00000  Uiso   1.00
C284   C     0.95654   0.02727   0.61181   0.00000  Uiso   1.00
C285   C     0.88280   0.93609   0.61339   0.00000  Uiso   1.00
C286   C     0.05495   0.22697   0.48378   0.00000  Uiso   1.00
C287   C     0.11113   0.23263   0.41651   0.00000  Uiso   1.00
C288   C     0.10040   0.26307   0.31752   0.00000  Uiso   1.00
C289   C     0.10992   0.30838   0.14880   0.00000  Uiso   1.00
C290   C     0.93620   0.23940   0.53922   0.00000  Uiso   1.00
C291   C     0.96303   0.27428   0.63998   0.00000  Uiso   1.00
C292   C     0.92925   0.32443   0.69808   0.00000  Uiso   1.00
C293   C     0.96242   0.34989   0.78791   0.00000  Uiso   1.00
C294   C     0.93672   0.16294   0.56294   0.00000  Uiso   1.00
C295   C     0.88081   0.11947   0.55626   0.00000  Uiso   1.00
C296   C     0.89181   0.05119   0.58123   0.00000  Uiso   1.00
C297   C     0.99034   0.25085   0.45325   0.00000  Uiso   1.00
C298   C     0.97952   0.28128   0.35434   0.00000  Uiso   1.00
C299   C     0.03567   0.28700   0.28693   0.00000  Uiso   1.00
H300   H     0.10545   0.17684   0.61919   0.00000  Uiso   1.00
H301   H     0.11086   0.25729   0.78387   0.00000  Uiso   1.00
H302   H     0.06242   0.05236   0.64205   0.00000  Uiso   1.00
H303   H     0.16112   0.21414   0.44016   0.00000  Uiso   1.00
H304   H     0.08836   0.35699   0.95301   0.00000  Uiso   1.00
H305   H     0.98623   0.92489   0.65395   0.00000  Uiso   1.00
H306   H     0.19435   0.26604   0.22822   0.00000  Uiso   1.00
H307   H     0.88589   0.25800   0.51545   0.00000  Uiso   1.00
H308   H     0.87926   0.34291   0.67444   0.00000  Uiso   1.00
H309   H     0.83082   0.13797   0.53263   0.00000  Uiso   1.00
H310   H     0.92952   0.29976   0.33074   0.00000  Uiso   1.00
H311   H     0.90038   0.42648   0.86420   0.00000  Uiso   1.00
H312   H     0.79825   0.99437   0.56514   0.00000  Uiso   1.00
H313   H     0.00637   0.33553   0.13941   0.00000  Uiso   1.00
O314   O     0.99395   0.44611   0.01508   0.00000  Uiso   1.00
O315   O     0.85997   0.87920   0.62271   0.00000  Uiso   1.00
O316   O     0.13302   0.32679   0.06417   0.00000  Uiso   1.00
N317   N     0.04503   0.36171   0.91027   0.00000  Uiso   1.00
N318   N     0.94955   0.95771   0.63069   0.00000  Uiso   1.00
N319   N     0.14412   0.27664   0.23266   0.00000  Uiso   1.00
N320   N     0.94388   0.39910   0.86248   0.00000  Uiso   1.00
N321   N     0.84840   0.99511   0.58290   0.00000  Uiso   1.00
N322   N     0.04297   0.31404   0.18487   0.00000  Uiso   1.00
C323   C     0.94485   0.80456   0.09542   0.00000  Uiso   1.00
C324   C     0.97235   0.74960   0.17051   0.00000  Uiso   1.00
C325   C     0.93914   0.72421   0.26026   0.00000  Uiso   1.00
C326   C     0.97286   0.67404   0.31850   0.00000  Uiso   1.00
C327   C     0.00575   0.59235   0.43976   0.00000  Uiso   1.00
C328   C     0.99868   0.86094   0.09347   0.00000  Uiso   1.00
C329   C     0.98758   0.92917   0.11844   0.00000  Uiso   1.00
C330   C     0.04346   0.97273   0.11181   0.00000  Uiso   1.00
C331   C     0.11720   0.06391   0.11339   0.00000  Uiso   1.00
C332   C     0.94505   0.77303   0.98378   0.00000  Uiso   1.00
C333   C     0.88887   0.76737   0.91651   0.00000  Uiso   1.00
C334   C     0.89960   0.73693   0.81752   0.00000  Uiso   1.00
C335   C     0.89008   0.69162   0.64880   0.00000  Uiso   1.00
C336   C     0.06380   0.76060   0.03922   0.00000  Uiso   1.00
C337   C     0.03697   0.72572   0.13998   0.00000  Uiso   1.00
C338   C     0.07075   0.67557   0.19808   0.00000  Uiso   1.00
C339   C     0.03758   0.65011   0.28791   0.00000  Uiso   1.00
C340   C     0.06328   0.83706   0.06294   0.00000  Uiso   1.00
C341   C     0.11919   0.88053   0.05626   0.00000  Uiso   1.00
C342   C     0.10819   0.94881   0.08123   0.00000  Uiso   1.00
C343   C     0.00966   0.74915   0.95325   0.00000  Uiso   1.00
C344   C     0.02048   0.71872   0.85434   0.00000  Uiso   1.00
C345   C     0.96433   0.71300   0.78693   0.00000  Uiso   1.00
H346   H     0.89455   0.82316   0.11919   0.00000  Uiso   1.00
H347   H     0.88914   0.74271   0.28387   0.00000  Uiso   1.00
H348   H     0.93758   0.94764   0.14205   0.00000  Uiso   1.00
H349   H     0.83888   0.78586   0.94016   0.00000  Uiso   1.00
H350   H     0.91164   0.64301   0.45301   0.00000  Uiso   1.00
H351   H     0.01377   0.07511   0.15395   0.00000  Uiso   1.00
H352   H     0.80565   0.73396   0.72822   0.00000  Uiso   1.00
H353   H     0.11411   0.74200   0.01545   0.00000  Uiso   1.00
H354   H     0.12074   0.65709   0.17444   0.00000  Uiso   1.00
H355   H     0.16918   0.86203   0.03263   0.00000  Uiso   1.00
H356   H     0.07048   0.70024   0.83074   0.00000  Uiso   1.00
H357   H     0.09962   0.57352   0.36420   0.00000  Uiso   1.00
H358   H     0.20175   0.00563   0.06514   0.00000  Uiso   1.00
H359   H     0.99363   0.66447   0.63941   0.00000  Uiso   1.00
O360   O     0.00605   0.55389   0.51508   0.00000  Uiso   1.00
O361   O     0.14003   0.12080   0.12271   0.00000  Uiso   1.00
O362   O     0.86698   0.67321   0.56417   0.00000  Uiso   1.00
N363   N     0.95497   0.63829   0.41027   0.00000  Uiso   1.00
N364   N     0.05045   0.04229   0.13069   0.00000  Uiso   1.00
N365   N     0.85588   0.72336   0.73266   0.00000  Uiso   1.00
N366   N     0.05612   0.60090   0.36248   0.00000  Uiso   1.00
N367   N     0.15160   0.00489   0.08290   0.00000  Uiso   1.00
N368   N     0.95703   0.68596   0.68487   0.00000  Uiso   1.00
