data_job_07059
_audit_creation_date              2018-12-19
_audit_creation_method            'Materials Studio'
_symmetry_space_group_name_H-M    'P1'
_symmetry_Int_Tables_number       1
_symmetry_cell_setting            triclinic
loop_
_symmetry_equiv_pos_as_xyz
  x,y,z
_cell_length_a                    18.7008
_cell_length_b                    23.5870
_cell_length_c                    24.2288
_cell_angle_alpha                 96.5839
_cell_angle_beta                  107.4032
_cell_angle_gamma                 111.8568
loop_
_atom_site_label
_atom_site_type_symbol
_atom_site_fract_x
_atom_site_fract_y
_atom_site_fract_z
_atom_site_U_iso_or_equiv
_atom_site_adp_type
_atom_site_occupancy
C1     C     0.09046   0.41426   0.27739   0.00000  Uiso   1.00
C2     C     0.01823   0.41168   0.22523   0.00000  Uiso   1.00
C3     C     0.01050   0.40224   0.16574   0.00000  Uiso   1.00
C4     C     0.93976   0.40145   0.12476   0.00000  Uiso   1.00
C5     C     0.83688   0.39621   0.04105   0.00000  Uiso   1.00
C6     C     0.12406   0.47766   0.32207   0.00000  Uiso   1.00
C7     C     0.20531   0.52369   0.34400   0.00000  Uiso   1.00
C8     C     0.22366   0.57844   0.38455   0.00000  Uiso   1.00
C9     C     0.28508   0.67561   0.45121   0.00000  Uiso   1.00
C10    C     0.05243   0.36398   0.30750   0.00000  Uiso   1.00
C11    C     0.07346   0.31442   0.31720   0.00000  Uiso   1.00
C12    C     0.03152   0.27346   0.34549   0.00000  Uiso   1.00
C13    C     0.98173   0.19412   0.38953   0.00000  Uiso   1.00
C14    C     0.97859   0.42964   0.31041   0.00000  Uiso   1.00
C15    C     0.95747   0.42004   0.24317   0.00000  Uiso   1.00
C16    C     0.88673   0.41926   0.20227   0.00000  Uiso   1.00
C17    C     0.87889   0.40981   0.14272   0.00000  Uiso   1.00
C18    C     0.06330   0.48602   0.34000   0.00000  Uiso   1.00
C19    C     0.08154   0.54071   0.38053   0.00000  Uiso   1.00
C20    C     0.16279   0.58681   0.40252   0.00000  Uiso   1.00
C21    C     0.99167   0.37233   0.32543   0.00000  Uiso   1.00
C22    C     0.94969   0.33144   0.35372   0.00000  Uiso   1.00
C23    C     0.97065   0.28183   0.36345   0.00000  Uiso   1.00
H24    H     0.13777   0.40776   0.26343   0.00000  Uiso   1.00
H25    H     0.05754   0.39579   0.15188   0.00000  Uiso   1.00
H26    H     0.25232   0.51721   0.33012   0.00000  Uiso   1.00
H27    H     0.12049   0.30797   0.30331   0.00000  Uiso   1.00
H28    H     0.94181   0.38622   0.03612   0.00000  Uiso   1.00
H29    H     0.35251   0.64224   0.41196   0.00000  Uiso   1.00
H30    H     0.07453   0.20102   0.35543   0.00000  Uiso   1.00
H31    H     0.93128   0.43614   0.32437   0.00000  Uiso   1.00
H32    H     0.83972   0.42572   0.21616   0.00000  Uiso   1.00
H33    H     0.03450   0.54715   0.39440   0.00000  Uiso   1.00
H34    H     0.90267   0.33791   0.36759   0.00000  Uiso   1.00
H35    H     0.76502   0.41052   0.08829   0.00000  Uiso   1.00
H36    H     0.17573   0.66654   0.46413   0.00000  Uiso   1.00
H37    H     0.89774   0.22533   0.40760   0.00000  Uiso   1.00
O38    O     0.79692   0.39102   0.98992   0.00000  Uiso   1.00
O39    O     0.33575   0.72691   0.48302   0.00000  Uiso   1.00
O40    O     0.97104   0.14805   0.40885   0.00000  Uiso   1.00
N41    N     0.91276   0.39335   0.06324   0.00000  Uiso   1.00
N42    N     0.29674   0.63273   0.41463   0.00000  Uiso   1.00
N43    N     0.03687   0.22023   0.36179   0.00000  Uiso   1.00
N44    N     0.81763   0.40643   0.09131   0.00000  Uiso   1.00
N45    N     0.20161   0.64580   0.44270   0.00000  Uiso   1.00
N46    N     0.94174   0.23331   0.38987   0.00000  Uiso   1.00
C47    C     0.85985   0.70006   0.34786   0.00000  Uiso   1.00
C48    C     0.86955   0.66625   0.29494   0.00000  Uiso   1.00
C49    C     0.83103   0.66294   0.23524   0.00000  Uiso   1.00
C50    C     0.84794   0.62976   0.19354   0.00000  Uiso   1.00
C51    C     0.85484   0.58163   0.10871   0.00000  Uiso   1.00
C52    C     0.83028   0.65050   0.38117   0.00000  Uiso   1.00
C53    C     0.75874   0.63396   0.39399   0.00000  Uiso   1.00
C54    C     0.74260   0.58752   0.42488   0.00000  Uiso   1.00
C55    C     0.68856   0.51497   0.47397   0.00000  Uiso   1.00
C56    C     0.94723   0.74707   0.38946   0.00000  Uiso   1.00
C57    C     0.97402   0.81172   0.40926   0.00000  Uiso   1.00
C58    C     0.05635   0.84659   0.44714   0.00000  Uiso   1.00
C59    C     0.18389   0.92398   0.50910   0.00000  Uiso   1.00
C60    C     0.95840   0.64703   0.37995   0.00000  Uiso   1.00
C61    C     0.92308   0.63745   0.31237   0.00000  Uiso   1.00
C62    C     0.94006   0.60427   0.27074   0.00000  Uiso   1.00
C63    C     0.90157   0.60091   0.21100   0.00000  Uiso   1.00
C64    C     0.88380   0.62170   0.39860   0.00000  Uiso   1.00
C65    C     0.86777   0.57528   0.42949   0.00000  Uiso   1.00
C66    C     0.79622   0.55867   0.44234   0.00000  Uiso   1.00
C67    C     0.00076   0.71827   0.40689   0.00000  Uiso   1.00
C68    C     0.08306   0.75305   0.44475   0.00000  Uiso   1.00
C69    C     0.10997   0.81774   0.46460   0.00000  Uiso   1.00
H70    H     0.81817   0.72248   0.33430   0.00000  Uiso   1.00
H71    H     0.78960   0.68523   0.22178   0.00000  Uiso   1.00
H72    H     0.71733   0.65626   0.38050   0.00000  Uiso   1.00
H73    H     0.93259   0.83399   0.39576   0.00000  Uiso   1.00
H74    H     0.78151   0.63122   0.10471   0.00000  Uiso   1.00
H75    H     0.62914   0.57014   0.43941   0.00000  Uiso   1.00
H76    H     0.08304   0.94493   0.47160   0.00000  Uiso   1.00
H77    H     0.00007   0.62460   0.39352   0.00000  Uiso   1.00
H78    H     0.98148   0.58198   0.28424   0.00000  Uiso   1.00
H79    H     0.90921   0.55301   0.44297   0.00000  Uiso   1.00
H80    H     0.12446   0.73074   0.45823   0.00000  Uiso   1.00
H81    H     0.93724   0.54741   0.15541   0.00000  Uiso   1.00
H82    H     0.78487   0.48633   0.49011   0.00000  Uiso   1.00
H83    H     0.23877   0.86112   0.52230   0.00000  Uiso   1.00
O84    O     0.84385   0.56302   0.05711   0.00000  Uiso   1.00
O85    O     0.64395   0.48290   0.49622   0.00000  Uiso   1.00
O86    O     0.23946   0.97462   0.53845   0.00000  Uiso   1.00
N87    N     0.82073   0.61735   0.13164   0.00000  Uiso   1.00
N88    N     0.67826   0.56024   0.44455   0.00000  Uiso   1.00
N89    N     0.10261   0.91064   0.47466   0.00000  Uiso   1.00
N90    N     0.90453   0.57226   0.15892   0.00000  Uiso   1.00
N91    N     0.76206   0.51514   0.47183   0.00000  Uiso   1.00
N92    N     0.18641   0.86554   0.50194   0.00000  Uiso   1.00
C93    C     0.53646   0.33975   0.03147   0.00000  Uiso   1.00
C94    C     0.58065   0.37459   0.99352   0.00000  Uiso   1.00
C95    C     0.60147   0.34767   0.95032   0.00000  Uiso   1.00
C96    C     0.64175   0.38754   0.92050   0.00000  Uiso   1.00
C97    C     0.70755   0.43184   0.85963   0.00000  Uiso   1.00
C98    C     0.59294   0.37410   0.09643   0.00000  Uiso   1.00
C99    C     0.62409   0.34676   0.13976   0.00000  Uiso   1.00
C100   C     0.67471   0.38622   0.19657   0.00000  Uiso   1.00
C101   C     0.75955   0.42975   0.29548   0.00000  Uiso   1.00
C102   C     0.45943   0.35189   0.02080   0.00000  Uiso   1.00
C103   C     0.37833   0.30588   0.00056   0.00000  Uiso   1.00
C104   C     0.31654   0.32665   0.99371   0.00000  Uiso   1.00
C105   C     0.19408   0.33569   0.97519   0.00000  Uiso   1.00
C106   C     0.57095   0.45843   0.05532   0.00000  Uiso   1.00
C107   C     0.59938   0.43905   0.00648   0.00000  Uiso   1.00
C108   C     0.63963   0.47897   0.97672   0.00000  Uiso   1.00
C109   C     0.66051   0.45212   0.93348   0.00000  Uiso   1.00
C110   C     0.61167   0.43856   0.10939   0.00000  Uiso   1.00
C111   C     0.66225   0.47807   0.16615   0.00000  Uiso   1.00
C112   C     0.69348   0.45080   0.20955   0.00000  Uiso   1.00
C113   C     0.47816   0.41635   0.03376   0.00000  Uiso   1.00
C114   C     0.41649   0.43719   0.02695   0.00000  Uiso   1.00
C115   C     0.33530   0.39122   0.00669   0.00000  Uiso   1.00
H116   H     0.52188   0.28957   0.02138   0.00000  Uiso   1.00
H117   H     0.58697   0.29778   0.94031   0.00000  Uiso   1.00
H118   H     0.60958   0.29688   0.12972   0.00000  Uiso   1.00
H119   H     0.36385   0.25601   0.99053   0.00000  Uiso   1.00
H120   H     0.66743   0.33533   0.85616   0.00000  Uiso   1.00
H121   H     0.71508   0.33341   0.25553   0.00000  Uiso   1.00
H122   H     0.19691   0.24722   0.96204   0.00000  Uiso   1.00
H123   H     0.58553   0.50862   0.06541   0.00000  Uiso   1.00
H124   H     0.65412   0.52886   0.98676   0.00000  Uiso   1.00
H125   H     0.67673   0.52795   0.17616   0.00000  Uiso   1.00
H126   H     0.43100   0.48708   0.03698   0.00000  Uiso   1.00
H127   H     0.72193   0.52287   0.89386   0.00000  Uiso   1.00
H128   H     0.76958   0.52096   0.29324   0.00000  Uiso   1.00
H129   H     0.25142   0.43477   0.99974   0.00000  Uiso   1.00
O130   O     0.73868   0.43846   0.82249   0.00000  Uiso   1.00
O131   O     0.80118   0.43595   0.34645   0.00000  Uiso   1.00
O132   O     0.12136   0.32287   0.96139   0.00000  Uiso   1.00
N133   N     0.67083   0.37669   0.87582   0.00000  Uiso   1.00
N134   N     0.71539   0.37490   0.24921   0.00000  Uiso   1.00
N135   N     0.23095   0.29432   0.97483   0.00000  Uiso   1.00
N136   N     0.70016   0.47760   0.89610   0.00000  Uiso   1.00
N137   N     0.74472   0.47582   0.26949   0.00000  Uiso   1.00
N138   N     0.26028   0.39524   0.99512   0.00000  Uiso   1.00
C139   C     0.66938   0.86832   0.81062   0.00000  Uiso   1.00
C140   C     0.59688   0.85429   0.75298   0.00000  Uiso   1.00
C141   C     0.52484   0.86066   0.74918   0.00000  Uiso   1.00
C142   C     0.46589   0.84546   0.69229   0.00000  Uiso   1.00
C143   C     0.35140   0.82688   0.61058   0.00000  Uiso   1.00
C144   C     0.74595   0.91663   0.80439   0.00000  Uiso   1.00
C145   C     0.79924   0.97542   0.84382   0.00000  Uiso   1.00
C146   C     0.86578   0.01269   0.83020   0.00000  Uiso   1.00
C147   C     0.98275   0.09088   0.82832   0.00000  Uiso   1.00
C148   C     0.68137   0.80777   0.80988   0.00000  Uiso   1.00
C149   C     0.68039   0.77502   0.85392   0.00000  Uiso   1.00
C150   C     0.69258   0.72064   0.84493   0.00000  Uiso   1.00
C151   C     0.70928   0.62980   0.85157   0.00000  Uiso   1.00
C152   C     0.69280   0.82999   0.71633   0.00000  Uiso   1.00
C153   C     0.60960   0.83348   0.70177   0.00000  Uiso   1.00
C154   C     0.55074   0.81826   0.64486   0.00000  Uiso   1.00
C155   C     0.47863   0.82460   0.64098   0.00000  Uiso   1.00
C156   C     0.75867   0.89582   0.75318   0.00000  Uiso   1.00
C157   C     0.82514   0.93301   0.73950   0.00000  Uiso   1.00
C158   C     0.87852   0.99183   0.77889   0.00000  Uiso   1.00
C159   C     0.69409   0.78695   0.75866   0.00000  Uiso   1.00
C160   C     0.70629   0.73261   0.74960   0.00000  Uiso   1.00
C161   C     0.70532   0.69979   0.79362   0.00000  Uiso   1.00
H162   H     0.65949   0.88453   0.85050   0.00000  Uiso   1.00
H163   H     0.51503   0.87678   0.78883   0.00000  Uiso   1.00
H164   H     0.78939   0.99151   0.88345   0.00000  Uiso   1.00
H165   H     0.67055   0.79115   0.89355   0.00000  Uiso   1.00
H166   H     0.36048   0.85904   0.69787   0.00000  Uiso   1.00
H167   H     0.93901   0.10094   0.89740   0.00000  Uiso   1.00
H168   H     0.68841   0.67843   0.91870   0.00000  Uiso   1.00
H169   H     0.70270   0.81378   0.67646   0.00000  Uiso   1.00
H170   H     0.56060   0.80215   0.60524   0.00000  Uiso   1.00
H171   H     0.83497   0.91688   0.69986   0.00000  Uiso   1.00
H172   H     0.71613   0.71652   0.70996   0.00000  Uiso   1.00
H173   H     0.39748   0.79846   0.54886   0.00000  Uiso   1.00
H174   H     0.97601   0.04037   0.74840   0.00000  Uiso   1.00
H175   H     0.72541   0.61786   0.76969   0.00000  Uiso   1.00
O176   O     0.28474   0.82239   0.57965   0.00000  Uiso   1.00
O177   O     0.04374   0.13976   0.84144   0.00000  Uiso   1.00
O178   O     0.71497   0.58544   0.86938   0.00000  Uiso   1.00
N179   N     0.38868   0.84636   0.67258   0.00000  Uiso   1.00
N180   N     0.92956   0.07254   0.85912   0.00000  Uiso   1.00
N181   N     0.69530   0.67753   0.87904   0.00000  Uiso   1.00
N182   N     0.40859   0.81377   0.59240   0.00000  Uiso   1.00
N183   N     0.94947   0.03994   0.77894   0.00000  Uiso   1.00
N184   N     0.71521   0.64494   0.79886   0.00000  Uiso   1.00
C185   C     0.30815   0.99486   0.74991   0.00000  Uiso   1.00
C186   C     0.23785   0.92870   0.72094   0.00000  Uiso   1.00
C187   C     0.22239   0.88950   0.66735   0.00000  Uiso   1.00
C188   C     0.15504   0.83072   0.64844   0.00000  Uiso   1.00
C189   C     0.05353   0.73084   0.59838   0.00000  Uiso   1.00
C190   C     0.35641   0.99370   0.81252   0.00000  Uiso   1.00
C191   C     0.44064   0.00915   0.83592   0.00000  Uiso   1.00
C192   C     0.47309   0.00509   0.89411   0.00000  Uiso   1.00
C193   C     0.55566   0.00616   0.98623   0.00000  Uiso   1.00
C194   C     0.26705   0.03842   0.75859   0.00000  Uiso   1.00
C195   C     0.27615   0.09148   0.73666   0.00000  Uiso   1.00
C196   C     0.23338   0.12508   0.74946   0.00000  Uiso   1.00
C197   C     0.17720   0.19559   0.75785   0.00000  Uiso   1.00
C198   C     0.21603   0.96018   0.81165   0.00000  Uiso   1.00
C199   C     0.18782   0.90986   0.75448   0.00000  Uiso   1.00
C200   C     0.12047   0.85112   0.73565   0.00000  Uiso   1.00
C201   C     0.10491   0.81184   0.68204   0.00000  Uiso   1.00
C202   C     0.30638   0.97486   0.84606   0.00000  Uiso   1.00
C203   C     0.33872   0.97077   0.90423   0.00000  Uiso   1.00
C204   C     0.42297   0.98621   0.92771   0.00000  Uiso   1.00
C205   C     0.21701   0.01958   0.79213   0.00000  Uiso   1.00
C206   C     0.17423   0.05310   0.80497   0.00000  Uiso   1.00
C207   C     0.18326   0.10621   0.78306   0.00000  Uiso   1.00
H208   H     0.34711   0.00953   0.72381   0.00000  Uiso   1.00
H209   H     0.26114   0.90410   0.64141   0.00000  Uiso   1.00
H210   H     0.47935   0.02374   0.80996   0.00000  Uiso   1.00
H211   H     0.31488   0.10605   0.71071   0.00000  Uiso   1.00
H212   H     0.14377   0.77889   0.56486   0.00000  Uiso   1.00
H213   H     0.60389   0.03117   0.92025   0.00000  Uiso   1.00
H214   H     0.25708   0.20475   0.71098   0.00000  Uiso   1.00
H215   H     0.17707   0.94551   0.83777   0.00000  Uiso   1.00
H216   H     0.08176   0.83656   0.76162   0.00000  Uiso   1.00
H217   H     0.29998   0.95619   0.93017   0.00000  Uiso   1.00
H218   H     0.13551   0.03851   0.83092   0.00000  Uiso   1.00
H219   H     0.99819   0.72406   0.66242   0.00000  Uiso   1.00
H220   H     0.45831   0.97635   0.01782   0.00000  Uiso   1.00
H221   H     0.11150   0.14993   0.80854   0.00000  Uiso   1.00
O222   O     0.01137   0.68095   0.56150   0.00000  Uiso   1.00
O223   O     0.61503   0.01195   0.02777   0.00000  Uiso   1.00
O224   O     0.16002   0.23968   0.75320   0.00000  Uiso   1.00
N225   N     0.12258   0.78094   0.59826   0.00000  Uiso   1.00
N226   N     0.55276   0.01680   0.93054   0.00000  Uiso   1.00
N227   N     0.22854   0.17909   0.73489   0.00000  Uiso   1.00
N228   N     0.04424   0.75144   0.65076   0.00000  Uiso   1.00
N229   N     0.47442   0.98730   0.98303   0.00000  Uiso   1.00
N230   N     0.15020   0.14960   0.78739   0.00000  Uiso   1.00
C231   C     0.96355   0.65630   0.83900   0.00000  Uiso   1.00
C232   C     0.92234   0.67386   0.78339   0.00000  Uiso   1.00
C233   C     0.86682   0.63182   0.72871   0.00000  Uiso   1.00
C234   C     0.83603   0.65725   0.68338   0.00000  Uiso   1.00
C235   C     0.76837   0.67460   0.59566   0.00000  Uiso   1.00
C236   C     0.94174   0.68326   0.88860   0.00000  Uiso   1.00
C237   C     0.90255   0.64912   0.92238   0.00000  Uiso   1.00
C238   C     0.88810   0.68247   0.96561   0.00000  Uiso   1.00
C239   C     0.85062   0.71443   0.04125   0.00000  Uiso   1.00
C240   C     0.05674   0.69397   0.85649   0.00000  Uiso   1.00
C241   C     0.11424   0.66883   0.86329   0.00000  Uiso   1.00
C242   C     0.19662   0.71120   0.87951   0.00000  Uiso   1.00
C243   C     0.33769   0.75978   0.90530   0.00000  Uiso   1.00
C244   C     0.00760   0.77624   0.85573   0.00000  Uiso   1.00
C245   C     0.94627   0.73901   0.79248   0.00000  Uiso   1.00
C246   C     0.91556   0.76451   0.74722   0.00000  Uiso   1.00
C247   C     0.86000   0.72251   0.69248   0.00000  Uiso   1.00
C248   C     0.96567   0.74840   0.89769   0.00000  Uiso   1.00
C249   C     0.95128   0.78181   0.94089   0.00000  Uiso   1.00
C250   C     0.91207   0.74773   0.97472   0.00000  Uiso   1.00
C251   C     0.08067   0.75911   0.86558   0.00000  Uiso   1.00
C252   C     0.16298   0.80153   0.88180   0.00000  Uiso   1.00
C253   C     0.22059   0.77646   0.88862   0.00000  Uiso   1.00
H254   H     0.94492   0.60559   0.83193   0.00000  Uiso   1.00
H255   H     0.84831   0.58141   0.72170   0.00000  Uiso   1.00
H256   H     0.88404   0.59871   0.91534   0.00000  Uiso   1.00
H257   H     0.09570   0.61842   0.85625   0.00000  Uiso   1.00
H258   H     0.75173   0.58332   0.60350   0.00000  Uiso   1.00
H259   H     0.82710   0.61982   0.01181   0.00000  Uiso   1.00
H260   H     0.27342   0.66137   0.88723   0.00000  Uiso   1.00
H261   H     0.02623   0.82695   0.86281   0.00000  Uiso   1.00
H262   H     0.93408   0.81492   0.75427   0.00000  Uiso   1.00
H263   H     0.96981   0.83223   0.94791   0.00000  Uiso   1.00
H264   H     0.18147   0.85193   0.88882   0.00000  Uiso   1.00
H265   H     0.82135   0.77286   0.62993   0.00000  Uiso   1.00
H266   H     0.89672   0.80935   0.03825   0.00000  Uiso   1.00
H267   H     0.34304   0.85090   0.91366   0.00000  Uiso   1.00
O268   O     0.72444   0.66618   0.54476   0.00000  Uiso   1.00
O269   O     0.82333   0.71406   0.08046   0.00000  Uiso   1.00
O270   O     0.40889   0.76858   0.91700   0.00000  Uiso   1.00
N271   N     0.78078   0.62958   0.62461   0.00000  Uiso   1.00
N272   N     0.85123   0.66370   0.00635   0.00000  Uiso   1.00
N273   N     0.26850   0.70255   0.88989   0.00000  Uiso   1.00
N274   N     0.81824   0.73157   0.63884   0.00000  Uiso   1.00
N275   N     0.88869   0.76569   0.02058   0.00000  Uiso   1.00
N276   N     0.30596   0.80454   0.90412   0.00000  Uiso   1.00
C277   C     0.94895   0.46153   0.70626   0.00000  Uiso   1.00
C278   C     0.96433   0.43686   0.76212   0.00000  Uiso   1.00
C279   C     0.91723   0.42828   0.79778   0.00000  Uiso   1.00
C280   C     0.94142   0.40522   0.84692   0.00000  Uiso   1.00
C281   C     0.95481   0.36900   0.93167   0.00000  Uiso   1.00
C282   C     0.94010   0.41121   0.65590   0.00000  Uiso   1.00
C283   C     0.87263   0.38107   0.60225   0.00000  Uiso   1.00
C284   C     0.87644   0.33643   0.56198   0.00000  Uiso   1.00
C285   C     0.85224   0.26044   0.48181   0.00000  Uiso   1.00
C286   C     0.02926   0.51891   0.71710   0.00000  Uiso   1.00
C287   C     0.03676   0.57932   0.71490   0.00000  Uiso   1.00
C288   C     0.11562   0.62535   0.72613   0.00000  Uiso   1.00
C289   C     0.22985   0.71656   0.74098   0.00000  Uiso   1.00
C290   C     0.07568   0.43585   0.73012   0.00000  Uiso   1.00
C291   C     0.03317   0.42291   0.77508   0.00000  Uiso   1.00
C292   C     0.05744   0.39986   0.82418   0.00000  Uiso   1.00
C293   C     0.01038   0.39124   0.85991   0.00000  Uiso   1.00
C294   C     0.00894   0.39726   0.66886   0.00000  Uiso   1.00
C295   C     0.01285   0.35266   0.62866   0.00000  Uiso   1.00
C296   C     0.94540   0.32246   0.57496   0.00000  Uiso   1.00
C297   C     0.09810   0.50496   0.73007   0.00000  Uiso   1.00
C298   C     0.17697   0.55090   0.74130   0.00000  Uiso   1.00
C299   C     0.18458   0.61137   0.73912   0.00000  Uiso   1.00
H300   H     0.89536   0.47239   0.69616   0.00000  Uiso   1.00
H301   H     0.86396   0.43907   0.78773   0.00000  Uiso   1.00
H302   H     0.81938   0.39188   0.59224   0.00000  Uiso   1.00
H303   H     0.98347   0.59010   0.70486   0.00000  Uiso   1.00
H304   H     0.85948   0.39596   0.89495   0.00000  Uiso   1.00
H305   H     0.76549   0.29648   0.48273   0.00000  Uiso   1.00
H306   H     0.11152   0.71445   0.72023   0.00000  Uiso   1.00
H307   H     0.12928   0.42499   0.74021   0.00000  Uiso   1.00
H308   H     0.11071   0.38907   0.83420   0.00000  Uiso   1.00
H309   H     0.06613   0.34188   0.63870   0.00000  Uiso   1.00
H310   H     0.23022   0.54009   0.75133   0.00000  Uiso   1.00
H311   H     0.05976   0.35537   0.93266   0.00000  Uiso   1.00
H312   H     0.96576   0.25589   0.52044   0.00000  Uiso   1.00
H313   H     0.31179   0.67386   0.75794   0.00000  Uiso   1.00
O314   O     0.94317   0.35287   0.97482   0.00000  Uiso   1.00
O315   O     0.81986   0.22237   0.43401   0.00000  Uiso   1.00
O316   O     0.27384   0.77073   0.74560   0.00000  Uiso   1.00
N317   N     0.90918   0.39135   0.89093   0.00000  Uiso   1.00
N318   N     0.82129   0.29833   0.50554   0.00000  Uiso   1.00
N319   N     0.14480   0.68910   0.72756   0.00000  Uiso   1.00
N320   N     0.01694   0.36951   0.91123   0.00000  Uiso   1.00
N321   N     0.92906   0.27649   0.52583   0.00000  Uiso   1.00
N322   N     0.25256   0.66726   0.74786   0.00000  Uiso   1.00
C323   C     0.33028   0.28894   0.61431   0.00000  Uiso   1.00
C324   C     0.33927   0.32978   0.67176   0.00000  Uiso   1.00
C325   C     0.40978   0.35767   0.72367   0.00000  Uiso   1.00
C326   C     0.40555   0.39328   0.77135   0.00000  Uiso   1.00
C327   C     0.43050   0.45560   0.86116   0.00000  Uiso   1.00
C328   C     0.30490   0.32012   0.56484   0.00000  Uiso   1.00
C329   C     0.34650   0.33988   0.52685   0.00000  Uiso   1.00
C330   C     0.31333   0.36736   0.48452   0.00000  Uiso   1.00
C331   C     0.28488   0.41464   0.40831   0.00000  Uiso   1.00
C332   C     0.25561   0.22625   0.60110   0.00000  Uiso   1.00
C333   C     0.25576   0.16708   0.59360   0.00000  Uiso   1.00
C334   C     0.18108   0.11552   0.58178   0.00000  Uiso   1.00
C335   C     0.07611   0.01706   0.56188   0.00000  Uiso   1.00
C336   C     0.19739   0.30258   0.60666   0.00000  Uiso   1.00
C337   C     0.26709   0.33719   0.66760   0.00000  Uiso   1.00
C338   C     0.26275   0.37276   0.71521   0.00000  Uiso   1.00
C339   C     0.33324   0.40070   0.76719   0.00000  Uiso   1.00
C340   C     0.23272   0.32754   0.56068   0.00000  Uiso   1.00
C341   C     0.19947   0.35498   0.51839   0.00000  Uiso   1.00
C342   C     0.24102   0.37478   0.48036   0.00000  Uiso   1.00
C343   C     0.18342   0.23366   0.59695   0.00000  Uiso   1.00
C344   C     0.10873   0.18218   0.58514   0.00000  Uiso   1.00
C345   C     0.10877   0.12294   0.57762   0.00000  Uiso   1.00
H346   H     0.38648   0.28317   0.61755   0.00000  Uiso   1.00
H347   H     0.46563   0.35193   0.72687   0.00000  Uiso   1.00
H348   H     0.40235   0.33414   0.53008   0.00000  Uiso   1.00
H349   H     0.31163   0.16137   0.59681   0.00000  Uiso   1.00
H350   H     0.52156   0.43145   0.84624   0.00000  Uiso   1.00
H351   H     0.38813   0.39392   0.43128   0.00000  Uiso   1.00
H352   H     0.19682   0.02959   0.57200   0.00000  Uiso   1.00
H353   H     0.14119   0.30835   0.60343   0.00000  Uiso   1.00
H354   H     0.20688   0.37849   0.71198   0.00000  Uiso   1.00
H355   H     0.14361   0.36070   0.51519   0.00000  Uiso   1.00
H356   H     0.05288   0.18793   0.58192   0.00000  Uiso   1.00
H357   H     0.31156   0.45301   0.83415   0.00000  Uiso   1.00
H358   H     0.17812   0.41548   0.41919   0.00000  Uiso   1.00
H359   H     0.98681   0.05115   0.55992   0.00000  Uiso   1.00
O360   O     0.46421   0.48794   0.91185   0.00000  Uiso   1.00
O361   O     0.28914   0.43869   0.36743   0.00000  Uiso   1.00
O362   O     0.03815   0.96070   0.55207   0.00000  Uiso   1.00
N363   N     0.46312   0.42689   0.82850   0.00000  Uiso   1.00
N364   N     0.33837   0.39181   0.44054   0.00000  Uiso   1.00
N365   N     0.15950   0.05119   0.57209   0.00000  Uiso   1.00
N366   N     0.35011   0.43849   0.82200   0.00000  Uiso   1.00
N367   N     0.22537   0.40341   0.43404   0.00000  Uiso   1.00
N368   N     0.04650   0.06279   0.56559   0.00000  Uiso   1.00
C369   C     0.34951   0.65126   0.63764   0.00000  Uiso   1.00
C370   C     0.38889   0.64539   0.70036   0.00000  Uiso   1.00
C371   C     0.43148   0.69437   0.75209   0.00000  Uiso   1.00
C372   C     0.46283   0.67932   0.80508   0.00000  Uiso   1.00
C373   C     0.52559   0.67959   0.90230   0.00000  Uiso   1.00
C374   C     0.25837   0.60447   0.61499   0.00000  Uiso   1.00
C375   C     0.19122   0.61906   0.59494   0.00000  Uiso   1.00
C376   C     0.11271   0.56955   0.57606   0.00000  Uiso   1.00
C377   C     0.97283   0.50630   0.54070   0.00000  Uiso   1.00
C378   C     0.38754   0.62590   0.59902   0.00000  Uiso   1.00
C379   C     0.42898   0.65850   0.56553   0.00000  Uiso   1.00
C380   C     0.45920   0.62704   0.53319   0.00000  Uiso   1.00
C381   C     0.51989   0.59707   0.47303   0.00000  Uiso   1.00
C382   C     0.32947   0.53741   0.63975   0.00000  Uiso   1.00
C383   C     0.37799   0.58355   0.70150   0.00000  Uiso   1.00
C384   C     0.40930   0.56841   0.75443   0.00000  Uiso   1.00
C385   C     0.45193   0.61737   0.80623   0.00000  Uiso   1.00
C386   C     0.24748   0.54263   0.61614   0.00000  Uiso   1.00
C387   C     0.16904   0.49310   0.59728   0.00000  Uiso   1.00
C388   C     0.10180   0.50760   0.57721   0.00000  Uiso   1.00
C389   C     0.37665   0.56407   0.60017   0.00000  Uiso   1.00
C390   C     0.40681   0.53254   0.56787   0.00000  Uiso   1.00
C391   C     0.44829   0.56509   0.53434   0.00000  Uiso   1.00
H392   H     0.35799   0.69940   0.63674   0.00000  Uiso   1.00
H393   H     0.43988   0.74222   0.75118   0.00000  Uiso   1.00
H394   H     0.19967   0.66691   0.59405   0.00000  Uiso   1.00
H395   H     0.43740   0.70636   0.56465   0.00000  Uiso   1.00
H396   H     0.52586   0.76242   0.87857   0.00000  Uiso   1.00
H397   H     0.01935   0.60362   0.54723   0.00000  Uiso   1.00
H398   H     0.52064   0.68680   0.48523   0.00000  Uiso   1.00
H399   H     0.32098   0.48927   0.64065   0.00000  Uiso   1.00
H400   H     0.40086   0.52055   0.75531   0.00000  Uiso   1.00
H401   H     0.16064   0.44525   0.59817   0.00000  Uiso   1.00
H402   H     0.39837   0.48469   0.56877   0.00000  Uiso   1.00
H403   H     0.49418   0.58250   0.88192   0.00000  Uiso   1.00
H404   H     0.98767   0.42371   0.55057   0.00000  Uiso   1.00
H405   H     0.48896   0.50689   0.48857   0.00000  Uiso   1.00
O406   O     0.56320   0.69683   0.95560   0.00000  Uiso   1.00
O407   O     0.89869   0.48850   0.52088   0.00000  Uiso   1.00
O408   O     0.55638   0.59762   0.43954   0.00000  Uiso   1.00
N409   N     0.50745   0.71578   0.86362   0.00000  Uiso   1.00
N410   N     0.03390   0.56732   0.55385   0.00000  Uiso   1.00
N411   N     0.50255   0.64508   0.49587   0.00000  Uiso   1.00
N412   N     0.49041   0.61897   0.86542   0.00000  Uiso   1.00
N413   N     0.01685   0.47051   0.55565   0.00000  Uiso   1.00
N414   N     0.48550   0.54827   0.49767   0.00000  Uiso   1.00
C415   C     0.42924   0.04946   0.11933   0.00000  Uiso   1.00
C416   C     0.38825   0.07352   0.15622   0.00000  Uiso   1.00
C417   C     0.42655   0.10753   0.21575   0.00000  Uiso   1.00
C418   C     0.37840   0.12519   0.24146   0.00000  Uiso   1.00
C419   C     0.32744   0.16492   0.30372   0.00000  Uiso   1.00
C420   C     0.37668   0.97831   0.09566   0.00000  Uiso   1.00
C421   C     0.40525   0.93227   0.10428   0.00000  Uiso   1.00
C422   C     0.34736   0.86978   0.07900   0.00000  Uiso   1.00
C423   C     0.27845   0.76170   0.04721   0.00000  Uiso   1.00
C424   C     0.41751   0.07661   0.06486   0.00000  Uiso   1.00
C425   C     0.48041   0.11320   0.04756   0.00000  Uiso   1.00
C426   C     0.45688   0.13346   0.99635   0.00000  Uiso   1.00
C427   C     0.45136   0.17800   0.91673   0.00000  Uiso   1.00
C428   C     0.27562   0.02036   0.05912   0.00000  Uiso   1.00
C429   C     0.30481   0.05771   0.12351   0.00000  Uiso   1.00
C430   C     0.25659   0.07533   0.14914   0.00000  Uiso   1.00
C431   C     0.29481   0.10936   0.20870   0.00000  Uiso   1.00
C432   C     0.29324   0.96250   0.06296   0.00000  Uiso   1.00
C433   C     0.23529   0.90007   0.03766   0.00000  Uiso   1.00
C434   C     0.26377   0.85394   0.04624   0.00000  Uiso   1.00
C435   C     0.33407   0.06081   0.03216   0.00000  Uiso   1.00
C436   C     0.31044   0.08101   0.98095   0.00000  Uiso   1.00
C437   C     0.37329   0.11762   0.96358   0.00000  Uiso   1.00
H438   H     0.49420   0.06176   0.14480   0.00000  Uiso   1.00
H439   H     0.49112   0.11974   0.24105   0.00000  Uiso   1.00
H440   H     0.46983   0.94451   0.12958   0.00000  Uiso   1.00
H441   H     0.54497   0.12542   0.07288   0.00000  Uiso   1.00
H442   H     0.45091   0.17703   0.33335   0.00000  Uiso   1.00
H443   H     0.40602   0.80755   0.09830   0.00000  Uiso   1.00
H444   H     0.56446   0.18903   0.97874   0.00000  Uiso   1.00
H445   H     0.21065   0.00806   0.03366   0.00000  Uiso   1.00
H446   H     0.19202   0.06309   0.12381   0.00000  Uiso   1.00
H447   H     0.17073   0.88786   0.01235   0.00000  Uiso   1.00
H448   H     0.24587   0.06877   0.95565   0.00000  Uiso   1.00
H449   H     0.20815   0.13105   0.23820   0.00000  Uiso   1.00
H450   H     0.16326   0.76156   0.00315   0.00000  Uiso   1.00
H451   H     0.32170   0.14305   0.88359   0.00000  Uiso   1.00
O452   O     0.32238   0.19120   0.34709   0.00000  Uiso   1.00
O453   O     0.26349   0.70645   0.03871   0.00000  Uiso   1.00
O454   O     0.47137   0.20694   0.88185   0.00000  Uiso   1.00
N455   N     0.39634   0.15867   0.29858   0.00000  Uiso   1.00
N456   N     0.35436   0.81322   0.07883   0.00000  Uiso   1.00
N457   N     0.50250   0.16986   0.96704   0.00000  Uiso   1.00
N458   N     0.26571   0.13393   0.24738   0.00000  Uiso   1.00
N459   N     0.22373   0.78848   0.02763   0.00000  Uiso   1.00
N460   N     0.37187   0.14512   0.91584   0.00000  Uiso   1.00
C461   C     0.87862   0.85080   0.19715   0.00000  Uiso   1.00
C462   C     0.88745   0.89494   0.25244   0.00000  Uiso   1.00
C463   C     0.86206   0.87638   0.29833   0.00000  Uiso   1.00
C464   C     0.87563   0.92397   0.34498   0.00000  Uiso   1.00
C465   C     0.88358   0.98280   0.43071   0.00000  Uiso   1.00
C466   C     0.83009   0.86696   0.14348   0.00000  Uiso   1.00
C467   C     0.75647   0.82487   0.09775   0.00000  Uiso   1.00
C468   C     0.72176   0.84891   0.05267   0.00000  Uiso   1.00
C469   C     0.64069   0.86428   0.96921   0.00000  Uiso   1.00
C470   C     0.96577   0.87105   0.19640   0.00000  Uiso   1.00
C471   C     0.00624   0.83240   0.19514   0.00000  Uiso   1.00
C472   C     0.08577   0.85988   0.19460   0.00000  Uiso   1.00
C473   C     0.21537   0.88160   0.19331   0.00000  Uiso   1.00
C474   C     0.94788   0.96834   0.19840   0.00000  Uiso   1.00
C475   C     0.92507   0.95878   0.25312   0.00000  Uiso   1.00
C476   C     0.93868   0.00642   0.29971   0.00000  Uiso   1.00
C477   C     0.91332   0.98793   0.34566   0.00000  Uiso   1.00
C478   C     0.86770   0.93080   0.14416   0.00000  Uiso   1.00
C479   C     0.83310   0.95490   0.09913   0.00000  Uiso   1.00
C480   C     0.75945   0.91286   0.05335   0.00000  Uiso   1.00
C481   C     0.00339   0.93489   0.19708   0.00000  Uiso   1.00
C482   C     0.08287   0.96244   0.19653   0.00000  Uiso   1.00
C483   C     0.12345   0.92383   0.19528   0.00000  Uiso   1.00
H484   H     0.84933   0.80110   0.19662   0.00000  Uiso   1.00
H485   H     0.83294   0.82697   0.29778   0.00000  Uiso   1.00
H486   H     0.72738   0.77547   0.09723   0.00000  Uiso   1.00
H487   H     0.97711   0.78300   0.19462   0.00000  Uiso   1.00
H488   H     0.83134   0.88380   0.41023   0.00000  Uiso   1.00
H489   H     0.60877   0.77520   0.98734   0.00000  Uiso   1.00
H490   H     0.13538   0.79108   0.19270   0.00000  Uiso   1.00
H491   H     0.97716   0.01804   0.19893   0.00000  Uiso   1.00
H492   H     0.96779   0.05582   0.30023   0.00000  Uiso   1.00
H493   H     0.86223   0.00431   0.09967   0.00000  Uiso   1.00
H494   H     0.11196   0.01184   0.19706   0.00000  Uiso   1.00
H495   H     0.94078   0.06954   0.41221   0.00000  Uiso   1.00
H496   H     0.71821   0.96094   0.98932   0.00000  Uiso   1.00
H497   H     0.24482   0.97682   0.19468   0.00000  Uiso   1.00
O498   O     0.87756   0.99761   0.47781   0.00000  Uiso   1.00
O499   O     0.58557   0.85512   0.92299   0.00000  Uiso   1.00
O500   O     0.27647   0.87595   0.19241   0.00000  Uiso   1.00
N501   N     0.85840   0.92233   0.39680   0.00000  Uiso   1.00
N502   N     0.65030   0.82080   0.00143   0.00000  Uiso   1.00
N503   N     0.14263   0.83564   0.19340   0.00000  Uiso   1.00
N504   N     0.91729   0.02228   0.39787   0.00000  Uiso   1.00
N505   N     0.70919   0.92074   0.00250   0.00000  Uiso   1.00
N506   N     0.20152   0.93558   0.19447   0.00000  Uiso   1.00
C507   C     0.07185   0.21667   0.06845   0.00000  Uiso   1.00
C508   C     0.13181   0.23942   0.13342   0.00000  Uiso   1.00
C509   C     0.20447   0.29487   0.15809   0.00000  Uiso   1.00
C510   C     0.25078   0.30722   0.21840   0.00000  Uiso   1.00
C511   C     0.34778   0.34887   0.31404   0.00000  Uiso   1.00
C512   C     0.06413   0.15102   0.04489   0.00000  Uiso   1.00
C513   C     0.07989   0.13215   0.99513   0.00000  Uiso   1.00
C514   C     0.06922   0.07007   0.98091   0.00000  Uiso   1.00
C515   C     0.06109   0.97447   0.93910   0.00000  Uiso   1.00
C516   C     0.98743   0.20701   0.07037   0.00000  Uiso   1.00
C517   C     0.93868   0.23518   0.04201   0.00000  Uiso   1.00
C518   C     0.86342   0.22023   0.04924   0.00000  Uiso   1.00
C519   C     0.73620   0.21155   0.04698   0.00000  Uiso   1.00
C520   C     0.02487   0.14000   0.13169   0.00000  Uiso   1.00
C521   C     0.10629   0.19778   0.16777   0.00000  Uiso   1.00
C522   C     0.15250   0.21004   0.22805   0.00000  Uiso   1.00
C523   C     0.22522   0.26550   0.25281   0.00000  Uiso   1.00
C524   C     0.03862   0.10938   0.07924   0.00000  Uiso   1.00
C525   C     0.02791   0.04732   0.06510   0.00000  Uiso   1.00
C526   C     0.04365   0.02835   0.01532   0.00000  Uiso   1.00
C527   C     0.96191   0.16536   0.10472   0.00000  Uiso   1.00
C528   C     0.88671   0.15036   0.11198   0.00000  Uiso   1.00
C529   C     0.83785   0.17851   0.08365   0.00000  Uiso   1.00
H530   H     0.09172   0.24908   0.04170   0.00000  Uiso   1.00
H531   H     0.22421   0.32708   0.13149   0.00000  Uiso   1.00
H532   H     0.09963   0.16438   0.96855   0.00000  Uiso   1.00
H533   H     0.95845   0.26741   0.01544   0.00000  Uiso   1.00
H534   H     0.35985   0.39518   0.24617   0.00000  Uiso   1.00
H535   H     0.09715   0.05211   0.90260   0.00000  Uiso   1.00
H536   H     0.79944   0.26936   0.00146   0.00000  Uiso   1.00
H537   H     0.00500   0.10757   0.15843   0.00000  Uiso   1.00
H538   H     0.13273   0.17781   0.25462   0.00000  Uiso   1.00
H539   H     0.00816   0.01511   0.09169   0.00000  Uiso   1.00
H540   H     0.86698   0.11813   0.13857   0.00000  Uiso   1.00
H541   H     0.28561   0.27402   0.34611   0.00000  Uiso   1.00
H542   H     0.02291   0.93095   0.00254   0.00000  Uiso   1.00
H543   H     0.72520   0.14820   0.10140   0.00000  Uiso   1.00
O544   O     0.40834   0.38335   0.35731   0.00000  Uiso   1.00
O545   O     0.06366   0.93325   0.90655   0.00000  Uiso   1.00
O546   O     0.67308   0.21828   0.03625   0.00000  Uiso   1.00
N547   N     0.32484   0.35703   0.25650   0.00000  Uiso   1.00
N548   N     0.07924   0.03629   0.93528   0.00000  Uiso   1.00
N549   N     0.80090   0.23938   0.02769   0.00000  Uiso   1.00
N550   N     0.28489   0.29184   0.31027   0.00000  Uiso   1.00
N551   N     0.03930   0.97109   0.98906   0.00000  Uiso   1.00
N552   N     0.76095   0.17419   0.08147   0.00000  Uiso   1.00
