data_job_06640
_audit_creation_date              2018-12-19
_audit_creation_method            'Materials Studio'
_symmetry_space_group_name_H-M    'P1'
_symmetry_Int_Tables_number       1
_symmetry_cell_setting            triclinic
loop_
_symmetry_equiv_pos_as_xyz
  x,y,z
_cell_length_a                    19.6779
_cell_length_b                    19.4275
_cell_length_c                    21.1071
_cell_angle_alpha                 91.0122
_cell_angle_beta                  95.4493
_cell_angle_gamma                 99.3481
loop_
_atom_site_label
_atom_site_type_symbol
_atom_site_fract_x
_atom_site_fract_y
_atom_site_fract_z
_atom_site_U_iso_or_equiv
_atom_site_adp_type
_atom_site_occupancy
C1     C     0.03536   0.32625   0.87561   0.00000  Uiso   1.00
C2     C     0.09502   0.38447   0.86566   0.00000  Uiso   1.00
C3     C     0.08907   0.45304   0.85227   0.00000  Uiso   1.00
C4     C     0.14981   0.49837   0.84482   0.00000  Uiso   1.00
C5     C     0.23266   0.59218   0.82847   0.00000  Uiso   1.00
C6     C     0.03934   0.26798   0.82742   0.00000  Uiso   1.00
C7     C     0.98657   0.23860   0.78188   0.00000  Uiso   1.00
C8     C     0.00044   0.18587   0.74225   0.00000  Uiso   1.00
C9     C     0.99683   0.09880   0.66656   0.00000  Uiso   1.00
C10    C     0.05289   0.29790   0.94100   0.00000  Uiso   1.00
C11    C     0.01151   0.29367   0.99096   0.00000  Uiso   1.00
C12    C     0.03679   0.26611   0.04695   0.00000  Uiso   1.00
C13    C     0.05421   0.22551   0.14760   0.00000  Uiso   1.00
C14    C     0.15381   0.28482   0.88620   0.00000  Uiso   1.00
C15    C     0.15935   0.36196   0.87141   0.00000  Uiso   1.00
C16    C     0.22012   0.40720   0.86399   0.00000  Uiso   1.00
C17    C     0.21427   0.47583   0.85059   0.00000  Uiso   1.00
C18    C     0.10367   0.24547   0.83317   0.00000  Uiso   1.00
C19    C     0.11762   0.19277   0.79360   0.00000  Uiso   1.00
C20    C     0.06490   0.16332   0.74802   0.00000  Uiso   1.00
C21    C     0.11723   0.27540   0.94675   0.00000  Uiso   1.00
C22    C     0.14257   0.24784   0.00268   0.00000  Uiso   1.00
C23    C     0.10124   0.24357   0.05271   0.00000  Uiso   1.00
H24    H     0.98527   0.34376   0.87113   0.00000  Uiso   1.00
H25    H     0.03927   0.47043   0.84782   0.00000  Uiso   1.00
H26    H     0.93679   0.25602   0.77745   0.00000  Uiso   1.00
H27    H     0.96173   0.31109   0.98649   0.00000  Uiso   1.00
H28    H     0.12751   0.60093   0.82448   0.00000  Uiso   1.00
H29    H     0.91141   0.14883   0.67612   0.00000  Uiso   1.00
H30    H     0.96400   0.26494   0.11692   0.00000  Uiso   1.00
H31    H     0.20390   0.26730   0.89068   0.00000  Uiso   1.00
H32    H     0.26990   0.38977   0.86844   0.00000  Uiso   1.00
H33    H     0.16742   0.17536   0.79807   0.00000  Uiso   1.00
H34    H     0.19236   0.23043   0.00711   0.00000  Uiso   1.00
H35    H     0.31470   0.53547   0.84122   0.00000  Uiso   1.00
H36    H     0.09860   0.08336   0.69286   0.00000  Uiso   1.00
H37    H     0.15119   0.19948   0.13366   0.00000  Uiso   1.00
O38    O     0.26058   0.65014   0.81785   0.00000  Uiso   1.00
O39    O     0.97706   0.05699   0.62322   0.00000  Uiso   1.00
O40    O     0.04606   0.20934   0.20153   0.00000  Uiso   1.00
N41    N     0.16251   0.56872   0.83149   0.00000  Uiso   1.00
N42    N     0.96047   0.14604   0.69277   0.00000  Uiso   1.00
N43    N     0.00963   0.25458   0.10488   0.00000  Uiso   1.00
N44    N     0.26324   0.53350   0.84050   0.00000  Uiso   1.00
N45    N     0.06120   0.11081   0.70178   0.00000  Uiso   1.00
N46    N     0.11036   0.21935   0.11389   0.00000  Uiso   1.00
C47    C     0.69189   0.15361   0.24734   0.00000  Uiso   1.00
C48    C     0.64193   0.15509   0.29815   0.00000  Uiso   1.00
C49    C     0.60881   0.09729   0.32726   0.00000  Uiso   1.00
C50    C     0.56508   0.10960   0.37258   0.00000  Uiso   1.00
C51    C     0.48904   0.10159   0.44908   0.00000  Uiso   1.00
C52    C     0.66214   0.19023   0.19040   0.00000  Uiso   1.00
C53    C     0.64601   0.16199   0.12891   0.00000  Uiso   1.00
C54    C     0.61929   0.20389   0.08352   0.00000  Uiso   1.00
C55    C     0.57466   0.25046   0.99272   0.00000  Uiso   1.00
C56    C     0.75873   0.20093   0.27315   0.00000  Uiso   1.00
C57    C     0.82383   0.18169   0.28122   0.00000  Uiso   1.00
C58    C     0.87844   0.23260   0.30549   0.00000  Uiso   1.00
C59    C     0.98379   0.29578   0.34317   0.00000  Uiso   1.00
C60    C     0.67313   0.27825   0.27605   0.00000  Uiso   1.00
C61    C     0.63174   0.22279   0.31374   0.00000  Uiso   1.00
C62    C     0.58806   0.23519   0.35903   0.00000  Uiso   1.00
C63    C     0.55488   0.17742   0.38821   0.00000  Uiso   1.00
C64    C     0.65194   0.25793   0.20599   0.00000  Uiso   1.00
C65    C     0.62525   0.29988   0.16068   0.00000  Uiso   1.00
C66    C     0.60909   0.27171   0.09914   0.00000  Uiso   1.00
C67    C     0.74854   0.26863   0.28874   0.00000  Uiso   1.00
C68    C     0.80307   0.31958   0.31300   0.00000  Uiso   1.00
C69    C     0.86823   0.30042   0.32111   0.00000  Uiso   1.00
H70    H     0.69982   0.10091   0.23520   0.00000  Uiso   1.00
H71    H     0.61671   0.04491   0.31518   0.00000  Uiso   1.00
H72    H     0.65391   0.10960   0.11686   0.00000  Uiso   1.00
H73    H     0.83169   0.12930   0.26915   0.00000  Uiso   1.00
H74    H     0.52005   0.01267   0.41071   0.00000  Uiso   1.00
H75    H     0.59851   0.14909   0.99254   0.00000  Uiso   1.00
H76    H     0.97340   0.19062   0.31368   0.00000  Uiso   1.00
H77    H     0.66519   0.33096   0.28819   0.00000  Uiso   1.00
H78    H     0.58018   0.28758   0.37109   0.00000  Uiso   1.00
H79    H     0.61738   0.35227   0.17276   0.00000  Uiso   1.00
H80    H     0.79516   0.37197   0.32506   0.00000  Uiso   1.00
H81    H     0.49040   0.20963   0.45609   0.00000  Uiso   1.00
H82    H     0.56886   0.34605   0.03791   0.00000  Uiso   1.00
H83    H     0.94375   0.38758   0.35905   0.00000  Uiso   1.00
O84    O     0.44991   0.07846   0.48696   0.00000  Uiso   1.00
O85    O     0.55285   0.25744   0.93832   0.00000  Uiso   1.00
O86    O     0.04471   0.31193   0.35966   0.00000  Uiso   1.00
N87    N     0.52475   0.06498   0.41002   0.00000  Uiso   1.00
N88    N     0.59809   0.19252   0.01906   0.00000  Uiso   1.00
N89    N     0.94859   0.23135   0.31928   0.00000  Uiso   1.00
N90    N     0.50880   0.17096   0.43444   0.00000  Uiso   1.00
N91    N     0.58214   0.29850   0.04347   0.00000  Uiso   1.00
N92    N     0.93264   0.33734   0.34370   0.00000  Uiso   1.00
C93    C     0.18459   0.99353   0.04874   0.00000  Uiso   1.00
C94    C     0.26213   0.99178   0.05644   0.00000  Uiso   1.00
C95    C     0.31229   0.03696   0.02899   0.00000  Uiso   1.00
C96    C     0.38039   0.02674   0.04183   0.00000  Uiso   1.00
C97    C     0.49816   0.03214   0.04785   0.00000  Uiso   1.00
C98    C     0.14999   0.92123   0.02290   0.00000  Uiso   1.00
C99    C     0.10586   0.90711   0.96725   0.00000  Uiso   1.00
C100   C     0.07955   0.83749   0.95186   0.00000  Uiso   1.00
C101   C     0.02318   0.73337   0.90583   0.00000  Uiso   1.00
C102   C     0.16339   0.00006   0.11594   0.00000  Uiso   1.00
C103   C     0.13051   0.05220   0.13852   0.00000  Uiso   1.00
C104   C     0.11546   0.04894   0.20145   0.00000  Uiso   1.00
C105   C     0.07990   0.06721   0.29987   0.00000  Uiso   1.00
C106   C     0.21630   0.89502   0.12034   0.00000  Uiso   1.00
C107   C     0.27935   0.93827   0.09533   0.00000  Uiso   1.00
C108   C     0.34738   0.92797   0.10822   0.00000  Uiso   1.00
C109   C     0.39764   0.97314   0.08079   0.00000  Uiso   1.00
C110   C     0.16721   0.86773   0.06179   0.00000  Uiso   1.00
C111   C     0.14095   0.79812   0.04648   0.00000  Uiso   1.00
C112   C     0.09681   0.78389   0.99083   0.00000  Uiso   1.00
C113   C     0.18061   0.94655   0.15483   0.00000  Uiso   1.00
C114   C     0.16561   0.94321   0.21774   0.00000  Uiso   1.00
C115   C     0.13272   0.99533   0.24041   0.00000  Uiso   1.00
H116   H     0.17118   0.03518   0.01845   0.00000  Uiso   1.00
H117   H     0.29894   0.07836   0.99889   0.00000  Uiso   1.00
H118   H     0.09254   0.94852   0.93717   0.00000  Uiso   1.00
H119   H     0.11719   0.09359   0.10840   0.00000  Uiso   1.00
H120   H     0.44819   0.10262   0.99433   0.00000  Uiso   1.00
H121   H     0.01296   0.82886   0.86420   0.00000  Uiso   1.00
H122   H     0.06494   0.13476   0.22528   0.00000  Uiso   1.00
H123   H     0.22971   0.85336   0.15063   0.00000  Uiso   1.00
H124   H     0.36070   0.88656   0.13832   0.00000  Uiso   1.00
H125   H     0.15429   0.75672   0.07659   0.00000  Uiso   1.00
H126   H     0.17894   0.90179   0.24783   0.00000  Uiso   1.00
H127   H     0.49831   0.94695   0.10750   0.00000  Uiso   1.00
H128   H     0.06307   0.67318   0.97736   0.00000  Uiso   1.00
H129   H     0.11506   0.97909   0.33844   0.00000  Uiso   1.00
O130   O     0.55836   0.04989   0.04042   0.00000  Uiso   1.00
O131   O     0.98734   0.69073   0.86969   0.00000  Uiso   1.00
O132   O     0.05554   0.09207   0.34342   0.00000  Uiso   1.00
N133   N     0.44201   0.06144   0.02267   0.00000  Uiso   1.00
N134   N     0.03510   0.80548   0.90099   0.00000  Uiso   1.00
N135   N     0.08368   0.09147   0.23857   0.00000  Uiso   1.00
N136   N     0.46898   0.97767   0.08356   0.00000  Uiso   1.00
N137   N     0.06207   0.72171   0.96189   0.00000  Uiso   1.00
N138   N     0.11065   0.00770   0.29946   0.00000  Uiso   1.00
C139   C     0.47448   0.41738   0.61270   0.00000  Uiso   1.00
C140   C     0.48378   0.40435   0.68379   0.00000  Uiso   1.00
C141   C     0.46245   0.44324   0.73169   0.00000  Uiso   1.00
C142   C     0.47572   0.42291   0.79376   0.00000  Uiso   1.00
C143   C     0.48504   0.41135   0.90207   0.00000  Uiso   1.00
C144   C     0.43511   0.34938   0.58124   0.00000  Uiso   1.00
C145   C     0.37287   0.34207   0.54290   0.00000  Uiso   1.00
C146   C     0.34518   0.27548   0.51864   0.00000  Uiso   1.00
C147   C     0.27896   0.17859   0.46769   0.00000  Uiso   1.00
C148   C     0.54671   0.42627   0.59025   0.00000  Uiso   1.00
C149   C     0.57830   0.48360   0.55948   0.00000  Uiso   1.00
C150   C     0.64456   0.48173   0.54279   0.00000  Uiso   1.00
C151   C     0.75162   0.50423   0.50584   0.00000  Uiso   1.00
C152   C     0.53598   0.31211   0.63776   0.00000  Uiso   1.00
C153   C     0.51718   0.34717   0.69740   0.00000  Uiso   1.00
C154   C     0.53049   0.32677   0.75942   0.00000  Uiso   1.00
C155   C     0.50919   0.36563   0.80740   0.00000  Uiso   1.00
C156   C     0.46851   0.29221   0.59485   0.00000  Uiso   1.00
C157   C     0.44091   0.22560   0.57063   0.00000  Uiso   1.00
C158   C     0.37864   0.21819   0.53227   0.00000  Uiso   1.00
C159   C     0.58011   0.36910   0.60386   0.00000  Uiso   1.00
C160   C     0.64634   0.36713   0.58721   0.00000  Uiso   1.00
C161   C     0.67802   0.42445   0.55643   0.00000  Uiso   1.00
H162   H     0.44847   0.46190   0.60210   0.00000  Uiso   1.00
H163   H     0.43659   0.48749   0.72114   0.00000  Uiso   1.00
H164   H     0.34703   0.38633   0.53237   0.00000  Uiso   1.00
H165   H     0.55243   0.52784   0.54895   0.00000  Uiso   1.00
H166   H     0.43813   0.49063   0.85911   0.00000  Uiso   1.00
H167   H     0.24929   0.27734   0.46107   0.00000  Uiso   1.00
H168   H     0.68242   0.57574   0.49604   0.00000  Uiso   1.00
H169   H     0.56199   0.26759   0.64836   0.00000  Uiso   1.00
H170   H     0.55634   0.28252   0.76994   0.00000  Uiso   1.00
H171   H     0.46677   0.18137   0.58117   0.00000  Uiso   1.00
H172   H     0.67217   0.32288   0.59776   0.00000  Uiso   1.00
H173   H     0.53532   0.32427   0.89872   0.00000  Uiso   1.00
H174   H     0.34648   0.11098   0.50068   0.00000  Uiso   1.00
H175   H     0.77960   0.40938   0.53565   0.00000  Uiso   1.00
O176   O     0.48094   0.42076   0.95806   0.00000  Uiso   1.00
O177   O     0.23320   0.14094   0.43584   0.00000  Uiso   1.00
O178   O     0.80145   0.53244   0.48171   0.00000  Uiso   1.00
N179   N     0.46179   0.44943   0.85175   0.00000  Uiso   1.00
N180   N     0.28523   0.25002   0.47961   0.00000  Uiso   1.00
N181   N     0.69016   0.52900   0.51229   0.00000  Uiso   1.00
N182   N     0.51409   0.35992   0.87306   0.00000  Uiso   1.00
N183   N     0.33753   0.16051   0.50093   0.00000  Uiso   1.00
N184   N     0.74246   0.43948   0.53360   0.00000  Uiso   1.00
C185   C     0.37199   0.84509   0.55803   0.00000  Uiso   1.00
C186   C     0.34656   0.89493   0.60351   0.00000  Uiso   1.00
C187   C     0.35571   0.96705   0.59987   0.00000  Uiso   1.00
C188   C     0.32855   0.00334   0.64600   0.00000  Uiso   1.00
C189   C     0.29436   0.08600   0.70930   0.00000  Uiso   1.00
C190   C     0.30820   0.79354   0.53179   0.00000  Uiso   1.00
C191   C     0.28510   0.78041   0.46786   0.00000  Uiso   1.00
C192   C     0.22567   0.73134   0.45363   0.00000  Uiso   1.00
C193   C     0.13195   0.65655   0.40559   0.00000  Uiso   1.00
C194   C     0.41702   0.80308   0.59935   0.00000  Uiso   1.00
C195   C     0.48543   0.79796   0.59221   0.00000  Uiso   1.00
C196   C     0.51761   0.75691   0.63484   0.00000  Uiso   1.00
C197   C     0.59286   0.69694   0.69169   0.00000  Uiso   1.00
C198   C     0.30750   0.78130   0.64642   0.00000  Uiso   1.00
C199   C     0.31153   0.86028   0.65152   0.00000  Uiso   1.00
C200   C     0.28436   0.89647   0.69767   0.00000  Uiso   1.00
C201   C     0.29347   0.96863   0.69410   0.00000  Uiso   1.00
C202   C     0.27317   0.75889   0.57980   0.00000  Uiso   1.00
C203   C     0.21376   0.70983   0.56566   0.00000  Uiso   1.00
C204   C     0.19058   0.69663   0.50173   0.00000  Uiso   1.00
C205   C     0.38200   0.76843   0.64736   0.00000  Uiso   1.00
C206   C     0.41408   0.72738   0.69001   0.00000  Uiso   1.00
C207   C     0.48252   0.72220   0.68294   0.00000  Uiso   1.00
H208   H     0.39926   0.87206   0.52064   0.00000  Uiso   1.00
H209   H     0.38281   0.99384   0.56270   0.00000  Uiso   1.00
H210   H     0.31222   0.80722   0.43072   0.00000  Uiso   1.00
H211   H     0.51252   0.82478   0.55505   0.00000  Uiso   1.00
H212   H     0.34910   0.11358   0.63049   0.00000  Uiso   1.00
H213   H     0.20028   0.72006   0.35220   0.00000  Uiso   1.00
H214   H     0.62264   0.75708   0.61437   0.00000  Uiso   1.00
H215   H     0.28023   0.75432   0.68380   0.00000  Uiso   1.00
H216   H     0.25725   0.86964   0.73482   0.00000  Uiso   1.00
H217   H     0.18667   0.68302   0.60283   0.00000  Uiso   1.00
H218   H     0.38696   0.70058   0.72716   0.00000  Uiso   1.00
H219   H     0.24720   0.01277   0.77018   0.00000  Uiso   1.00
H220   H     0.09838   0.61925   0.49189   0.00000  Uiso   1.00
H221   H     0.52073   0.65627   0.75406   0.00000  Uiso   1.00
O222   O     0.28516   0.14116   0.73094   0.00000  Uiso   1.00
O223   O     0.08993   0.62488   0.36583   0.00000  Uiso   1.00
O224   O     0.64404   0.67344   0.70979   0.00000  Uiso   1.00
N225   N     0.32829   0.07403   0.65638   0.00000  Uiso   1.00
N226   N     0.18914   0.70612   0.39619   0.00000  Uiso   1.00
N227   N     0.58400   0.74071   0.64129   0.00000  Uiso   1.00
N228   N     0.27345   0.01979   0.73154   0.00000  Uiso   1.00
N229   N     0.13431   0.65188   0.47135   0.00000  Uiso   1.00
N230   N     0.52917   0.68647   0.71645   0.00000  Uiso   1.00
C231   C     0.81385   0.66239   0.35667   0.00000  Uiso   1.00
C232   C     0.87541   0.70123   0.32600   0.00000  Uiso   1.00
C233   C     0.93947   0.68032   0.32494   0.00000  Uiso   1.00
C234   C     0.98898   0.72306   0.29446   0.00000  Uiso   1.00
C235   C     0.08671   0.77401   0.25112   0.00000  Uiso   1.00
C236   C     0.75397   0.64915   0.30419   0.00000  Uiso   1.00
C237   C     0.71592   0.58445   0.28480   0.00000  Uiso   1.00
C238   C     0.66320   0.58335   0.23597   0.00000  Uiso   1.00
C239   C     0.57235   0.55345   0.15880   0.00000  Uiso   1.00
C240   C     0.79437   0.71428   0.40403   0.00000  Uiso   1.00
C241   C     0.79027   0.70433   0.46859   0.00000  Uiso   1.00
C242   C     0.77154   0.75806   0.50383   0.00000  Uiso   1.00
C243   C     0.74342   0.82929   0.58168   0.00000  Uiso   1.00
C244   C     0.78788   0.77548   0.30444   0.00000  Uiso   1.00
C245   C     0.86130   0.76266   0.29762   0.00000  Uiso   1.00
C246   C     0.91074   0.80544   0.26714   0.00000  Uiso   1.00
C247   C     0.97486   0.78460   0.26604   0.00000  Uiso   1.00
C248   C     0.73986   0.71058   0.27581   0.00000  Uiso   1.00
C249   C     0.68718   0.70957   0.22701   0.00000  Uiso   1.00
C250   C     0.64907   0.64489   0.20755   0.00000  Uiso   1.00
C251   C     0.78026   0.77571   0.37566   0.00000  Uiso   1.00
C252   C     0.76154   0.82946   0.41080   0.00000  Uiso   1.00
C253   C     0.75741   0.81960   0.47540   0.00000  Uiso   1.00
H254   H     0.82483   0.61456   0.37876   0.00000  Uiso   1.00
H255   H     0.95036   0.63277   0.34690   0.00000  Uiso   1.00
H256   H     0.72684   0.53692   0.30677   0.00000  Uiso   1.00
H257   H     0.80119   0.65679   0.49053   0.00000  Uiso   1.00
H258   H     0.08331   0.68004   0.29904   0.00000  Uiso   1.00
H259   H     0.61199   0.47793   0.21444   0.00000  Uiso   1.00
H260   H     0.76875   0.73070   0.60195   0.00000  Uiso   1.00
H261   H     0.77690   0.82331   0.28234   0.00000  Uiso   1.00
H262   H     0.89980   0.85298   0.24519   0.00000  Uiso   1.00
H263   H     0.67628   0.75712   0.20506   0.00000  Uiso   1.00
H264   H     0.75063   0.87699   0.38883   0.00000  Uiso   1.00
H265   H     0.04227   0.85876   0.21649   0.00000  Uiso   1.00
H266   H     0.57095   0.65665   0.13189   0.00000  Uiso   1.00
H267   H     0.72772   0.90942   0.51940   0.00000  Uiso   1.00
O268   O     0.14450   0.78514   0.23504   0.00000  Uiso   1.00
O269   O     0.52614   0.51998   0.12407   0.00000  Uiso   1.00
O270   O     0.73182   0.85161   0.63246   0.00000  Uiso   1.00
N271   N     0.05679   0.71804   0.28472   0.00000  Uiso   1.00
N272   N     0.61614   0.52908   0.20562   0.00000  Uiso   1.00
N273   N     0.76268   0.76538   0.56790   0.00000  Uiso   1.00
N274   N     0.03471   0.81421   0.24030   0.00000  Uiso   1.00
N275   N     0.59406   0.62525   0.16120   0.00000  Uiso   1.00
N276   N     0.74060   0.86156   0.52348   0.00000  Uiso   1.00
C277   C     0.85356   0.69057   0.98100   0.00000  Uiso   1.00
C278   C     0.87119   0.63411   0.02604   0.00000  Uiso   1.00
C279   C     0.92099   0.59227   0.01891   0.00000  Uiso   1.00
C280   C     0.92929   0.54369   0.06528   0.00000  Uiso   1.00
C281   C     0.96279   0.45703   0.12739   0.00000  Uiso   1.00
C282   C     0.86265   0.75767   0.02170   0.00000  Uiso   1.00
C283   C     0.90526   0.81973   0.01091   0.00000  Uiso   1.00
C284   C     0.90637   0.87518   0.05362   0.00000  Uiso   1.00
C285   C     0.92658   0.98037   0.10897   0.00000  Uiso   1.00
C286   C     0.77625   0.67178   0.96037   0.00000  Uiso   1.00
C287   C     0.74620   0.66164   0.89801   0.00000  Uiso   1.00
C288   C     0.67455   0.64478   0.88909   0.00000  Uiso   1.00
C289   C     0.56061   0.61662   0.84921   0.00000  Uiso   1.00
C290   C     0.77974   0.67869   0.07603   0.00000  Uiso   1.00
C291   C     0.83110   0.62766   0.07766   0.00000  Uiso   1.00
C292   C     0.83932   0.57913   0.12406   0.00000  Uiso   1.00
C293   C     0.88912   0.53722   0.11699   0.00000  Uiso   1.00
C294   C     0.82256   0.75122   0.07332   0.00000  Uiso   1.00
C295   C     0.82360   0.80659   0.11606   0.00000  Uiso   1.00
C296   C     0.86620   0.86871   0.10534   0.00000  Uiso   1.00
C297   C     0.73615   0.66533   0.01199   0.00000  Uiso   1.00
C298   C     0.66454   0.64849   0.00316   0.00000  Uiso   1.00
C299   C     0.63439   0.63832   0.94080   0.00000  Uiso   1.00
H300   H     0.88477   0.69560   0.94081   0.00000  Uiso   1.00
H301   H     0.95201   0.59729   0.97896   0.00000  Uiso   1.00
H302   H     0.93628   0.82471   0.97096   0.00000  Uiso   1.00
H303   H     0.77724   0.66664   0.85808   0.00000  Uiso   1.00
H304   H     0.00889   0.48546   0.04403   0.00000  Uiso   1.00
H305   H     0.97571   0.96501   0.02715   0.00000  Uiso   1.00
H306   H     0.64035   0.63169   0.78912   0.00000  Uiso   1.00
H307   H     0.74853   0.67366   0.11622   0.00000  Uiso   1.00
H308   H     0.80829   0.57414   0.16400   0.00000  Uiso   1.00
H309   H     0.79256   0.80158   0.15600   0.00000  Uiso   1.00
H310   H     0.63353   0.64350   0.04312   0.00000  Uiso   1.00
H311   H     0.89224   0.46668   0.19421   0.00000  Uiso   1.00
H312   H     0.85906   0.94624   0.17733   0.00000  Uiso   1.00
H313   H     0.52370   0.61291   0.93931   0.00000  Uiso   1.00
O314   O     0.99235   0.41102   0.14739   0.00000  Uiso   1.00
O315   O     0.94881   0.04017   0.12524   0.00000  Uiso   1.00
O316   O     0.50883   0.60285   0.81296   0.00000  Uiso   1.00
N317   N     0.97322   0.49469   0.07281   0.00000  Uiso   1.00
N318   N     0.94221   0.94304   0.05704   0.00000  Uiso   1.00
N319   N     0.62868   0.63142   0.83450   0.00000  Uiso   1.00
N320   N     0.91046   0.48458   0.15362   0.00000  Uiso   1.00
N321   N     0.87944   0.93293   0.13785   0.00000  Uiso   1.00
N322   N     0.56591   0.62132   0.91531   0.00000  Uiso   1.00
C323   C     0.04018   0.91060   0.71266   0.00000  Uiso   1.00
C324   C     0.05057   0.89168   0.64422   0.00000  Uiso   1.00
C325   C     0.06709   0.93873   0.59714   0.00000  Uiso   1.00
C326   C     0.07439   0.91100   0.53756   0.00000  Uiso   1.00
C327   C     0.09191   0.89260   0.43313   0.00000  Uiso   1.00
C328   C     0.09072   0.87536   0.75487   0.00000  Uiso   1.00
C329   C     0.14099   0.90870   0.80081   0.00000  Uiso   1.00
C330   C     0.18208   0.86723   0.83438   0.00000  Uiso   1.00
C331   C     0.26190   0.82349   0.90175   0.00000  Uiso   1.00
C332   C     0.96800   0.87367   0.72378   0.00000  Uiso   1.00
C333   C     0.91510   0.90558   0.74360   0.00000  Uiso   1.00
C334   C     0.85288   0.86268   0.75101   0.00000  Uiso   1.00
C335   C     0.74216   0.81632   0.77011   0.00000  Uiso   1.00
C336   C     0.02374   0.77768   0.69059   0.00000  Uiso   1.00
C337   C     0.04164   0.81948   0.63224   0.00000  Uiso   1.00
C338   C     0.04891   0.79167   0.57272   0.00000  Uiso   1.00
C339   C     0.06544   0.83867   0.52555   0.00000  Uiso   1.00
C340   C     0.08179   0.80317   0.74288   0.00000  Uiso   1.00
C341   C     0.12281   0.76164   0.77639   0.00000  Uiso   1.00
C342   C     0.17314   0.79490   0.82237   0.00000  Uiso   1.00
C343   C     0.95907   0.80147   0.71179   0.00000  Uiso   1.00
C344   C     0.89692   0.75852   0.71917   0.00000  Uiso   1.00
C345   C     0.84393   0.79035   0.73900   0.00000  Uiso   1.00
H346   H     0.04713   0.96681   0.72200   0.00000  Uiso   1.00
H347   H     0.07400   0.99460   0.60644   0.00000  Uiso   1.00
H348   H     0.14789   0.96457   0.81008   0.00000  Uiso   1.00
H349   H     0.92203   0.96145   0.75288   0.00000  Uiso   1.00
H350   H     0.09988   0.99357   0.47303   0.00000  Uiso   1.00
H351   H     0.25565   0.93025   0.90244   0.00000  Uiso   1.00
H352   H     0.77939   0.92367   0.78182   0.00000  Uiso   1.00
H353   H     0.01679   0.72147   0.68126   0.00000  Uiso   1.00
H354   H     0.04200   0.73580   0.56345   0.00000  Uiso   1.00
H355   H     0.11588   0.70577   0.76710   0.00000  Uiso   1.00
H356   H     0.89003   0.70265   0.70989   0.00000  Uiso   1.00
H357   H     0.07391   0.78351   0.43814   0.00000  Uiso   1.00
H358   H     0.22968   0.72020   0.86756   0.00000  Uiso   1.00
H359   H     0.75342   0.71362   0.74693   0.00000  Uiso   1.00
O360   O     0.10405   0.90239   0.37884   0.00000  Uiso   1.00
O361   O     0.30840   0.81932   0.94221   0.00000  Uiso   1.00
O362   O     0.68356   0.81069   0.78395   0.00000  Uiso   1.00
N363   N     0.09030   0.94217   0.48099   0.00000  Uiso   1.00
N364   N     0.23594   0.88297   0.88245   0.00000  Uiso   1.00
N365   N     0.79068   0.87682   0.76969   0.00000  Uiso   1.00
N366   N     0.07632   0.82914   0.46221   0.00000  Uiso   1.00
N367   N     0.22196   0.76994   0.86368   0.00000  Uiso   1.00
N368   N     0.77671   0.76379   0.75092   0.00000  Uiso   1.00
C369   C     0.63297   0.03710   0.85379   0.00000  Uiso   1.00
C370   C     0.55860   0.04996   0.85426   0.00000  Uiso   1.00
C371   C     0.50428   0.00391   0.87497   0.00000  Uiso   1.00
C372   C     0.44014   0.02539   0.87157   0.00000  Uiso   1.00
C373   C     0.32610   0.03545   0.87587   0.00000  Uiso   1.00
C374   C     0.67800   0.09763   0.89250   0.00000  Uiso   1.00
C375   C     0.72406   0.09166   0.94535   0.00000  Uiso   1.00
C376   C     0.76043   0.15328   0.97413   0.00000  Uiso   1.00
C377   C     0.83179   0.23735   0.03777   0.00000  Uiso   1.00
C378   C     0.65045   0.04599   0.78525   0.00000  Uiso   1.00
C379   C     0.67337   0.99661   0.74792   0.00000  Uiso   1.00
C380   C     0.68657   0.01476   0.68641   0.00000  Uiso   1.00
C381   C     0.71516   0.01865   0.58352   0.00000  Uiso   1.00
C382   C     0.61565   0.15715   0.81093   0.00000  Uiso   1.00
C383   C     0.54920   0.11516   0.83099   0.00000  Uiso   1.00
C384   C     0.48512   0.13672   0.82755   0.00000  Uiso   1.00
C385   C     0.43071   0.09071   0.84825   0.00000  Uiso   1.00
C386   C     0.66859   0.16283   0.86922   0.00000  Uiso   1.00
C387   C     0.70490   0.22448   0.89793   0.00000  Uiso   1.00
C388   C     0.75101   0.21860   0.95081   0.00000  Uiso   1.00
C389   C     0.64104   0.11119   0.76197   0.00000  Uiso   1.00
C390   C     0.65421   0.12943   0.70050   0.00000  Uiso   1.00
C391   C     0.67714   0.08008   0.66309   0.00000  Uiso   1.00
H392   H     0.64030   0.98634   0.87191   0.00000  Uiso   1.00
H393   H     0.51158   0.95345   0.89298   0.00000  Uiso   1.00
H394   H     0.73134   0.04120   0.96334   0.00000  Uiso   1.00
H395   H     0.68065   0.94616   0.76595   0.00000  Uiso   1.00
H396   H     0.36473   0.94576   0.90610   0.00000  Uiso   1.00
H397   H     0.82811   0.13076   0.05445   0.00000  Uiso   1.00
H398   H     0.72123   0.93036   0.63820   0.00000  Uiso   1.00
H399   H     0.60833   0.20792   0.79281   0.00000  Uiso   1.00
H400   H     0.47786   0.18719   0.80954   0.00000  Uiso   1.00
H401   H     0.69761   0.27493   0.87990   0.00000  Uiso   1.00
H402   H     0.64692   0.17989   0.68251   0.00000  Uiso   1.00
H403   H     0.33736   0.13546   0.83837   0.00000  Uiso   1.00
H404   H     0.80075   0.32047   0.98673   0.00000  Uiso   1.00
H405   H     0.69386   0.12006   0.57047   0.00000  Uiso   1.00
O406   O     0.26580   0.02299   0.88469   0.00000  Uiso   1.00
O407   O     0.87375   0.26570   0.07931   0.00000  Uiso   1.00
O408   O     0.73351   0.00277   0.53320   0.00000  Uiso   1.00
N409   N     0.37619   0.99324   0.88785   0.00000  Uiso   1.00
N410   N     0.80942   0.16621   0.02656   0.00000  Uiso   1.00
N411   N     0.70951   0.97886   0.63740   0.00000  Uiso   1.00
N412   N     0.36147   0.09532   0.85141   0.00000  Uiso   1.00
N413   N     0.79469   0.26829   0.99012   0.00000  Uiso   1.00
N414   N     0.69478   0.08094   0.60096   0.00000  Uiso   1.00
C415   C     0.32546   0.59707   0.22877   0.00000  Uiso   1.00
C416   C     0.33268   0.59951   0.15752   0.00000  Uiso   1.00
C417   C     0.36966   0.55865   0.12398   0.00000  Uiso   1.00
C418   C     0.36995   0.56876   0.05905   0.00000  Uiso   1.00
C419   C     0.38658   0.56509   0.95302   0.00000  Uiso   1.00
C420   C     0.35107   0.67117   0.25546   0.00000  Uiso   1.00
C421   C     0.40349   0.69056   0.30428   0.00000  Uiso   1.00
C422   C     0.41925   0.76100   0.32180   0.00000  Uiso   1.00
C423   C     0.46439   0.86857   0.36785   0.00000  Uiso   1.00
C424   C     0.24795   0.58262   0.23518   0.00000  Uiso   1.00
C425   C     0.21366   0.52757   0.26697   0.00000  Uiso   1.00
C426   C     0.14261   0.52347   0.26743   0.00000  Uiso   1.00
C427   C     0.02763   0.49356   0.28201   0.00000  Uiso   1.00
C428   C     0.26024   0.68767   0.17309   0.00000  Uiso   1.00
C429   C     0.29726   0.64872   0.12727   0.00000  Uiso   1.00
C430   C     0.29750   0.65889   0.06237   0.00000  Uiso   1.00
C431   C     0.33446   0.61806   0.02875   0.00000  Uiso   1.00
C432   C     0.31564   0.72038   0.22521   0.00000  Uiso   1.00
C433   C     0.33133   0.79080   0.24267   0.00000  Uiso   1.00
C434   C     0.38376   0.81030   0.29150   0.00000  Uiso   1.00
C435   C     0.21252   0.63184   0.20493   0.00000  Uiso   1.00
C436   C     0.14150   0.62782   0.20535   0.00000  Uiso   1.00
C437   C     0.10712   0.57277   0.23713   0.00000  Uiso   1.00
H438   H     0.35304   0.55876   0.25233   0.00000  Uiso   1.00
H439   H     0.39707   0.52058   0.14741   0.00000  Uiso   1.00
H440   H     0.43089   0.65247   0.32768   0.00000  Uiso   1.00
H441   H     0.24110   0.48950   0.29037   0.00000  Uiso   1.00
H442   H     0.43028   0.49997   0.01776   0.00000  Uiso   1.00
H443   H     0.50158   0.77806   0.39789   0.00000  Uiso   1.00
H444   H     0.10135   0.43441   0.31922   0.00000  Uiso   1.00
H445   H     0.23266   0.72599   0.14954   0.00000  Uiso   1.00
H446   H     0.27008   0.69698   0.03898   0.00000  Uiso   1.00
H447   H     0.30390   0.82887   0.21925   0.00000  Uiso   1.00
H448   H     0.11410   0.66591   0.18194   0.00000  Uiso   1.00
H449   H     0.32721   0.64315   0.92975   0.00000  Uiso   1.00
H450   H     0.39851   0.92124   0.30989   0.00000  Uiso   1.00
H451   H     0.99828   0.57759   0.23121   0.00000  Uiso   1.00
O452   O     0.40555   0.54947   0.90289   0.00000  Uiso   1.00
O453   O     0.49908   0.91431   0.40161   0.00000  Uiso   1.00
O454   O     0.97400   0.46346   0.29839   0.00000  Uiso   1.00
N455   N     0.40088   0.53763   0.01222   0.00000  Uiso   1.00
N456   N     0.46754   0.79763   0.36761   0.00000  Uiso   1.00
N457   N     0.09337   0.47637   0.29407   0.00000  Uiso   1.00
N458   N     0.34541   0.61468   0.96486   0.00000  Uiso   1.00
N459   N     0.41208   0.87468   0.32025   0.00000  Uiso   1.00
N460   N     0.03791   0.55341   0.24672   0.00000  Uiso   1.00
C461   C     0.28849   0.33323   0.27942   0.00000  Uiso   1.00
C462   C     0.31222   0.26446   0.26396   0.00000  Uiso   1.00
C463   C     0.29037   0.20083   0.29055   0.00000  Uiso   1.00
C464   C     0.31819   0.14403   0.27013   0.00000  Uiso   1.00
C465   C     0.34777   0.03625   0.25305   0.00000  Uiso   1.00
C466   C     0.35405   0.38475   0.30090   0.00000  Uiso   1.00
C467   C     0.36737   0.42226   0.35854   0.00000  Uiso   1.00
C468   C     0.43041   0.46673   0.36920   0.00000  Uiso   1.00
C469   C     0.52492   0.54574   0.40944   0.00000  Uiso   1.00
C470   C     0.25968   0.35889   0.21614   0.00000  Uiso   1.00
C471   C     0.19366   0.37467   0.20253   0.00000  Uiso   1.00
C472   C     0.17726   0.39738   0.14183   0.00000  Uiso   1.00
C473   C     0.12525   0.43623   0.05048   0.00000  Uiso   1.00
C474   C     0.37675   0.34551   0.19585   0.00000  Uiso   1.00
C475   C     0.36016   0.27114   0.21857   0.00000  Uiso   1.00
C476   C     0.38803   0.21442   0.19809   0.00000  Uiso   1.00
C477   C     0.36622   0.15071   0.22465   0.00000  Uiso   1.00
C478   C     0.40200   0.39143   0.25551   0.00000  Uiso   1.00
C479   C     0.46503   0.43585   0.26608   0.00000  Uiso   1.00
C480   C     0.47844   0.47342   0.32372   0.00000  Uiso   1.00
C481   C     0.30763   0.36556   0.17075   0.00000  Uiso   1.00
C482   C     0.29132   0.38826   0.11006   0.00000  Uiso   1.00
C483   C     0.22529   0.40407   0.09636   0.00000  Uiso   1.00
H484   H     0.25116   0.32804   0.31476   0.00000  Uiso   1.00
H485   H     0.25327   0.19569   0.32569   0.00000  Uiso   1.00
H486   H     0.33026   0.41709   0.39366   0.00000  Uiso   1.00
H487   H     0.15658   0.36950   0.23767   0.00000  Uiso   1.00
H488   H     0.27676   0.05190   0.31779   0.00000  Uiso   1.00
H489   H     0.43909   0.51876   0.46110   0.00000  Uiso   1.00
H490   H     0.07285   0.41841   0.13217   0.00000  Uiso   1.00
H491   H     0.41408   0.35071   0.16051   0.00000  Uiso   1.00
H492   H     0.42513   0.21960   0.16296   0.00000  Uiso   1.00
H493   H     0.50212   0.44101   0.23094   0.00000  Uiso   1.00
H494   H     0.32844   0.39342   0.07495   0.00000  Uiso   1.00
H495   H     0.41625   0.07132   0.18573   0.00000  Uiso   1.00
H496   H     0.57858   0.53818   0.32904   0.00000  Uiso   1.00
H497   H     0.21234   0.43782   0.00010   0.00000  Uiso   1.00
O498   O     0.35085   0.97496   0.25618   0.00000  Uiso   1.00
O499   O     0.56381   0.58747   0.44419   0.00000  Uiso   1.00
O500   O     0.08331   0.45581   0.01263   0.00000  Uiso   1.00
N501   N     0.30807   0.07446   0.28637   0.00000  Uiso   1.00
N502   N     0.45983   0.51094   0.42036   0.00000  Uiso   1.00
N503   N     0.11744   0.41714   0.11284   0.00000  Uiso   1.00
N504   N     0.38312   0.08491   0.21530   0.00000  Uiso   1.00
N505   N     0.53489   0.52138   0.34929   0.00000  Uiso   1.00
N506   N     0.19250   0.42758   0.04177   0.00000  Uiso   1.00
C507   C     0.13222   0.44990   0.50593   0.00000  Uiso   1.00
C508   C     0.08495   0.48336   0.54590   0.00000  Uiso   1.00
C509   C     0.02039   0.49869   0.52449   0.00000  Uiso   1.00
C510   C     0.98526   0.52927   0.56845   0.00000  Uiso   1.00
C511   C     0.90755   0.57903   0.62090   0.00000  Uiso   1.00
C512   C     0.20083   0.50006   0.51096   0.00000  Uiso   1.00
C513   C     0.23369   0.52944   0.46018   0.00000  Uiso   1.00
C514   C     0.29610   0.57407   0.47473   0.00000  Uiso   1.00
C515   C     0.39831   0.64972   0.47295   0.00000  Uiso   1.00
C516   C     0.14681   0.38480   0.54052   0.00000  Uiso   1.00
C517   C     0.13427   0.31727   0.51458   0.00000  Uiso   1.00
C518   C     0.15122   0.26486   0.55401   0.00000  Uiso   1.00
C519   C     0.16955   0.16156   0.59811   0.00000  Uiso   1.00
C520   C     0.18464   0.47693   0.62207   0.00000  Uiso   1.00
C521   C     0.11343   0.49804   0.60898   0.00000  Uiso   1.00
C522   C     0.07839   0.52861   0.65299   0.00000  Uiso   1.00
C523   C     0.01378   0.54398   0.63164   0.00000  Uiso   1.00
C524   C     0.22930   0.51475   0.57404   0.00000  Uiso   1.00
C525   C     0.29168   0.55935   0.58868   0.00000  Uiso   1.00
C526   C     0.32463   0.58879   0.53793   0.00000  Uiso   1.00
C527   C     0.17528   0.39949   0.60360   0.00000  Uiso   1.00
C528   C     0.19226   0.34718   0.64308   0.00000  Uiso   1.00
C529   C     0.17974   0.27958   0.61720   0.00000  Uiso   1.00
H530   H     0.11006   0.43847   0.45682   0.00000  Uiso   1.00
H531   H     0.99837   0.48733   0.47566   0.00000  Uiso   1.00
H532   H     0.21164   0.51806   0.41137   0.00000  Uiso   1.00
H533   H     0.11223   0.30592   0.46576   0.00000  Uiso   1.00
H534   H     0.88712   0.54800   0.52437   0.00000  Uiso   1.00
H535   H     0.33682   0.61278   0.38880   0.00000  Uiso   1.00
H536   H     0.12720   0.16545   0.50349   0.00000  Uiso   1.00
H537   H     0.20681   0.48837   0.67119   0.00000  Uiso   1.00
H538   H     0.10043   0.53997   0.70180   0.00000  Uiso   1.00
H539   H     0.31370   0.57070   0.63750   0.00000  Uiso   1.00
H540   H     0.21429   0.35856   0.69189   0.00000  Uiso   1.00
H541   H     0.96996   0.59072   0.70791   0.00000  Uiso   1.00
H542   H     0.41966   0.65550   0.57233   0.00000  Uiso   1.00
H543   H     0.21003   0.20817   0.68703   0.00000  Uiso   1.00
O544   O     0.85682   0.60242   0.63241   0.00000  Uiso   1.00
O545   O     0.44682   0.68740   0.45454   0.00000  Uiso   1.00
O546   O     0.17179   0.10052   0.60501   0.00000  Uiso   1.00
N547   N     0.92121   0.55096   0.56337   0.00000  Uiso   1.00
N548   N     0.34165   0.61153   0.43662   0.00000  Uiso   1.00
N549   N     0.14568   0.19332   0.54384   0.00000  Uiso   1.00
N550   N     0.96578   0.57395   0.66213   0.00000  Uiso   1.00
N551   N     0.38622   0.63452   0.53538   0.00000  Uiso   1.00
N552   N     0.19026   0.21631   0.64260   0.00000  Uiso   1.00
