data_job_07011
_audit_creation_date              2018-12-19
_audit_creation_method            'Materials Studio'
_symmetry_space_group_name_H-M    'P1'
_symmetry_Int_Tables_number       1
_symmetry_cell_setting            triclinic
loop_
_symmetry_equiv_pos_as_xyz
  x,y,z
_cell_length_a                    17.6657
_cell_length_b                    23.3123
_cell_length_c                    20.1335
_cell_angle_alpha                 104.9200
_cell_angle_beta                  107.1480
_cell_angle_gamma                 85.3301
loop_
_atom_site_label
_atom_site_type_symbol
_atom_site_fract_x
_atom_site_fract_y
_atom_site_fract_z
_atom_site_U_iso_or_equiv
_atom_site_adp_type
_atom_site_occupancy
C1     C     0.47357   0.71507   0.67474   0.00000  Uiso   1.00
C2     C     0.49314   0.65506   0.69311   0.00000  Uiso   1.00
C3     C     0.44410   0.62311   0.71291   0.00000  Uiso   1.00
C4     C     0.47285   0.56913   0.72757   0.00000  Uiso   1.00
C5     C     0.49182   0.47919   0.75688   0.00000  Uiso   1.00
C6     C     0.54000   0.75672   0.72513   0.00000  Uiso   1.00
C7     C     0.53036   0.81024   0.77184   0.00000  Uiso   1.00
C8     C     0.59857   0.84184   0.81344   0.00000  Uiso   1.00
C9     C     0.69029   0.90975   0.89243   0.00000  Uiso   1.00
C10    C     0.48234   0.70666   0.59971   0.00000  Uiso   1.00
C11    C     0.42422   0.71812   0.54097   0.00000  Uiso   1.00
C12    C     0.44389   0.70758   0.47698   0.00000  Uiso   1.00
C13    C     0.44609   0.69778   0.36123   0.00000  Uiso   1.00
C14    C     0.61185   0.67601   0.66556   0.00000  Uiso   1.00
C15    C     0.56825   0.63385   0.68812   0.00000  Uiso   1.00
C16    C     0.59708   0.57990   0.70275   0.00000  Uiso   1.00
C17    C     0.54809   0.54787   0.72257   0.00000  Uiso   1.00
C18    C     0.61511   0.73551   0.72014   0.00000  Uiso   1.00
C19    C     0.68335   0.76703   0.76168   0.00000  Uiso   1.00
C20    C     0.67381   0.82059   0.80845   0.00000  Uiso   1.00
C21    C     0.55745   0.68545   0.59472   0.00000  Uiso   1.00
C22    C     0.57721   0.67490   0.53081   0.00000  Uiso   1.00
C23    C     0.51914   0.68633   0.47199   0.00000  Uiso   1.00
H24    H     0.41510   0.73158   0.67862   0.00000  Uiso   1.00
H25    H     0.38598   0.63954   0.71676   0.00000  Uiso   1.00
H26    H     0.47223   0.82665   0.77568   0.00000  Uiso   1.00
H27    H     0.36611   0.73453   0.54484   0.00000  Uiso   1.00
H28    H     0.38682   0.52815   0.75688   0.00000  Uiso   1.00
H29    H     0.56868   0.92269   0.88108   0.00000  Uiso   1.00
H30    H     0.34491   0.72844   0.39432   0.00000  Uiso   1.00
H31    H     0.67033   0.65950   0.66168   0.00000  Uiso   1.00
H32    H     0.65521   0.56349   0.69889   0.00000  Uiso   1.00
H33    H     0.74146   0.75060   0.75781   0.00000  Uiso   1.00
H34    H     0.63534   0.65848   0.52697   0.00000  Uiso   1.00
H35    H     0.60534   0.46643   0.74238   0.00000  Uiso   1.00
H36    H     0.78720   0.86097   0.86658   0.00000  Uiso   1.00
H37    H     0.56343   0.66672   0.37982   0.00000  Uiso   1.00
O38    O     0.48154   0.43545   0.77443   0.00000  Uiso   1.00
O39    O     0.72013   0.95307   0.93738   0.00000  Uiso   1.00
O40    O     0.42655   0.69822   0.29876   0.00000  Uiso   1.00
N41    N     0.44032   0.52679   0.74834   0.00000  Uiso   1.00
N42    N     0.61035   0.89566   0.86448   0.00000  Uiso   1.00
N43    N     0.40115   0.71407   0.40940   0.00000  Uiso   1.00
N44    N     0.55790   0.49358   0.74054   0.00000  Uiso   1.00
N45    N     0.72793   0.86244   0.85667   0.00000  Uiso   1.00
N46    N     0.51873   0.68086   0.40160   0.00000  Uiso   1.00
C47    C     0.84689   0.43339   0.84432   0.00000  Uiso   1.00
C48    C     0.82269   0.42804   0.76375   0.00000  Uiso   1.00
C49    C     0.81767   0.37556   0.71098   0.00000  Uiso   1.00
C50    C     0.79444   0.38005   0.64034   0.00000  Uiso   1.00
C51    C     0.75957   0.36338   0.51785   0.00000  Uiso   1.00
C52    C     0.91693   0.47582   0.87647   0.00000  Uiso   1.00
C53    C     0.99113   0.46351   0.91850   0.00000  Uiso   1.00
C54    C     0.04722   0.50823   0.94276   0.00000  Uiso   1.00
C55    C     0.15864   0.56575   0.99532   0.00000  Uiso   1.00
C56    C     0.77892   0.46573   0.87106   0.00000  Uiso   1.00
C57    C     0.73709   0.44495   0.90856   0.00000  Uiso   1.00
C58    C     0.67699   0.48118   0.92828   0.00000  Uiso   1.00
C59    C     0.57413   0.52303   0.97245   0.00000  Uiso   1.00
C60    C     0.81457   0.53468   0.81269   0.00000  Uiso   1.00
C61    C     0.80514   0.48306   0.74657   0.00000  Uiso   1.00
C62    C     0.78190   0.48763   0.67599   0.00000  Uiso   1.00
C63    C     0.77684   0.43517   0.62313   0.00000  Uiso   1.00
C64    C     0.89938   0.53083   0.85930   0.00000  Uiso   1.00
C65    C     0.95537   0.57558   0.88351   0.00000  Uiso   1.00
C66    C     0.02964   0.56335   0.92555   0.00000  Uiso   1.00
C67    C     0.76136   0.52074   0.85389   0.00000  Uiso   1.00
C68    C     0.70132   0.55701   0.87356   0.00000  Uiso   1.00
C69    C     0.65941   0.53629   0.91108   0.00000  Uiso   1.00
H70    H     0.86057   0.39056   0.85769   0.00000  Uiso   1.00
H71    H     0.83127   0.33299   0.72430   0.00000  Uiso   1.00
H72    H     0.00470   0.42094   0.93179   0.00000  Uiso   1.00
H73    H     0.75069   0.40237   0.92184   0.00000  Uiso   1.00
H74    H     0.79107   0.29344   0.56883   0.00000  Uiso   1.00
H75    H     0.15675   0.47888   0.00635   0.00000  Uiso   1.00
H76    H     0.62113   0.43973   0.98539   0.00000  Uiso   1.00
H77    H     0.80090   0.57752   0.79932   0.00000  Uiso   1.00
H78    H     0.76832   0.53021   0.66272   0.00000  Uiso   1.00
H79    H     0.94176   0.61815   0.87021   0.00000  Uiso   1.00
H80    H     0.68775   0.59959   0.86026   0.00000  Uiso   1.00
H81    H     0.73998   0.45351   0.51885   0.00000  Uiso   1.00
H82    H     0.10567   0.63895   0.95637   0.00000  Uiso   1.00
H83    H     0.57004   0.59980   0.93540   0.00000  Uiso   1.00
O84    O     0.74520   0.33898   0.45503   0.00000  Uiso   1.00
O85    O     0.22495   0.58227   0.02905   0.00000  Uiso   1.00
O86    O     0.52223   0.53091   0.00154   0.00000  Uiso   1.00
N87    N     0.78350   0.33760   0.57581   0.00000  Uiso   1.00
N88    N     0.12539   0.51097   0.98486   0.00000  Uiso   1.00
N89    N     0.62465   0.47438   0.96528   0.00000  Uiso   1.00
N90    N     0.75601   0.42373   0.54892   0.00000  Uiso   1.00
N91    N     0.09791   0.59710   0.95796   0.00000  Uiso   1.00
N92    N     0.59716   0.56051   0.93838   0.00000  Uiso   1.00
C93    C     0.87666   0.52195   0.42568   0.00000  Uiso   1.00
C94    C     0.78990   0.52387   0.42486   0.00000  Uiso   1.00
C95    C     0.72607   0.50608   0.36460   0.00000  Uiso   1.00
C96    C     0.65132   0.51135   0.37508   0.00000  Uiso   1.00
C97    C     0.51819   0.51098   0.36341   0.00000  Uiso   1.00
C98    C     0.90731   0.58511   0.46019   0.00000  Uiso   1.00
C99    C     0.94220   0.61880   0.42965   0.00000  Uiso   1.00
C100   C     0.96630   0.67562   0.46987   0.00000  Uiso   1.00
C101   C     0.01551   0.77031   0.51308   0.00000  Uiso   1.00
C102   C     0.91958   0.48496   0.47817   0.00000  Uiso   1.00
C103   C     0.96481   0.43445   0.46274   0.00000  Uiso   1.00
C104   C     0.99925   0.40696   0.51810   0.00000  Uiso   1.00
C105   C     0.06751   0.34615   0.58922   0.00000  Uiso   1.00
C106   C     0.85743   0.56295   0.55144   0.00000  Uiso   1.00
C107   C     0.77946   0.54614   0.49317   0.00000  Uiso   1.00
C108   C     0.70479   0.55144   0.50374   0.00000  Uiso   1.00
C109   C     0.64085   0.53365   0.44350   0.00000  Uiso   1.00
C110   C     0.89687   0.60738   0.52850   0.00000  Uiso   1.00
C111   C     0.92092   0.66416   0.56878   0.00000  Uiso   1.00
C112   C     0.95584   0.69793   0.53830   0.00000  Uiso   1.00
C113   C     0.90913   0.50723   0.54647   0.00000  Uiso   1.00
C114   C     0.94352   0.47982   0.60187   0.00000  Uiso   1.00
C115   C     0.98879   0.42927   0.58653   0.00000  Uiso   1.00
H116   H     0.88479   0.50461   0.37250   0.00000  Uiso   1.00
H117   H     0.73417   0.48885   0.31175   0.00000  Uiso   1.00
H118   H     0.95029   0.60155   0.37679   0.00000  Uiso   1.00
H119   H     0.97288   0.41724   0.40988   0.00000  Uiso   1.00
H120   H     0.56258   0.48122   0.27451   0.00000  Uiso   1.00
H121   H     0.01828   0.71885   0.41166   0.00000  Uiso   1.00
H122   H     0.06592   0.33018   0.48143   0.00000  Uiso   1.00
H123   H     0.84929   0.58029   0.60462   0.00000  Uiso   1.00
H124   H     0.69672   0.56867   0.55660   0.00000  Uiso   1.00
H125   H     0.91283   0.68138   0.62164   0.00000  Uiso   1.00
H126   H     0.93542   0.49706   0.65472   0.00000  Uiso   1.00
H127   H     0.53218   0.54601   0.47324   0.00000  Uiso   1.00
H128   H     0.98789   0.78364   0.61039   0.00000  Uiso   1.00
H129   H     0.03553   0.39497   0.68016   0.00000  Uiso   1.00
O130   O     0.44765   0.50463   0.33810   0.00000  Uiso   1.00
O131   O     0.04553   0.81639   0.51803   0.00000  Uiso   1.00
O132   O     0.10803   0.30646   0.60957   0.00000  Uiso   1.00
N133   N     0.57636   0.49805   0.32788   0.00000  Uiso   1.00
N134   N     0.00241   0.72022   0.45609   0.00000  Uiso   1.00
N135   N     0.04697   0.35686   0.52133   0.00000  Uiso   1.00
N136   N     0.56000   0.53291   0.43481   0.00000  Uiso   1.00
N137   N     0.98605   0.75509   0.56303   0.00000  Uiso   1.00
N138   N     0.03061   0.39172   0.62826   0.00000  Uiso   1.00
C139   C     0.89328   0.24889   0.21206   0.00000  Uiso   1.00
C140   C     0.93942   0.21186   0.16254   0.00000  Uiso   1.00
C141   C     0.90716   0.17090   0.09834   0.00000  Uiso   1.00
C142   C     0.95932   0.14158   0.06086   0.00000  Uiso   1.00
C143   C     0.01857   0.08239   0.98000   0.00000  Uiso   1.00
C144   C     0.91273   0.31350   0.22115   0.00000  Uiso   1.00
C145   C     0.85803   0.35800   0.20625   0.00000  Uiso   1.00
C146   C     0.88773   0.41423   0.21813   0.00000  Uiso   1.00
C147   C     0.90555   0.51285   0.22833   0.00000  Uiso   1.00
C148   C     0.93048   0.23553   0.28513   0.00000  Uiso   1.00
C149   C     0.89070   0.21450   0.32402   0.00000  Uiso   1.00
C150   C     0.93534   0.20511   0.38978   0.00000  Uiso   1.00
C151   C     0.98070   0.18267   0.49930   0.00000  Uiso   1.00
C152   C     0.04329   0.26964   0.25968   0.00000  Uiso   1.00
C153   C     0.02090   0.22313   0.18840   0.00000  Uiso   1.00
C154   C     0.07312   0.19386   0.15101   0.00000  Uiso   1.00
C155   C     0.04095   0.15287   0.08677   0.00000  Uiso   1.00
C156   C     0.99421   0.32477   0.24701   0.00000  Uiso   1.00
C157   C     0.02400   0.38095   0.25893   0.00000  Uiso   1.00
C158   C     0.96936   0.42552   0.24404   0.00000  Uiso   1.00
C159   C     0.01196   0.24680   0.31099   0.00000  Uiso   1.00
C160   C     0.05667   0.23745   0.37670   0.00000  Uiso   1.00
C161   C     0.01696   0.21640   0.41569   0.00000  Uiso   1.00
H162   H     0.82984   0.24012   0.19193   0.00000  Uiso   1.00
H163   H     0.84409   0.16220   0.07834   0.00000  Uiso   1.00
H164   H     0.79498   0.34926   0.18624   0.00000  Uiso   1.00
H165   H     0.82764   0.20578   0.30399   0.00000  Uiso   1.00
H166   H     0.89583   0.08080   0.96379   0.00000  Uiso   1.00
H167   H     0.79227   0.47524   0.19133   0.00000  Uiso   1.00
H168   H     0.86114   0.17268   0.43964   0.00000  Uiso   1.00
H169   H     0.10672   0.27841   0.27981   0.00000  Uiso   1.00
H170   H     0.13618   0.20259   0.17104   0.00000  Uiso   1.00
H171   H     0.08706   0.38966   0.27894   0.00000  Uiso   1.00
H172   H     0.11972   0.24618   0.39670   0.00000  Uiso   1.00
H173   H     0.13289   0.11358   0.03903   0.00000  Uiso   1.00
H174   H     0.02933   0.50802   0.26658   0.00000  Uiso   1.00
H175   H     0.09820   0.20546   0.51488   0.00000  Uiso   1.00
O176   O     0.02873   0.04663   0.92826   0.00000  Uiso   1.00
O177   O     0.89286   0.56413   0.22680   0.00000  Uiso   1.00
O178   O     0.98322   0.16718   0.55257   0.00000  Uiso   1.00
N179   N     0.94758   0.09891   0.99643   0.00000  Uiso   1.00
N180   N     0.85076   0.46769   0.20916   0.00000  Uiso   1.00
N181   N     0.91514   0.18483   0.44132   0.00000  Uiso   1.00
N182   N     0.07514   0.11655   0.03692   0.00000  Uiso   1.00
N183   N     0.97832   0.48533   0.24965   0.00000  Uiso   1.00
N184   N     0.04270   0.20248   0.48180   0.00000  Uiso   1.00
C185   C     0.33979   0.10545   0.95124   0.00000  Uiso   1.00
C186   C     0.29609   0.06841   0.98045   0.00000  Uiso   1.00
C187   C     0.26626   0.01182   0.94594   0.00000  Uiso   1.00
C188   C     0.22819   0.98540   0.98161   0.00000  Uiso   1.00
C189   C     0.16157   0.92343   0.01668   0.00000  Uiso   1.00
C190   C     0.41940   0.12099   0.00754   0.00000  Uiso   1.00
C191   C     0.49324   0.10863   0.99580   0.00000  Uiso   1.00
C192   C     0.55897   0.12648   0.05428   0.00000  Uiso   1.00
C193   C     0.68380   0.14619   0.13139   0.00000  Uiso   1.00
C194   C     0.29390   0.16376   0.95119   0.00000  Uiso   1.00
C195   C     0.26225   0.18736   0.89209   0.00000  Uiso   1.00
C196   C     0.22233   0.24122   0.90313   0.00000  Uiso   1.00
C197   C     0.15230   0.32732   0.89276   0.00000  Uiso   1.00
C198   C     0.32522   0.15915   0.07594   0.00000  Uiso   1.00
C199   C     0.28818   0.09758   0.04818   0.00000  Uiso   1.00
C200   C     0.25014   0.07123   0.08392   0.00000  Uiso   1.00
C201   C     0.22026   0.01462   0.04947   0.00000  Uiso   1.00
C202   C     0.41149   0.15016   0.07527   0.00000  Uiso   1.00
C203   C     0.47712   0.16804   0.13377   0.00000  Uiso   1.00
C204   C     0.55105   0.15570   0.12213   0.00000  Uiso   1.00
C205   C     0.28599   0.19292   0.01893   0.00000  Uiso   1.00
C206   C     0.24612   0.24676   0.03006   0.00000  Uiso   1.00
C207   C     0.21440   0.27044   0.97099   0.00000  Uiso   1.00
H208   H     0.34596   0.08275   0.89851   0.00000  Uiso   1.00
H209   H     0.27241   0.98926   0.89352   0.00000  Uiso   1.00
H210   H     0.49935   0.08606   0.94338   0.00000  Uiso   1.00
H211   H     0.26838   0.16477   0.83968   0.00000  Uiso   1.00
H212   H     0.18739   0.89847   0.91789   0.00000  Uiso   1.00
H213   H     0.66592   0.10259   0.02300   0.00000  Uiso   1.00
H214   H     0.17888   0.26857   0.80433   0.00000  Uiso   1.00
H215   H     0.31906   0.18186   0.12868   0.00000  Uiso   1.00
H216   H     0.24402   0.09382   0.13633   0.00000  Uiso   1.00
H217   H     0.47097   0.19061   0.18618   0.00000  Uiso   1.00
H218   H     0.24001   0.26932   0.08249   0.00000  Uiso   1.00
H219   H     0.16436   0.98333   0.11496   0.00000  Uiso   1.00
H220   H     0.64289   0.18745   0.22007   0.00000  Uiso   1.00
H221   H     0.15585   0.35343   0.00140   0.00000  Uiso   1.00
O222   O     0.12703   0.88119   0.01731   0.00000  Uiso   1.00
O223   O     0.75483   0.14899   0.15521   0.00000  Uiso   1.00
O224   O     0.11585   0.36675   0.86832   0.00000  Uiso   1.00
N225   N     0.19226   0.93053   0.96321   0.00000  Uiso   1.00
N226   N     0.63965   0.12136   0.06148   0.00000  Uiso   1.00
N227   N     0.18433   0.27655   0.85705   0.00000  Uiso   1.00
N228   N     0.17986   0.97619   0.06925   0.00000  Uiso   1.00
N229   N     0.62726   0.16703   0.16753   0.00000  Uiso   1.00
N230   N     0.17193   0.32221   0.96310   0.00000  Uiso   1.00
C231   C     0.28843   0.91574   0.46040   0.00000  Uiso   1.00
C232   C     0.20444   0.93977   0.45463   0.00000  Uiso   1.00
C233   C     0.14867   0.91854   0.47845   0.00000  Uiso   1.00
C234   C     0.07518   0.94654   0.46823   0.00000  Uiso   1.00
C235   C     0.94736   0.97664   0.46430   0.00000  Uiso   1.00
C236   C     0.34338   0.96839   0.50086   0.00000  Uiso   1.00
C237   C     0.40442   0.97123   0.56354   0.00000  Uiso   1.00
C238   C     0.44789   0.02333   0.59223   0.00000  Uiso   1.00
C239   C     0.53581   0.09786   0.66005   0.00000  Uiso   1.00
C240   C     0.29602   0.89901   0.38425   0.00000  Uiso   1.00
C241   C     0.31726   0.84350   0.34889   0.00000  Uiso   1.00
C242   C     0.32088   0.83719   0.27941   0.00000  Uiso   1.00
C243   C     0.33526   0.80398   0.16617   0.00000  Uiso   1.00
C244   C     0.25710   0.00322   0.39989   0.00000  Uiso   1.00
C245   C     0.18743   0.98729   0.42177   0.00000  Uiso   1.00
C246   C     0.11400   0.01533   0.41151   0.00000  Uiso   1.00
C247   C     0.05813   0.99414   0.43530   0.00000  Uiso   1.00
C248   C     0.32636   0.01591   0.46800   0.00000  Uiso   1.00
C249   C     0.36975   0.06802   0.49660   0.00000  Uiso   1.00
C250   C     0.43085   0.07094   0.55931   0.00000  Uiso   1.00
C251   C     0.27900   0.94652   0.35139   0.00000  Uiso   1.00
C252   C     0.28259   0.94029   0.28195   0.00000  Uiso   1.00
C253   C     0.30383   0.88479   0.24649   0.00000  Uiso   1.00
H254   H     0.30169   0.87874   0.48599   0.00000  Uiso   1.00
H255   H     0.16186   0.88177   0.50389   0.00000  Uiso   1.00
H256   H     0.41758   0.93445   0.58896   0.00000  Uiso   1.00
H257   H     0.33043   0.80674   0.37434   0.00000  Uiso   1.00
H258   H     0.99935   0.90609   0.50926   0.00000  Uiso   1.00
H259   H     0.53856   0.01716   0.68863   0.00000  Uiso   1.00
H260   H     0.35478   0.74787   0.23606   0.00000  Uiso   1.00
H261   H     0.24385   0.04022   0.37431   0.00000  Uiso   1.00
H262   H     0.10085   0.05210   0.38607   0.00000  Uiso   1.00
H263   H     0.35657   0.10478   0.47115   0.00000  Uiso   1.00
H264   H     0.26942   0.97707   0.25653   0.00000  Uiso   1.00
H265   H     0.94983   0.04434   0.41364   0.00000  Uiso   1.00
H266   H     0.48904   0.15541   0.59301   0.00000  Uiso   1.00
H267   H     0.30526   0.88612   0.14044   0.00000  Uiso   1.00
O268   O     0.88157   0.98013   0.47123   0.00000  Uiso   1.00
O269   O     0.58900   0.12585   0.70654   0.00000  Uiso   1.00
O270   O     0.34789   0.77254   0.11279   0.00000  Uiso   1.00
N271   N     0.00731   0.93699   0.48513   0.00000  Uiso   1.00
N272   N     0.51144   0.04084   0.65283   0.00000  Uiso   1.00
N273   N     0.33964   0.78907   0.22973   0.00000  Uiso   1.00
N274   N     0.98067   0.01138   0.43367   0.00000  Uiso   1.00
N275   N     0.48479   0.11523   0.60138   0.00000  Uiso   1.00
N276   N     0.31299   0.86346   0.17828   0.00000  Uiso   1.00
C277   C     0.62281   0.07367   0.30911   0.00000  Uiso   1.00
C278   C     0.58466   0.13438   0.32854   0.00000  Uiso   1.00
C279   C     0.62403   0.18828   0.35537   0.00000  Uiso   1.00
C280   C     0.57852   0.23886   0.36975   0.00000  Uiso   1.00
C281   C     0.53174   0.33363   0.40172   0.00000  Uiso   1.00
C282   C     0.57933   0.04626   0.23092   0.00000  Uiso   1.00
C283   C     0.61422   0.02606   0.17568   0.00000  Uiso   1.00
C284   C     0.56422   0.00245   0.10789   0.00000  Uiso   1.00
C285   C     0.50917   0.96036   0.98831   0.00000  Uiso   1.00
C286   C     0.60107   0.03624   0.35267   0.00000  Uiso   1.00
C287   C     0.65425   0.00760   0.39977   0.00000  Uiso   1.00
C288   C     0.62254   0.97554   0.43447   0.00000  Uiso   1.00
C289   C     0.60125   0.91790   0.50392   0.00000  Uiso   1.00
C290   C     0.47197   0.06763   0.28694   0.00000  Uiso   1.00
C291   C     0.50273   0.13110   0.31650   0.00000  Uiso   1.00
C292   C     0.45714   0.18161   0.33085   0.00000  Uiso   1.00
C293   C     0.49644   0.23558   0.35769   0.00000  Uiso   1.00
C294   C     0.49740   0.04298   0.21888   0.00000  Uiso   1.00
C295   C     0.44733   0.01938   0.15115   0.00000  Uiso   1.00
C296   C     0.48214   0.99916   0.09582   0.00000  Uiso   1.00
C297   C     0.51914   0.03296   0.34063   0.00000  Uiso   1.00
C298   C     0.48735   0.00093   0.37525   0.00000  Uiso   1.00
C299   C     0.54046   0.97225   0.42240   0.00000  Uiso   1.00
H300   H     0.68660   0.07622   0.31848   0.00000  Uiso   1.00
H301   H     0.68744   0.19080   0.36468   0.00000  Uiso   1.00
H302   H     0.67763   0.02860   0.18502   0.00000  Uiso   1.00
H303   H     0.71764   0.01015   0.40908   0.00000  Uiso   1.00
H304   H     0.65223   0.31640   0.41056   0.00000  Uiso   1.00
H305   H     0.63155   0.97436   0.03174   0.00000  Uiso   1.00
H306   H     0.71593   0.93545   0.50421   0.00000  Uiso   1.00
H307   H     0.40817   0.06508   0.27757   0.00000  Uiso   1.00
H308   H     0.39373   0.17906   0.32152   0.00000  Uiso   1.00
H309   H     0.38393   0.01685   0.14186   0.00000  Uiso   1.00
H310   H     0.42394   0.99840   0.36592   0.00000  Uiso   1.00
H311   H     0.41385   0.30686   0.37553   0.00000  Uiso   1.00
H312   H     0.39317   0.96482   0.99671   0.00000  Uiso   1.00
H313   H     0.47755   0.92592   0.46918   0.00000  Uiso   1.00
O314   O     0.52856   0.38681   0.42267   0.00000  Uiso   1.00
O315   O     0.50144   0.93806   0.92568   0.00000  Uiso   1.00
O316   O     0.61214   0.88702   0.54556   0.00000  Uiso   1.00
N317   N     0.59811   0.29851   0.39630   0.00000  Uiso   1.00
N318   N     0.57878   0.97873   0.04212   0.00000  Uiso   1.00
N319   N     0.65767   0.94235   0.48383   0.00000  Uiso   1.00
N320   N     0.46984   0.29338   0.37745   0.00000  Uiso   1.00
N321   N     0.45051   0.97360   0.02327   0.00000  Uiso   1.00
N322   N     0.52940   0.93722   0.46498   0.00000  Uiso   1.00
C323   C     0.24347   0.48805   0.18917   0.00000  Uiso   1.00
C324   C     0.26809   0.48936   0.26879   0.00000  Uiso   1.00
C325   C     0.27454   0.53984   0.32460   0.00000  Uiso   1.00
C326   C     0.29793   0.53167   0.39371   0.00000  Uiso   1.00
C327   C     0.33363   0.54231   0.51539   0.00000  Uiso   1.00
C328   C     0.17239   0.44673   0.15461   0.00000  Uiso   1.00
C329   C     0.09839   0.46137   0.11442   0.00000  Uiso   1.00
C330   C     0.04122   0.41732   0.08741   0.00000  Uiso   1.00
C331   C     0.92837   0.36177   0.03178   0.00000  Uiso   1.00
C332   C     0.31051   0.45662   0.16022   0.00000  Uiso   1.00
C333   C     0.35263   0.47957   0.12472   0.00000  Uiso   1.00
C334   C     0.41173   0.44384   0.10242   0.00000  Uiso   1.00
C335   C     0.51334   0.40365   0.05550   0.00000  Uiso   1.00
C336   C     0.27352   0.38379   0.21267   0.00000  Uiso   1.00
C337   C     0.28441   0.43272   0.28155   0.00000  Uiso   1.00
C338   C     0.30779   0.42448   0.35059   0.00000  Uiso   1.00
C339   C     0.31428   0.47494   0.40649   0.00000  Uiso   1.00
C340   C     0.18871   0.39010   0.16737   0.00000  Uiso   1.00
C341   C     0.13164   0.34601   0.14041   0.00000  Uiso   1.00
C342   C     0.05757   0.36059   0.10019   0.00000  Uiso   1.00
C343   C     0.32683   0.39999   0.17298   0.00000  Uiso   1.00
C344   C     0.38588   0.36422   0.15072   0.00000  Uiso   1.00
C345   C     0.42808   0.38711   0.11520   0.00000  Uiso   1.00
H346   H     0.23076   0.53214   0.17924   0.00000  Uiso   1.00
H347   H     0.26190   0.58366   0.31470   0.00000  Uiso   1.00
H348   H     0.08578   0.50520   0.10455   0.00000  Uiso   1.00
H349   H     0.33998   0.52340   0.11485   0.00000  Uiso   1.00
H350   H     0.30360   0.61579   0.47051   0.00000  Uiso   1.00
H351   H     0.93225   0.45036   0.02737   0.00000  Uiso   1.00
H352   H     0.46828   0.48873   0.04911   0.00000  Uiso   1.00
H353   H     0.28623   0.33969   0.22260   0.00000  Uiso   1.00
H354   H     0.32042   0.38065   0.36045   0.00000  Uiso   1.00
H355   H     0.14429   0.30219   0.15029   0.00000  Uiso   1.00
H356   H     0.39849   0.32039   0.16060   0.00000  Uiso   1.00
H357   H     0.35109   0.45102   0.50764   0.00000  Uiso   1.00
H358   H     0.97974   0.28559   0.06450   0.00000  Uiso   1.00
H359   H     0.51577   0.32396   0.08624   0.00000  Uiso   1.00
O360   O     0.34881   0.56382   0.57897   0.00000  Uiso   1.00
O361   O     0.86162   0.34677   0.99758   0.00000  Uiso   1.00
O362   O     0.56488   0.39712   0.02610   0.00000  Uiso   1.00
N363   N     0.31010   0.57139   0.46033   0.00000  Uiso   1.00
N364   N     0.96290   0.41673   0.04603   0.00000  Uiso   1.00
N365   N     0.46403   0.45260   0.06634   0.00000  Uiso   1.00
N366   N     0.33565   0.48273   0.48032   0.00000  Uiso   1.00
N367   N     0.98846   0.32806   0.06602   0.00000  Uiso   1.00
N368   N     0.48959   0.36394   0.08632   0.00000  Uiso   1.00
C369   C     0.33849   0.30666   0.64406   0.00000  Uiso   1.00
C370   C     0.41270   0.28608   0.62035   0.00000  Uiso   1.00
C371   C     0.49019   0.29723   0.66281   0.00000  Uiso   1.00
C372   C     0.54984   0.27456   0.63116   0.00000  Uiso   1.00
C373   C     0.66770   0.24755   0.60524   0.00000  Uiso   1.00
C374   C     0.29116   0.25071   0.62980   0.00000  Uiso   1.00
C375   C     0.26646   0.23213   0.68021   0.00000  Uiso   1.00
C376   C     0.22379   0.17970   0.65651   0.00000  Uiso   1.00
C377   C     0.15293   0.09780   0.64525   0.00000  Uiso   1.00
C378   C     0.28975   0.34199   0.59176   0.00000  Uiso   1.00
C379   C     0.26385   0.40017   0.61018   0.00000  Uiso   1.00
C380   C     0.21998   0.42458   0.55445   0.00000  Uiso   1.00
C381   C     0.14692   0.48442   0.48413   0.00000  Uiso   1.00
C382   C     0.30661   0.24657   0.51234   0.00000  Uiso   1.00
C383   C     0.39538   0.25344   0.54880   0.00000  Uiso   1.00
C384   C     0.45493   0.23075   0.51707   0.00000  Uiso   1.00
C385   C     0.53249   0.24187   0.55948   0.00000  Uiso   1.00
C386   C     0.27385   0.21807   0.55826   0.00000  Uiso   1.00
C387   C     0.23120   0.16566   0.53447   0.00000  Uiso   1.00
C388   C     0.20645   0.14700   0.58483   0.00000  Uiso   1.00
C389   C     0.27244   0.30936   0.52021   0.00000  Uiso   1.00
C390   C     0.22859   0.33369   0.46444   0.00000  Uiso   1.00
C391   C     0.20263   0.39188   0.48278   0.00000  Uiso   1.00
H392   H     0.35196   0.33206   0.69976   0.00000  Uiso   1.00
H393   H     0.50356   0.32248   0.71818   0.00000  Uiso   1.00
H394   H     0.27986   0.25740   0.73557   0.00000  Uiso   1.00
H395   H     0.27726   0.42541   0.66555   0.00000  Uiso   1.00
H396   H     0.66401   0.29745   0.70706   0.00000  Uiso   1.00
H397   H     0.19230   0.16024   0.74372   0.00000  Uiso   1.00
H398   H     0.18680   0.51451   0.59608   0.00000  Uiso   1.00
H399   H     0.29313   0.22116   0.45663   0.00000  Uiso   1.00
H400   H     0.44151   0.20550   0.46171   0.00000  Uiso   1.00
H401   H     0.21781   0.14041   0.47910   0.00000  Uiso   1.00
H402   H     0.21521   0.30842   0.40908   0.00000  Uiso   1.00
H403   H     0.61365   0.20250   0.49889   0.00000  Uiso   1.00
H404   H     0.14194   0.06528   0.53556   0.00000  Uiso   1.00
H405   H     0.13644   0.41955   0.38791   0.00000  Uiso   1.00
O406   O     0.73749   0.24166   0.61071   0.00000  Uiso   1.00
O407   O     0.11863   0.06164   0.65881   0.00000  Uiso   1.00
O408   O     0.11142   0.52644   0.46510   0.00000  Uiso   1.00
N409   N     0.63179   0.27727   0.65736   0.00000  Uiso   1.00
N410   N     0.19079   0.14897   0.69165   0.00000  Uiso   1.00
N411   N     0.18563   0.48018   0.55361   0.00000  Uiso   1.00
N412   N     0.60469   0.22617   0.54535   0.00000  Uiso   1.00
N413   N     0.16369   0.09788   0.57964   0.00000  Uiso   1.00
N414   N     0.15853   0.42909   0.44160   0.00000  Uiso   1.00
C415   C     0.20353   0.67257   0.82183   0.00000  Uiso   1.00
C416   C     0.12412   0.69469   0.83454   0.00000  Uiso   1.00
C417   C     0.11243   0.74516   0.88494   0.00000  Uiso   1.00
C418   C     0.03525   0.75780   0.88820   0.00000  Uiso   1.00
C419   C     0.92156   0.79768   0.91489   0.00000  Uiso   1.00
C420   C     0.21309   0.60914   0.83074   0.00000  Uiso   1.00
C421   C     0.27622   0.58769   0.87795   0.00000  Uiso   1.00
C422   C     0.27394   0.52831   0.87801   0.00000  Uiso   1.00
C423   C     0.29840   0.43537   0.89877   0.00000  Uiso   1.00
C424   C     0.19370   0.66776   0.74276   0.00000  Uiso   1.00
C425   C     0.24053   0.69557   0.71598   0.00000  Uiso   1.00
C426   C     0.22193   0.68553   0.64196   0.00000  Uiso   1.00
C427   C     0.21628   0.68361   0.52610   0.00000  Uiso   1.00
C428   C     0.08724   0.60527   0.73799   0.00000  Uiso   1.00
C429   C     0.06096   0.65813   0.78900   0.00000  Uiso   1.00
C430   C     0.98377   0.67070   0.79219   0.00000  Uiso   1.00
C431   C     0.97197   0.72118   0.84258   0.00000  Uiso   1.00
C432   C     0.14993   0.57258   0.78521   0.00000  Uiso   1.00
C433   C     0.14756   0.51322   0.78520   0.00000  Uiso   1.00
C434   C     0.21066   0.49168   0.83239   0.00000  Uiso   1.00
C435   C     0.13053   0.63120   0.69722   0.00000  Uiso   1.00
C436   C     0.11186   0.62111   0.62323   0.00000  Uiso   1.00
C437   C     0.15865   0.64891   0.59634   0.00000  Uiso   1.00
H438   H     0.25271   0.70103   0.85728   0.00000  Uiso   1.00
H439   H     0.16133   0.77344   0.92017   0.00000  Uiso   1.00
H440   H     0.32509   0.61598   0.91317   0.00000  Uiso   1.00
H441   H     0.28940   0.72386   0.75123   0.00000  Uiso   1.00
H442   H     0.03217   0.83758   0.96984   0.00000  Uiso   1.00
H443   H     0.37749   0.50558   0.95507   0.00000  Uiso   1.00
H444   H     0.30223   0.73305   0.61358   0.00000  Uiso   1.00
H445   H     0.03806   0.57680   0.70254   0.00000  Uiso   1.00
H446   H     0.93490   0.64240   0.75694   0.00000  Uiso   1.00
H447   H     0.09867   0.48495   0.74995   0.00000  Uiso   1.00
H448   H     0.06298   0.59282   0.58800   0.00000  Uiso   1.00
H449   H     0.84839   0.73122   0.83736   0.00000  Uiso   1.00
H450   H     0.19371   0.39922   0.82259   0.00000  Uiso   1.00
H451   H     0.11845   0.62670   0.48110   0.00000  Uiso   1.00
O452   O     0.87630   0.82978   0.94220   0.00000  Uiso   1.00
O453   O     0.32935   0.39421   0.92280   0.00000  Uiso   1.00
O454   O     0.23060   0.69265   0.47478   0.00000  Uiso   1.00
N455   N     0.00307   0.80355   0.93118   0.00000  Uiso   1.00
N456   N     0.32592   0.49316   0.91738   0.00000  Uiso   1.00
N457   N     0.25557   0.70581   0.59812   0.00000  Uiso   1.00
N458   N     0.90418   0.74632   0.85990   0.00000  Uiso   1.00
N459   N     0.22703   0.43593   0.84609   0.00000  Uiso   1.00
N460   N     0.15668   0.64858   0.52683   0.00000  Uiso   1.00
C461   C     0.67632   0.78996   0.14730   0.00000  Uiso   1.00
C462   C     0.72192   0.84792   0.17006   0.00000  Uiso   1.00
C463   C     0.74408   0.88447   0.23888   0.00000  Uiso   1.00
C464   C     0.78549   0.93556   0.24873   0.00000  Uiso   1.00
C465   C     0.85345   0.02344   0.29272   0.00000  Uiso   1.00
C466   C     0.60296   0.79704   0.08688   0.00000  Uiso   1.00
C467   C     0.52511   0.79081   0.08577   0.00000  Uiso   1.00
C468   C     0.46638   0.79906   0.02558   0.00000  Uiso   1.00
C469   C     0.34965   0.80791   0.94042   0.00000  Uiso   1.00
C470   C     0.72746   0.74255   0.11307   0.00000  Uiso   1.00
C471   C     0.75427   0.69049   0.13396   0.00000  Uiso   1.00
C472   C     0.80035   0.65285   0.09581   0.00000  Uiso   1.00
C473   C     0.87693   0.57710   0.05130   0.00000  Uiso   1.00
C474   C     0.71046   0.81569   0.04239   0.00000  Uiso   1.00
C475   C     0.74047   0.86189   0.11307   0.00000  Uiso   1.00
C476   C     0.78186   0.91294   0.12281   0.00000  Uiso   1.00
C477   C     0.80408   0.94956   0.19164   0.00000  Uiso   1.00
C478   C     0.62151   0.81102   0.02990   0.00000  Uiso   1.00
C479   C     0.56288   0.81927   0.96970   0.00000  Uiso   1.00
C480   C     0.48496   0.81306   0.96850   0.00000  Uiso   1.00
C481   C     0.74601   0.75653   0.05608   0.00000  Uiso   1.00
C482   C     0.79205   0.71896   0.01789   0.00000  Uiso   1.00
C483   C     0.81893   0.66685   0.03872   0.00000  Uiso   1.00
H484   H     0.66188   0.77908   0.19166   0.00000  Uiso   1.00
H485   H     0.72971   0.87364   0.28297   0.00000  Uiso   1.00
H486   H     0.51077   0.77999   0.12987   0.00000  Uiso   1.00
H487   H     0.73991   0.67969   0.17805   0.00000  Uiso   1.00
H488   H     0.81307   0.98466   0.35906   0.00000  Uiso   1.00
H489   H     0.35143   0.78716   0.03624   0.00000  Uiso   1.00
H490   H     0.83460   0.57566   0.13784   0.00000  Uiso   1.00
H491   H     0.72490   0.82657   0.99802   0.00000  Uiso   1.00
H492   H     0.79620   0.92374   0.07870   0.00000  Uiso   1.00
H493   H     0.57726   0.83008   0.92561   0.00000  Uiso   1.00
H494   H     0.80639   0.72979   0.97379   0.00000  Uiso   1.00
H495   H     0.86704   0.02532   0.19327   0.00000  Uiso   1.00
H496   H     0.40539   0.82782   0.87045   0.00000  Uiso   1.00
H497   H     0.88856   0.61632   0.97206   0.00000  Uiso   1.00
O498   O     0.88580   0.06806   0.33273   0.00000  Uiso   1.00
O499   O     0.28014   0.80894   0.90920   0.00000  Uiso   1.00
O500   O     0.91405   0.53146   0.04250   0.00000  Uiso   1.00
N501   N     0.81600   0.98089   0.30897   0.00000  Uiso   1.00
N502   N     0.38439   0.79625   0.00716   0.00000  Uiso   1.00
N503   N     0.83610   0.59851   0.10214   0.00000  Uiso   1.00
N504   N     0.84504   0.00276   0.21977   0.00000  Uiso   1.00
N505   N     0.41343   0.81813   0.91795   0.00000  Uiso   1.00
N506   N     0.86514   0.62038   0.01293   0.00000  Uiso   1.00
C507   C     0.91869   0.93711   0.65248   0.00000  Uiso   1.00
C508   C     0.99992   0.91450   0.68864   0.00000  Uiso   1.00
C509   C     0.07179   0.92946   0.68293   0.00000  Uiso   1.00
C510   C     0.13951   0.90404   0.72014   0.00000  Uiso   1.00
C511   C     0.26625   0.87484   0.76996   0.00000  Uiso   1.00
C512   C     0.86967   0.88205   0.60850   0.00000  Uiso   1.00
C513   C     0.83204   0.86972   0.53542   0.00000  Uiso   1.00
C514   C     0.79010   0.81699   0.50516   0.00000  Uiso   1.00
C515   C     0.71459   0.73742   0.43058   0.00000  Uiso   1.00
C516   C     0.88129   0.96563   0.71252   0.00000  Uiso   1.00
C517   C     0.85340   0.02358   0.72688   0.00000  Uiso   1.00
C518   C     0.82122   0.04122   0.78419   0.00000  Uiso   1.00
C519   C     0.76376   0.09143   0.87111   0.00000  Uiso   1.00
C520   C     0.91112   0.86538   0.72869   0.00000  Uiso   1.00
C521   C     0.99580   0.87554   0.73003   0.00000  Uiso   1.00
C522   C     0.06342   0.85009   0.76726   0.00000  Uiso   1.00
C523   C     0.13539   0.86501   0.76161   0.00000  Uiso   1.00
C524   C     0.86556   0.84308   0.64989   0.00000  Uiso   1.00
C525   C     0.82366   0.79036   0.61974   0.00000  Uiso   1.00
C526   C     0.78598   0.77796   0.54663   0.00000  Uiso   1.00
C527   C     0.87718   0.92667   0.75391   0.00000  Uiso   1.00
C528   C     0.84503   0.94422   0.81121   0.00000  Uiso   1.00
C529   C     0.81710   0.00219   0.82566   0.00000  Uiso   1.00
H530   H     0.92189   0.96745   0.62025   0.00000  Uiso   1.00
H531   H     0.07495   0.95961   0.65089   0.00000  Uiso   1.00
H532   H     0.83522   0.89989   0.50340   0.00000  Uiso   1.00
H533   H     0.85659   0.05372   0.69484   0.00000  Uiso   1.00
H534   H     0.24284   0.93372   0.70309   0.00000  Uiso   1.00
H535   H     0.73734   0.80780   0.39211   0.00000  Uiso   1.00
H536   H     0.78239   0.13220   0.79579   0.00000  Uiso   1.00
H537   H     0.90792   0.83504   0.76092   0.00000  Uiso   1.00
H538   H     0.06022   0.81994   0.79929   0.00000  Uiso   1.00
H539   H     0.82049   0.76022   0.65179   0.00000  Uiso   1.00
H540   H     0.84186   0.91406   0.84323   0.00000  Uiso   1.00
H541   H     0.23088   0.82036   0.82354   0.00000  Uiso   1.00
H542   H     0.72537   0.69444   0.51255   0.00000  Uiso   1.00
H543   H     0.77043   0.01884   0.91623   0.00000  Uiso   1.00
O544   O     0.33730   0.86948   0.78599   0.00000  Uiso   1.00
O545   O     0.67409   0.70429   0.37800   0.00000  Uiso   1.00
O546   O     0.73320   0.12988   0.90762   0.00000  Uiso   1.00
N547   N     0.21912   0.90912   0.72619   0.00000  Uiso   1.00
N548   N     0.74652   0.79139   0.43543   0.00000  Uiso   1.00
N549   N     0.78862   0.09467   0.81283   0.00000  Uiso   1.00
N550   N     0.21269   0.84813   0.79100   0.00000  Uiso   1.00
N551   N     0.74008   0.73040   0.50024   0.00000  Uiso   1.00
N552   N     0.78219   0.03367   0.87764   0.00000  Uiso   1.00
