data_job_03952
_audit_creation_date              2018-12-19
_audit_creation_method            'Materials Studio'
_symmetry_space_group_name_H-M    'P1'
_symmetry_Int_Tables_number       1
_symmetry_cell_setting            triclinic
loop_
_symmetry_equiv_pos_as_xyz
  x,y,z
_cell_length_a                    17.4011
_cell_length_b                    17.4011
_cell_length_c                    17.6340
_cell_angle_alpha                 90.0000
_cell_angle_beta                  90.0000
_cell_angle_gamma                 90.0000
loop_
_atom_site_label
_atom_site_type_symbol
_atom_site_fract_x
_atom_site_fract_y
_atom_site_fract_z
_atom_site_U_iso_or_equiv
_atom_site_adp_type
_atom_site_occupancy
C1     C     0.26106   0.81360   0.04264   0.00000  Uiso   1.00
C2     C     0.21347   0.85149   0.98038   0.00000  Uiso   1.00
C3     C     0.21090   0.92960   0.96474   0.00000  Uiso   1.00
C4     C     0.16381   0.95283   0.90546   0.00000  Uiso   1.00
C5     C     0.09641   0.01972   0.81522   0.00000  Uiso   1.00
C6     C     0.20436   0.76852   0.09131   0.00000  Uiso   1.00
C7     C     0.19415   0.77688   0.16893   0.00000  Uiso   1.00
C8     C     0.13939   0.73025   0.20302   0.00000  Uiso   1.00
C9     C     0.05791   0.66830   0.28501   0.00000  Uiso   1.00
C10    C     0.31115   0.75387   0.00314   0.00000  Uiso   1.00
C11    C     0.39073   0.74989   0.00665   0.00000  Uiso   1.00
C12    C     0.42588   0.69091   0.96653   0.00000  Uiso   1.00
C13    C     0.51019   0.60621   0.91162   0.00000  Uiso   1.00
C14    C     0.18198   0.71593   0.96518   0.00000  Uiso   1.00
C15    C     0.17052   0.79843   0.93832   0.00000  Uiso   1.00
C16    C     0.12341   0.82154   0.87904   0.00000  Uiso   1.00
C17    C     0.12078   0.89968   0.86331   0.00000  Uiso   1.00
C18    C     0.16141   0.71547   0.04924   0.00000  Uiso   1.00
C19    C     0.10666   0.66881   0.08323   0.00000  Uiso   1.00
C20    C     0.09636   0.67710   0.16088   0.00000  Uiso   1.00
C21    C     0.26820   0.70082   0.96107   0.00000  Uiso   1.00
C22    C     0.30324   0.64183   0.92095   0.00000  Uiso   1.00
C23    C     0.38285   0.63776   0.92439   0.00000  Uiso   1.00
H24    H     0.29450   0.85490   0.07539   0.00000  Uiso   1.00
H25    H     0.24414   0.97064   0.99731   0.00000  Uiso   1.00
H26    H     0.22740   0.81793   0.20147   0.00000  Uiso   1.00
H27    H     0.42394   0.79095   0.03921   0.00000  Uiso   1.00
H28    H     0.16936   0.07557   0.89221   0.00000  Uiso   1.00
H29    H     0.13407   0.75355   0.32269   0.00000  Uiso   1.00
H30    H     0.54852   0.69666   0.98054   0.00000  Uiso   1.00
H31    H     0.14854   0.67462   0.93243   0.00000  Uiso   1.00
H32    H     0.09018   0.78047   0.84650   0.00000  Uiso   1.00
H33    H     0.07344   0.62776   0.05066   0.00000  Uiso   1.00
H34    H     0.26998   0.60078   0.88840   0.00000  Uiso   1.00
H35    H     0.04439   0.92122   0.76981   0.00000  Uiso   1.00
H36    H     0.00911   0.59920   0.20029   0.00000  Uiso   1.00
H37    H     0.42356   0.54231   0.85813   0.00000  Uiso   1.00
O38    O     0.07110   0.07128   0.77708   0.00000  Uiso   1.00
O39    O     0.02482   0.64880   0.34185   0.00000  Uiso   1.00
O40    O     0.56857   0.57416   0.89295   0.00000  Uiso   1.00
N41    N     0.14797   0.02471   0.87519   0.00000  Uiso   1.00
N42    N     0.11497   0.72366   0.27766   0.00000  Uiso   1.00
N43    N     0.50245   0.67045   0.95779   0.00000  Uiso   1.00
N44    N     0.08073   0.94166   0.80932   0.00000  Uiso   1.00
N45    N     0.04773   0.64060   0.21179   0.00000  Uiso   1.00
N46    N     0.43521   0.58740   0.89192   0.00000  Uiso   1.00
C47    C     0.73894   0.18640   0.04264   0.00000  Uiso   1.00
C48    C     0.78653   0.14851   0.98038   0.00000  Uiso   1.00
C49    C     0.78910   0.07040   0.96474   0.00000  Uiso   1.00
C50    C     0.83619   0.04717   0.90546   0.00000  Uiso   1.00
C51    C     0.90359   0.98028   0.81522   0.00000  Uiso   1.00
C52    C     0.79564   0.23148   0.09131   0.00000  Uiso   1.00
C53    C     0.80585   0.22312   0.16893   0.00000  Uiso   1.00
C54    C     0.86061   0.26975   0.20302   0.00000  Uiso   1.00
C55    C     0.94209   0.33170   0.28501   0.00000  Uiso   1.00
C56    C     0.68885   0.24613   0.00314   0.00000  Uiso   1.00
C57    C     0.60927   0.25011   0.00665   0.00000  Uiso   1.00
C58    C     0.57412   0.30909   0.96653   0.00000  Uiso   1.00
C59    C     0.48981   0.39379   0.91162   0.00000  Uiso   1.00
C60    C     0.81802   0.28407   0.96518   0.00000  Uiso   1.00
C61    C     0.82948   0.20157   0.93832   0.00000  Uiso   1.00
C62    C     0.87659   0.17846   0.87904   0.00000  Uiso   1.00
C63    C     0.87922   0.10032   0.86331   0.00000  Uiso   1.00
C64    C     0.83859   0.28453   0.04924   0.00000  Uiso   1.00
C65    C     0.89334   0.33119   0.08323   0.00000  Uiso   1.00
C66    C     0.90364   0.32290   0.16088   0.00000  Uiso   1.00
C67    C     0.73180   0.29918   0.96107   0.00000  Uiso   1.00
C68    C     0.69676   0.35817   0.92095   0.00000  Uiso   1.00
C69    C     0.61715   0.36224   0.92439   0.00000  Uiso   1.00
H70    H     0.70550   0.14510   0.07539   0.00000  Uiso   1.00
H71    H     0.75586   0.02936   0.99731   0.00000  Uiso   1.00
H72    H     0.77260   0.18207   0.20147   0.00000  Uiso   1.00
H73    H     0.57606   0.20905   0.03921   0.00000  Uiso   1.00
H74    H     0.83064   0.92443   0.89221   0.00000  Uiso   1.00
H75    H     0.86593   0.24645   0.32269   0.00000  Uiso   1.00
H76    H     0.45148   0.30334   0.98054   0.00000  Uiso   1.00
H77    H     0.85146   0.32538   0.93243   0.00000  Uiso   1.00
H78    H     0.90982   0.21953   0.84650   0.00000  Uiso   1.00
H79    H     0.92656   0.37224   0.05066   0.00000  Uiso   1.00
H80    H     0.73002   0.39922   0.88840   0.00000  Uiso   1.00
H81    H     0.95561   0.07878   0.76981   0.00000  Uiso   1.00
H82    H     0.99089   0.40080   0.20029   0.00000  Uiso   1.00
H83    H     0.57644   0.45769   0.85813   0.00000  Uiso   1.00
O84    O     0.92890   0.92872   0.77708   0.00000  Uiso   1.00
O85    O     0.97518   0.35120   0.34185   0.00000  Uiso   1.00
O86    O     0.43143   0.42584   0.89295   0.00000  Uiso   1.00
N87    N     0.85203   0.97529   0.87519   0.00000  Uiso   1.00
N88    N     0.88503   0.27634   0.27766   0.00000  Uiso   1.00
N89    N     0.49755   0.32955   0.95779   0.00000  Uiso   1.00
N90    N     0.91927   0.05834   0.80932   0.00000  Uiso   1.00
N91    N     0.95227   0.35940   0.21179   0.00000  Uiso   1.00
N92    N     0.56479   0.41260   0.89192   0.00000  Uiso   1.00
C93    C     0.68640   0.76106   0.54264   0.00000  Uiso   1.00
C94    C     0.64851   0.71347   0.48038   0.00000  Uiso   1.00
C95    C     0.57040   0.71090   0.46474   0.00000  Uiso   1.00
C96    C     0.54717   0.66381   0.40546   0.00000  Uiso   1.00
C97    C     0.48028   0.59641   0.31522   0.00000  Uiso   1.00
C98    C     0.73148   0.70436   0.59131   0.00000  Uiso   1.00
C99    C     0.72312   0.69415   0.66893   0.00000  Uiso   1.00
C100   C     0.76975   0.63939   0.70302   0.00000  Uiso   1.00
C101   C     0.83170   0.55791   0.78501   0.00000  Uiso   1.00
C102   C     0.74613   0.81115   0.50314   0.00000  Uiso   1.00
C103   C     0.75011   0.89073   0.50665   0.00000  Uiso   1.00
C104   C     0.80909   0.92588   0.46653   0.00000  Uiso   1.00
C105   C     0.89379   0.01019   0.41162   0.00000  Uiso   1.00
C106   C     0.78407   0.68198   0.46518   0.00000  Uiso   1.00
C107   C     0.70157   0.67052   0.43832   0.00000  Uiso   1.00
C108   C     0.67846   0.62341   0.37904   0.00000  Uiso   1.00
C109   C     0.60032   0.62078   0.36331   0.00000  Uiso   1.00
C110   C     0.78453   0.66141   0.54924   0.00000  Uiso   1.00
C111   C     0.83119   0.60666   0.58323   0.00000  Uiso   1.00
C112   C     0.82290   0.59636   0.66088   0.00000  Uiso   1.00
C113   C     0.79918   0.76820   0.46107   0.00000  Uiso   1.00
C114   C     0.85817   0.80324   0.42095   0.00000  Uiso   1.00
C115   C     0.86224   0.88285   0.42439   0.00000  Uiso   1.00
H116   H     0.64510   0.79450   0.57539   0.00000  Uiso   1.00
H117   H     0.52936   0.74414   0.49731   0.00000  Uiso   1.00
H118   H     0.68207   0.72740   0.70147   0.00000  Uiso   1.00
H119   H     0.70905   0.92394   0.53921   0.00000  Uiso   1.00
H120   H     0.42443   0.66936   0.39221   0.00000  Uiso   1.00
H121   H     0.74645   0.63407   0.82269   0.00000  Uiso   1.00
H122   H     0.80334   0.04852   0.48054   0.00000  Uiso   1.00
H123   H     0.82538   0.64854   0.43243   0.00000  Uiso   1.00
H124   H     0.71953   0.59018   0.34650   0.00000  Uiso   1.00
H125   H     0.87224   0.57344   0.55066   0.00000  Uiso   1.00
H126   H     0.89922   0.76998   0.38840   0.00000  Uiso   1.00
H127   H     0.57878   0.54439   0.26981   0.00000  Uiso   1.00
H128   H     0.90080   0.50911   0.70029   0.00000  Uiso   1.00
H129   H     0.95769   0.92356   0.35813   0.00000  Uiso   1.00
O130   O     0.42872   0.57110   0.27708   0.00000  Uiso   1.00
O131   O     0.85120   0.52482   0.84185   0.00000  Uiso   1.00
O132   O     0.92584   0.06857   0.39295   0.00000  Uiso   1.00
N133   N     0.47529   0.64797   0.37519   0.00000  Uiso   1.00
N134   N     0.77634   0.61497   0.77766   0.00000  Uiso   1.00
N135   N     0.82955   0.00245   0.45779   0.00000  Uiso   1.00
N136   N     0.55834   0.58073   0.30932   0.00000  Uiso   1.00
N137   N     0.85940   0.54773   0.71179   0.00000  Uiso   1.00
N138   N     0.91260   0.93521   0.39192   0.00000  Uiso   1.00
C139   C     0.31360   0.23894   0.54264   0.00000  Uiso   1.00
C140   C     0.35149   0.28653   0.48038   0.00000  Uiso   1.00
C141   C     0.42960   0.28910   0.46474   0.00000  Uiso   1.00
C142   C     0.45283   0.33619   0.40546   0.00000  Uiso   1.00
C143   C     0.51972   0.40359   0.31522   0.00000  Uiso   1.00
C144   C     0.26852   0.29564   0.59131   0.00000  Uiso   1.00
C145   C     0.27688   0.30585   0.66893   0.00000  Uiso   1.00
C146   C     0.23025   0.36061   0.70302   0.00000  Uiso   1.00
C147   C     0.16830   0.44209   0.78501   0.00000  Uiso   1.00
C148   C     0.25387   0.18885   0.50314   0.00000  Uiso   1.00
C149   C     0.24989   0.10927   0.50665   0.00000  Uiso   1.00
C150   C     0.19091   0.07412   0.46653   0.00000  Uiso   1.00
C151   C     0.10621   0.98981   0.41162   0.00000  Uiso   1.00
C152   C     0.21593   0.31802   0.46518   0.00000  Uiso   1.00
C153   C     0.29843   0.32948   0.43832   0.00000  Uiso   1.00
C154   C     0.32154   0.37659   0.37904   0.00000  Uiso   1.00
C155   C     0.39968   0.37922   0.36331   0.00000  Uiso   1.00
C156   C     0.21547   0.33859   0.54924   0.00000  Uiso   1.00
C157   C     0.16881   0.39334   0.58323   0.00000  Uiso   1.00
C158   C     0.17710   0.40364   0.66088   0.00000  Uiso   1.00
C159   C     0.20082   0.23180   0.46107   0.00000  Uiso   1.00
C160   C     0.14183   0.19676   0.42095   0.00000  Uiso   1.00
C161   C     0.13776   0.11715   0.42439   0.00000  Uiso   1.00
H162   H     0.35490   0.20550   0.57539   0.00000  Uiso   1.00
H163   H     0.47064   0.25586   0.49731   0.00000  Uiso   1.00
H164   H     0.31793   0.27260   0.70147   0.00000  Uiso   1.00
H165   H     0.29095   0.07606   0.53921   0.00000  Uiso   1.00
H166   H     0.57557   0.33064   0.39221   0.00000  Uiso   1.00
H167   H     0.25355   0.36593   0.82269   0.00000  Uiso   1.00
H168   H     0.19666   0.95148   0.48054   0.00000  Uiso   1.00
H169   H     0.17462   0.35146   0.43243   0.00000  Uiso   1.00
H170   H     0.28047   0.40982   0.34650   0.00000  Uiso   1.00
H171   H     0.12776   0.42656   0.55066   0.00000  Uiso   1.00
H172   H     0.10078   0.23002   0.38840   0.00000  Uiso   1.00
H173   H     0.42122   0.45561   0.26981   0.00000  Uiso   1.00
H174   H     0.09920   0.49089   0.70029   0.00000  Uiso   1.00
H175   H     0.04231   0.07644   0.35813   0.00000  Uiso   1.00
O176   O     0.57128   0.42890   0.27708   0.00000  Uiso   1.00
O177   O     0.14880   0.47518   0.84185   0.00000  Uiso   1.00
O178   O     0.07416   0.93143   0.39295   0.00000  Uiso   1.00
N179   N     0.52471   0.35203   0.37519   0.00000  Uiso   1.00
N180   N     0.22366   0.38503   0.77766   0.00000  Uiso   1.00
N181   N     0.17045   0.99755   0.45779   0.00000  Uiso   1.00
N182   N     0.44166   0.41927   0.30932   0.00000  Uiso   1.00
N183   N     0.14060   0.45227   0.71179   0.00000  Uiso   1.00
N184   N     0.08740   0.06479   0.39192   0.00000  Uiso   1.00
C185   C     0.23894   0.68640   0.45736   0.00000  Uiso   1.00
C186   C     0.28653   0.64851   0.51962   0.00000  Uiso   1.00
C187   C     0.28910   0.57040   0.53526   0.00000  Uiso   1.00
C188   C     0.33619   0.54717   0.59454   0.00000  Uiso   1.00
C189   C     0.40359   0.48028   0.68478   0.00000  Uiso   1.00
C190   C     0.29564   0.73148   0.40869   0.00000  Uiso   1.00
C191   C     0.30585   0.72312   0.33107   0.00000  Uiso   1.00
C192   C     0.36061   0.76975   0.29698   0.00000  Uiso   1.00
C193   C     0.44209   0.83170   0.21499   0.00000  Uiso   1.00
C194   C     0.18885   0.74613   0.49686   0.00000  Uiso   1.00
C195   C     0.10927   0.75011   0.49335   0.00000  Uiso   1.00
C196   C     0.07412   0.80909   0.53347   0.00000  Uiso   1.00
C197   C     0.98981   0.89379   0.58838   0.00000  Uiso   1.00
C198   C     0.31802   0.78407   0.53482   0.00000  Uiso   1.00
C199   C     0.32948   0.70157   0.56168   0.00000  Uiso   1.00
C200   C     0.37659   0.67846   0.62096   0.00000  Uiso   1.00
C201   C     0.37922   0.60032   0.63669   0.00000  Uiso   1.00
C202   C     0.33859   0.78453   0.45076   0.00000  Uiso   1.00
C203   C     0.39334   0.83119   0.41677   0.00000  Uiso   1.00
C204   C     0.40364   0.82290   0.33912   0.00000  Uiso   1.00
C205   C     0.23180   0.79918   0.53893   0.00000  Uiso   1.00
C206   C     0.19676   0.85817   0.57905   0.00000  Uiso   1.00
C207   C     0.11715   0.86224   0.57561   0.00000  Uiso   1.00
H208   H     0.20550   0.64510   0.42461   0.00000  Uiso   1.00
H209   H     0.25586   0.52936   0.50269   0.00000  Uiso   1.00
H210   H     0.27260   0.68207   0.29853   0.00000  Uiso   1.00
H211   H     0.07606   0.70905   0.46079   0.00000  Uiso   1.00
H212   H     0.33064   0.42443   0.60779   0.00000  Uiso   1.00
H213   H     0.36593   0.74645   0.17731   0.00000  Uiso   1.00
H214   H     0.95148   0.80334   0.51946   0.00000  Uiso   1.00
H215   H     0.35146   0.82538   0.56757   0.00000  Uiso   1.00
H216   H     0.40982   0.71953   0.65350   0.00000  Uiso   1.00
H217   H     0.42656   0.87224   0.44934   0.00000  Uiso   1.00
H218   H     0.23002   0.89922   0.61160   0.00000  Uiso   1.00
H219   H     0.45561   0.57878   0.73019   0.00000  Uiso   1.00
H220   H     0.49089   0.90080   0.29971   0.00000  Uiso   1.00
H221   H     0.07644   0.95769   0.64187   0.00000  Uiso   1.00
O222   O     0.42890   0.42872   0.72292   0.00000  Uiso   1.00
O223   O     0.47518   0.85120   0.15815   0.00000  Uiso   1.00
O224   O     0.93143   0.92584   0.60705   0.00000  Uiso   1.00
N225   N     0.35203   0.47529   0.62481   0.00000  Uiso   1.00
N226   N     0.38503   0.77634   0.22234   0.00000  Uiso   1.00
N227   N     0.99755   0.82955   0.54221   0.00000  Uiso   1.00
N228   N     0.41927   0.55834   0.69068   0.00000  Uiso   1.00
N229   N     0.45227   0.85940   0.28821   0.00000  Uiso   1.00
N230   N     0.06479   0.91260   0.60808   0.00000  Uiso   1.00
C231   C     0.76106   0.31360   0.45736   0.00000  Uiso   1.00
C232   C     0.71347   0.35149   0.51962   0.00000  Uiso   1.00
C233   C     0.71090   0.42960   0.53526   0.00000  Uiso   1.00
C234   C     0.66381   0.45283   0.59454   0.00000  Uiso   1.00
C235   C     0.59641   0.51972   0.68478   0.00000  Uiso   1.00
C236   C     0.70436   0.26852   0.40869   0.00000  Uiso   1.00
C237   C     0.69415   0.27688   0.33107   0.00000  Uiso   1.00
C238   C     0.63939   0.23025   0.29698   0.00000  Uiso   1.00
C239   C     0.55791   0.16830   0.21499   0.00000  Uiso   1.00
C240   C     0.81115   0.25387   0.49686   0.00000  Uiso   1.00
C241   C     0.89073   0.24989   0.49335   0.00000  Uiso   1.00
C242   C     0.92588   0.19091   0.53347   0.00000  Uiso   1.00
C243   C     0.01019   0.10621   0.58838   0.00000  Uiso   1.00
C244   C     0.68198   0.21593   0.53482   0.00000  Uiso   1.00
C245   C     0.67052   0.29843   0.56168   0.00000  Uiso   1.00
C246   C     0.62341   0.32154   0.62096   0.00000  Uiso   1.00
C247   C     0.62078   0.39968   0.63669   0.00000  Uiso   1.00
C248   C     0.66141   0.21547   0.45076   0.00000  Uiso   1.00
C249   C     0.60666   0.16881   0.41677   0.00000  Uiso   1.00
C250   C     0.59636   0.17710   0.33912   0.00000  Uiso   1.00
C251   C     0.76820   0.20082   0.53893   0.00000  Uiso   1.00
C252   C     0.80324   0.14183   0.57905   0.00000  Uiso   1.00
C253   C     0.88285   0.13776   0.57561   0.00000  Uiso   1.00
H254   H     0.79450   0.35490   0.42461   0.00000  Uiso   1.00
H255   H     0.74414   0.47064   0.50269   0.00000  Uiso   1.00
H256   H     0.72740   0.31793   0.29853   0.00000  Uiso   1.00
H257   H     0.92394   0.29095   0.46079   0.00000  Uiso   1.00
H258   H     0.66936   0.57557   0.60779   0.00000  Uiso   1.00
H259   H     0.63407   0.25355   0.17731   0.00000  Uiso   1.00
H260   H     0.04852   0.19666   0.51946   0.00000  Uiso   1.00
H261   H     0.64854   0.17462   0.56757   0.00000  Uiso   1.00
H262   H     0.59018   0.28047   0.65350   0.00000  Uiso   1.00
H263   H     0.57344   0.12776   0.44934   0.00000  Uiso   1.00
H264   H     0.76998   0.10078   0.61160   0.00000  Uiso   1.00
H265   H     0.54439   0.42122   0.73019   0.00000  Uiso   1.00
H266   H     0.50911   0.09920   0.29971   0.00000  Uiso   1.00
H267   H     0.92356   0.04231   0.64187   0.00000  Uiso   1.00
O268   O     0.57110   0.57128   0.72292   0.00000  Uiso   1.00
O269   O     0.52482   0.14880   0.15815   0.00000  Uiso   1.00
O270   O     0.06857   0.07416   0.60705   0.00000  Uiso   1.00
N271   N     0.64797   0.52471   0.62481   0.00000  Uiso   1.00
N272   N     0.61497   0.22366   0.22234   0.00000  Uiso   1.00
N273   N     0.00245   0.17045   0.54221   0.00000  Uiso   1.00
N274   N     0.58073   0.44166   0.69068   0.00000  Uiso   1.00
N275   N     0.54773   0.14060   0.28821   0.00000  Uiso   1.00
N276   N     0.93521   0.08740   0.60808   0.00000  Uiso   1.00
C277   C     0.81360   0.73894   0.95736   0.00000  Uiso   1.00
C278   C     0.85149   0.78653   0.01962   0.00000  Uiso   1.00
C279   C     0.92960   0.78910   0.03526   0.00000  Uiso   1.00
C280   C     0.95283   0.83619   0.09454   0.00000  Uiso   1.00
C281   C     0.01972   0.90359   0.18478   0.00000  Uiso   1.00
C282   C     0.76852   0.79564   0.90869   0.00000  Uiso   1.00
C283   C     0.77688   0.80585   0.83107   0.00000  Uiso   1.00
C284   C     0.73025   0.86061   0.79698   0.00000  Uiso   1.00
C285   C     0.66830   0.94209   0.71499   0.00000  Uiso   1.00
C286   C     0.75387   0.68885   0.99686   0.00000  Uiso   1.00
C287   C     0.74989   0.60927   0.99335   0.00000  Uiso   1.00
C288   C     0.69091   0.57412   0.03347   0.00000  Uiso   1.00
C289   C     0.60621   0.48981   0.08838   0.00000  Uiso   1.00
C290   C     0.71593   0.81802   0.03482   0.00000  Uiso   1.00
C291   C     0.79843   0.82948   0.06168   0.00000  Uiso   1.00
C292   C     0.82154   0.87659   0.12096   0.00000  Uiso   1.00
C293   C     0.89968   0.87922   0.13669   0.00000  Uiso   1.00
C294   C     0.71547   0.83859   0.95076   0.00000  Uiso   1.00
C295   C     0.66881   0.89334   0.91677   0.00000  Uiso   1.00
C296   C     0.67710   0.90364   0.83912   0.00000  Uiso   1.00
C297   C     0.70082   0.73180   0.03893   0.00000  Uiso   1.00
C298   C     0.64183   0.69676   0.07905   0.00000  Uiso   1.00
C299   C     0.63776   0.61715   0.07561   0.00000  Uiso   1.00
H300   H     0.85490   0.70550   0.92461   0.00000  Uiso   1.00
H301   H     0.97064   0.75586   0.00269   0.00000  Uiso   1.00
H302   H     0.81793   0.77260   0.79853   0.00000  Uiso   1.00
H303   H     0.79095   0.57606   0.96079   0.00000  Uiso   1.00
H304   H     0.07557   0.83064   0.10779   0.00000  Uiso   1.00
H305   H     0.75355   0.86593   0.67731   0.00000  Uiso   1.00
H306   H     0.69666   0.45148   0.01946   0.00000  Uiso   1.00
H307   H     0.67462   0.85146   0.06757   0.00000  Uiso   1.00
H308   H     0.78047   0.90982   0.15350   0.00000  Uiso   1.00
H309   H     0.62776   0.92656   0.94934   0.00000  Uiso   1.00
H310   H     0.60078   0.73002   0.11160   0.00000  Uiso   1.00
H311   H     0.92122   0.95561   0.23019   0.00000  Uiso   1.00
H312   H     0.59920   0.99089   0.79971   0.00000  Uiso   1.00
H313   H     0.54231   0.57644   0.14187   0.00000  Uiso   1.00
O314   O     0.07128   0.92890   0.22292   0.00000  Uiso   1.00
O315   O     0.64880   0.97518   0.65815   0.00000  Uiso   1.00
O316   O     0.57416   0.43143   0.10705   0.00000  Uiso   1.00
N317   N     0.02471   0.85203   0.12481   0.00000  Uiso   1.00
N318   N     0.72366   0.88503   0.72234   0.00000  Uiso   1.00
N319   N     0.67045   0.49755   0.04221   0.00000  Uiso   1.00
N320   N     0.94166   0.91927   0.19068   0.00000  Uiso   1.00
N321   N     0.64060   0.95227   0.78821   0.00000  Uiso   1.00
N322   N     0.58740   0.56479   0.10808   0.00000  Uiso   1.00
C323   C     0.18640   0.26106   0.95736   0.00000  Uiso   1.00
C324   C     0.14851   0.21347   0.01962   0.00000  Uiso   1.00
C325   C     0.07040   0.21090   0.03526   0.00000  Uiso   1.00
C326   C     0.04717   0.16381   0.09454   0.00000  Uiso   1.00
C327   C     0.98028   0.09641   0.18478   0.00000  Uiso   1.00
C328   C     0.23148   0.20436   0.90869   0.00000  Uiso   1.00
C329   C     0.22312   0.19415   0.83107   0.00000  Uiso   1.00
C330   C     0.26975   0.13939   0.79698   0.00000  Uiso   1.00
C331   C     0.33170   0.05791   0.71499   0.00000  Uiso   1.00
C332   C     0.24613   0.31115   0.99686   0.00000  Uiso   1.00
C333   C     0.25011   0.39073   0.99335   0.00000  Uiso   1.00
C334   C     0.30909   0.42588   0.03347   0.00000  Uiso   1.00
C335   C     0.39379   0.51019   0.08838   0.00000  Uiso   1.00
C336   C     0.28407   0.18198   0.03482   0.00000  Uiso   1.00
C337   C     0.20157   0.17052   0.06168   0.00000  Uiso   1.00
C338   C     0.17846   0.12341   0.12096   0.00000  Uiso   1.00
C339   C     0.10032   0.12078   0.13669   0.00000  Uiso   1.00
C340   C     0.28453   0.16141   0.95076   0.00000  Uiso   1.00
C341   C     0.33119   0.10666   0.91677   0.00000  Uiso   1.00
C342   C     0.32290   0.09636   0.83912   0.00000  Uiso   1.00
C343   C     0.29918   0.26820   0.03893   0.00000  Uiso   1.00
C344   C     0.35817   0.30324   0.07905   0.00000  Uiso   1.00
C345   C     0.36224   0.38285   0.07561   0.00000  Uiso   1.00
H346   H     0.14510   0.29450   0.92461   0.00000  Uiso   1.00
H347   H     0.02936   0.24414   0.00269   0.00000  Uiso   1.00
H348   H     0.18207   0.22740   0.79853   0.00000  Uiso   1.00
H349   H     0.20905   0.42394   0.96079   0.00000  Uiso   1.00
H350   H     0.92443   0.16936   0.10779   0.00000  Uiso   1.00
H351   H     0.24645   0.13407   0.67731   0.00000  Uiso   1.00
H352   H     0.30334   0.54852   0.01946   0.00000  Uiso   1.00
H353   H     0.32538   0.14854   0.06757   0.00000  Uiso   1.00
H354   H     0.21953   0.09018   0.15350   0.00000  Uiso   1.00
H355   H     0.37224   0.07344   0.94934   0.00000  Uiso   1.00
H356   H     0.39922   0.26998   0.11160   0.00000  Uiso   1.00
H357   H     0.07878   0.04439   0.23019   0.00000  Uiso   1.00
H358   H     0.40080   0.00911   0.79971   0.00000  Uiso   1.00
H359   H     0.45769   0.42356   0.14187   0.00000  Uiso   1.00
O360   O     0.92872   0.07110   0.22292   0.00000  Uiso   1.00
O361   O     0.35120   0.02482   0.65815   0.00000  Uiso   1.00
O362   O     0.42584   0.56857   0.10705   0.00000  Uiso   1.00
N363   N     0.97529   0.14797   0.12481   0.00000  Uiso   1.00
N364   N     0.27634   0.11497   0.72234   0.00000  Uiso   1.00
N365   N     0.32955   0.50245   0.04221   0.00000  Uiso   1.00
N366   N     0.05834   0.08073   0.19068   0.00000  Uiso   1.00
N367   N     0.35940   0.04773   0.78821   0.00000  Uiso   1.00
N368   N     0.41260   0.43521   0.10808   0.00000  Uiso   1.00
