data_job_05291
_audit_creation_date              2018-12-19
_audit_creation_method            'Materials Studio'
_symmetry_space_group_name_H-M    'P1'
_symmetry_Int_Tables_number       1
_symmetry_cell_setting            triclinic
loop_
_symmetry_equiv_pos_as_xyz
  x,y,z
_cell_length_a                    22.0868
_cell_length_b                    11.6190
_cell_length_c                    12.5134
_cell_angle_alpha                 90.0000
_cell_angle_beta                  64.8460
_cell_angle_gamma                 90.0000
loop_
_atom_site_label
_atom_site_type_symbol
_atom_site_fract_x
_atom_site_fract_y
_atom_site_fract_z
_atom_site_U_iso_or_equiv
_atom_site_adp_type
_atom_site_occupancy
C1     C     0.89386   0.41715   0.55223   0.00000  Uiso   1.00
C2     C     0.91214   0.32633   0.62151   0.00000  Uiso   1.00
C3     C     0.87945   0.30820   0.74241   0.00000  Uiso   1.00
C4     C     0.90385   0.22085   0.78900   0.00000  Uiso   1.00
C5     C     0.92386   0.09003   0.90751   0.00000  Uiso   1.00
C6     C     0.95686   0.48877   0.48770   0.00000  Uiso   1.00
C7     C     0.96176   0.60720   0.49608   0.00000  Uiso   1.00
C8     C     0.02381   0.65658   0.43001   0.00000  Uiso   1.00
C9     C     0.11325   0.77796   0.34071   0.00000  Uiso   1.00
C10    C     0.88213   0.35214   0.45685   0.00000  Uiso   1.00
C11    C     0.82421   0.35571   0.43926   0.00000  Uiso   1.00
C12    C     0.82335   0.29008   0.34719   0.00000  Uiso   1.00
C13    C     0.79676   0.19931   0.20999   0.00000  Uiso   1.00
C14    C     0.99534   0.29426   0.41997   0.00000  Uiso   1.00
C15    C     0.96726   0.25959   0.54967   0.00000  Uiso   1.00
C16    C     0.99171   0.17223   0.59609   0.00000  Uiso   1.00
C17    C     0.95906   0.15397   0.71704   0.00000  Uiso   1.00
C18    C     0.01198   0.42202   0.41587   0.00000  Uiso   1.00
C19    C     0.07403   0.47124   0.34976   0.00000  Uiso   1.00
C20    C     0.07903   0.58972   0.35804   0.00000  Uiso   1.00
C21    C     0.93725   0.28538   0.38501   0.00000  Uiso   1.00
C22    C     0.93648   0.21974   0.29294   0.00000  Uiso   1.00
C23    C     0.87857   0.22321   0.27523   0.00000  Uiso   1.00
H24    H     0.85096   0.46912   0.60815   0.00000  Uiso   1.00
H25    H     0.83680   0.35988   0.79798   0.00000  Uiso   1.00
H26    H     0.91910   0.65884   0.55167   0.00000  Uiso   1.00
H27    H     0.78157   0.40738   0.49487   0.00000  Uiso   1.00
H28    H     0.84542   0.20936   0.97676   0.00000  Uiso   1.00
H29    H     0.01896   0.83973   0.45738   0.00000  Uiso   1.00
H30    H     0.72895   0.30949   0.33760   0.00000  Uiso   1.00
H31    H     0.03825   0.24229   0.36404   0.00000  Uiso   1.00
H32    H     0.03437   0.12060   0.54047   0.00000  Uiso   1.00
H33    H     0.11667   0.41956   0.29417   0.00000  Uiso   1.00
H34    H     0.97914   0.16810   0.23737   0.00000  Uiso   1.00
H35    H     0.00578   0.01515   0.76776   0.00000  Uiso   1.00
H36    H     0.17932   0.64553   0.24838   0.00000  Uiso   1.00
H37    H     0.88930   0.11528   0.12860   0.00000  Uiso   1.00
O38    O     0.91968   0.03632   0.99273   0.00000  Uiso   1.00
O39    O     0.14735   0.86334   0.31131   0.00000  Uiso   1.00
O40    O     0.76686   0.16767   0.15417   0.00000  Uiso   1.00
N41    N     0.88369   0.18034   0.90335   0.00000  Uiso   1.00
N42    N     0.04594   0.76970   0.41778   0.00000  Uiso   1.00
N43    N     0.77480   0.27399   0.30577   0.00000  Uiso   1.00
N44    N     0.96997   0.07584   0.79089   0.00000  Uiso   1.00
N45    N     0.13222   0.66519   0.30532   0.00000  Uiso   1.00
N46    N     0.86109   0.16948   0.19331   0.00000  Uiso   1.00
C47    C     0.39386   0.91715   0.55223   0.00000  Uiso   1.00
C48    C     0.41214   0.82633   0.62151   0.00000  Uiso   1.00
C49    C     0.37945   0.80820   0.74241   0.00000  Uiso   1.00
C50    C     0.40385   0.72085   0.78900   0.00000  Uiso   1.00
C51    C     0.42386   0.59003   0.90751   0.00000  Uiso   1.00
C52    C     0.45686   0.98877   0.48770   0.00000  Uiso   1.00
C53    C     0.46176   0.10720   0.49608   0.00000  Uiso   1.00
C54    C     0.52381   0.15658   0.43001   0.00000  Uiso   1.00
C55    C     0.61325   0.27796   0.34071   0.00000  Uiso   1.00
C56    C     0.38213   0.85214   0.45685   0.00000  Uiso   1.00
C57    C     0.32421   0.85571   0.43926   0.00000  Uiso   1.00
C58    C     0.32335   0.79008   0.34719   0.00000  Uiso   1.00
C59    C     0.29676   0.69931   0.20999   0.00000  Uiso   1.00
C60    C     0.49534   0.79426   0.41997   0.00000  Uiso   1.00
C61    C     0.46726   0.75959   0.54967   0.00000  Uiso   1.00
C62    C     0.49171   0.67223   0.59609   0.00000  Uiso   1.00
C63    C     0.45906   0.65397   0.71704   0.00000  Uiso   1.00
C64    C     0.51198   0.92202   0.41587   0.00000  Uiso   1.00
C65    C     0.57403   0.97124   0.34976   0.00000  Uiso   1.00
C66    C     0.57903   0.08972   0.35804   0.00000  Uiso   1.00
C67    C     0.43725   0.78538   0.38501   0.00000  Uiso   1.00
C68    C     0.43648   0.71974   0.29294   0.00000  Uiso   1.00
C69    C     0.37857   0.72321   0.27523   0.00000  Uiso   1.00
H70    H     0.35096   0.96912   0.60815   0.00000  Uiso   1.00
H71    H     0.33680   0.85988   0.79798   0.00000  Uiso   1.00
H72    H     0.41910   0.15884   0.55167   0.00000  Uiso   1.00
H73    H     0.28157   0.90738   0.49487   0.00000  Uiso   1.00
H74    H     0.34542   0.70936   0.97676   0.00000  Uiso   1.00
H75    H     0.51896   0.33973   0.45738   0.00000  Uiso   1.00
H76    H     0.22895   0.80949   0.33760   0.00000  Uiso   1.00
H77    H     0.53825   0.74229   0.36404   0.00000  Uiso   1.00
H78    H     0.53437   0.62060   0.54047   0.00000  Uiso   1.00
H79    H     0.61667   0.91956   0.29417   0.00000  Uiso   1.00
H80    H     0.47914   0.66810   0.23737   0.00000  Uiso   1.00
H81    H     0.50578   0.51515   0.76776   0.00000  Uiso   1.00
H82    H     0.67932   0.14553   0.24838   0.00000  Uiso   1.00
H83    H     0.38930   0.61528   0.12860   0.00000  Uiso   1.00
O84    O     0.41968   0.53632   0.99273   0.00000  Uiso   1.00
O85    O     0.64735   0.36334   0.31131   0.00000  Uiso   1.00
O86    O     0.26686   0.66767   0.15417   0.00000  Uiso   1.00
N87    N     0.38369   0.68034   0.90335   0.00000  Uiso   1.00
N88    N     0.54594   0.26970   0.41778   0.00000  Uiso   1.00
N89    N     0.27480   0.77399   0.30577   0.00000  Uiso   1.00
N90    N     0.46997   0.57584   0.79089   0.00000  Uiso   1.00
N91    N     0.63222   0.16519   0.30532   0.00000  Uiso   1.00
N92    N     0.36109   0.66948   0.19331   0.00000  Uiso   1.00
C93    C     0.89386   0.58285   0.05223   0.00000  Uiso   1.00
C94    C     0.91214   0.67367   0.12151   0.00000  Uiso   1.00
C95    C     0.87945   0.69180   0.24241   0.00000  Uiso   1.00
C96    C     0.90385   0.77915   0.28900   0.00000  Uiso   1.00
C97    C     0.92386   0.90997   0.40751   0.00000  Uiso   1.00
C98    C     0.95686   0.51123   0.98770   0.00000  Uiso   1.00
C99    C     0.96176   0.39280   0.99608   0.00000  Uiso   1.00
C100   C     0.02381   0.34342   0.93001   0.00000  Uiso   1.00
C101   C     0.11325   0.22204   0.84071   0.00000  Uiso   1.00
C102   C     0.88213   0.64786   0.95685   0.00000  Uiso   1.00
C103   C     0.82421   0.64429   0.93926   0.00000  Uiso   1.00
C104   C     0.82335   0.70992   0.84719   0.00000  Uiso   1.00
C105   C     0.79676   0.80069   0.70999   0.00000  Uiso   1.00
C106   C     0.99534   0.70574   0.91997   0.00000  Uiso   1.00
C107   C     0.96726   0.74041   0.04967   0.00000  Uiso   1.00
C108   C     0.99171   0.82777   0.09609   0.00000  Uiso   1.00
C109   C     0.95906   0.84603   0.21704   0.00000  Uiso   1.00
C110   C     0.01198   0.57798   0.91587   0.00000  Uiso   1.00
C111   C     0.07403   0.52876   0.84976   0.00000  Uiso   1.00
C112   C     0.07903   0.41028   0.85804   0.00000  Uiso   1.00
C113   C     0.93725   0.71462   0.88501   0.00000  Uiso   1.00
C114   C     0.93648   0.78026   0.79294   0.00000  Uiso   1.00
C115   C     0.87857   0.77679   0.77523   0.00000  Uiso   1.00
H116   H     0.85096   0.53088   0.10815   0.00000  Uiso   1.00
H117   H     0.83680   0.64012   0.29798   0.00000  Uiso   1.00
H118   H     0.91910   0.34116   0.05167   0.00000  Uiso   1.00
H119   H     0.78157   0.59262   0.99487   0.00000  Uiso   1.00
H120   H     0.84542   0.79064   0.47676   0.00000  Uiso   1.00
H121   H     0.01896   0.16027   0.95738   0.00000  Uiso   1.00
H122   H     0.72895   0.69051   0.83760   0.00000  Uiso   1.00
H123   H     0.03825   0.75771   0.86404   0.00000  Uiso   1.00
H124   H     0.03437   0.87940   0.04047   0.00000  Uiso   1.00
H125   H     0.11667   0.58044   0.79417   0.00000  Uiso   1.00
H126   H     0.97914   0.83190   0.73737   0.00000  Uiso   1.00
H127   H     0.00578   0.98485   0.26776   0.00000  Uiso   1.00
H128   H     0.17932   0.35447   0.74838   0.00000  Uiso   1.00
H129   H     0.88930   0.88472   0.62860   0.00000  Uiso   1.00
O130   O     0.91968   0.96368   0.49273   0.00000  Uiso   1.00
O131   O     0.14735   0.13666   0.81131   0.00000  Uiso   1.00
O132   O     0.76686   0.83233   0.65417   0.00000  Uiso   1.00
N133   N     0.88369   0.81966   0.40335   0.00000  Uiso   1.00
N134   N     0.04594   0.23030   0.91778   0.00000  Uiso   1.00
N135   N     0.77480   0.72601   0.80577   0.00000  Uiso   1.00
N136   N     0.96997   0.92416   0.29089   0.00000  Uiso   1.00
N137   N     0.13222   0.33481   0.80532   0.00000  Uiso   1.00
N138   N     0.86109   0.83052   0.69331   0.00000  Uiso   1.00
C139   C     0.39386   0.08285   0.05223   0.00000  Uiso   1.00
C140   C     0.41214   0.17367   0.12151   0.00000  Uiso   1.00
C141   C     0.37945   0.19180   0.24241   0.00000  Uiso   1.00
C142   C     0.40385   0.27915   0.28900   0.00000  Uiso   1.00
C143   C     0.42386   0.40997   0.40751   0.00000  Uiso   1.00
C144   C     0.45686   0.01123   0.98770   0.00000  Uiso   1.00
C145   C     0.46176   0.89280   0.99608   0.00000  Uiso   1.00
C146   C     0.52381   0.84342   0.93001   0.00000  Uiso   1.00
C147   C     0.61325   0.72204   0.84071   0.00000  Uiso   1.00
C148   C     0.38213   0.14786   0.95685   0.00000  Uiso   1.00
C149   C     0.32421   0.14429   0.93926   0.00000  Uiso   1.00
C150   C     0.32335   0.20992   0.84719   0.00000  Uiso   1.00
C151   C     0.29676   0.30069   0.70999   0.00000  Uiso   1.00
C152   C     0.49534   0.20574   0.91997   0.00000  Uiso   1.00
C153   C     0.46726   0.24041   0.04967   0.00000  Uiso   1.00
C154   C     0.49171   0.32777   0.09609   0.00000  Uiso   1.00
C155   C     0.45906   0.34603   0.21704   0.00000  Uiso   1.00
C156   C     0.51198   0.07798   0.91587   0.00000  Uiso   1.00
C157   C     0.57403   0.02876   0.84976   0.00000  Uiso   1.00
C158   C     0.57903   0.91028   0.85804   0.00000  Uiso   1.00
C159   C     0.43725   0.21462   0.88501   0.00000  Uiso   1.00
C160   C     0.43648   0.28026   0.79294   0.00000  Uiso   1.00
C161   C     0.37857   0.27679   0.77523   0.00000  Uiso   1.00
H162   H     0.35096   0.03088   0.10815   0.00000  Uiso   1.00
H163   H     0.33680   0.14012   0.29798   0.00000  Uiso   1.00
H164   H     0.41910   0.84116   0.05167   0.00000  Uiso   1.00
H165   H     0.28157   0.09262   0.99487   0.00000  Uiso   1.00
H166   H     0.34542   0.29064   0.47676   0.00000  Uiso   1.00
H167   H     0.51896   0.66027   0.95738   0.00000  Uiso   1.00
H168   H     0.22895   0.19051   0.83760   0.00000  Uiso   1.00
H169   H     0.53825   0.25771   0.86404   0.00000  Uiso   1.00
H170   H     0.53437   0.37940   0.04047   0.00000  Uiso   1.00
H171   H     0.61667   0.08044   0.79417   0.00000  Uiso   1.00
H172   H     0.47914   0.33190   0.73737   0.00000  Uiso   1.00
H173   H     0.50578   0.48485   0.26776   0.00000  Uiso   1.00
H174   H     0.67932   0.85447   0.74838   0.00000  Uiso   1.00
H175   H     0.38930   0.38472   0.62860   0.00000  Uiso   1.00
O176   O     0.41968   0.46368   0.49273   0.00000  Uiso   1.00
O177   O     0.64735   0.63666   0.81131   0.00000  Uiso   1.00
O178   O     0.26686   0.33233   0.65417   0.00000  Uiso   1.00
N179   N     0.38369   0.31966   0.40335   0.00000  Uiso   1.00
N180   N     0.54594   0.73030   0.91778   0.00000  Uiso   1.00
N181   N     0.27480   0.22601   0.80577   0.00000  Uiso   1.00
N182   N     0.46997   0.42416   0.29089   0.00000  Uiso   1.00
N183   N     0.63222   0.83481   0.80532   0.00000  Uiso   1.00
N184   N     0.36109   0.33052   0.69331   0.00000  Uiso   1.00
