data_job_07020
_audit_creation_date              2018-12-19
_audit_creation_method            'Materials Studio'
_symmetry_space_group_name_H-M    'P1'
_symmetry_Int_Tables_number       1
_symmetry_cell_setting            triclinic
loop_
_symmetry_equiv_pos_as_xyz
  x,y,z
_cell_length_a                    21.0648
_cell_length_b                    23.5364
_cell_length_c                    24.0238
_cell_angle_alpha                 104.9826
_cell_angle_beta                  105.0226
_cell_angle_gamma                 113.4884
loop_
_atom_site_label
_atom_site_type_symbol
_atom_site_fract_x
_atom_site_fract_y
_atom_site_fract_z
_atom_site_U_iso_or_equiv
_atom_site_adp_type
_atom_site_occupancy
C1     C     0.09000   0.59656   0.13594   0.00000  Uiso   1.00
C2     C     0.04169   0.60097   0.17264   0.00000  Uiso   1.00
C3     C     0.00727   0.64049   0.17416   0.00000  Uiso   1.00
C4     C     0.96545   0.63749   0.21057   0.00000  Uiso   1.00
C5     C     0.89155   0.65060   0.26246   0.00000  Uiso   1.00
C6     C     0.16620   0.61531   0.18433   0.00000  Uiso   1.00
C7     C     0.23646   0.66688   0.19566   0.00000  Uiso   1.00
C8     C     0.29946   0.67594   0.24189   0.00000  Uiso   1.00
C9     C     0.41887   0.71129   0.31189   0.00000  Uiso   1.00
C10    C     0.05316   0.52162   0.09333   0.00000  Uiso   1.00
C11    C     0.02840   0.49441   0.02814   0.00000  Uiso   1.00
C12    C     0.99624   0.42459   0.99776   0.00000  Uiso   1.00
C13    C     0.94014   0.31446   0.92647   0.00000  Uiso   1.00
C14    C     0.07694   0.52097   0.19790   0.00000  Uiso   1.00
C15    C     0.03460   0.55991   0.20630   0.00000  Uiso   1.00
C16    C     0.99282   0.55685   0.24271   0.00000  Uiso   1.00
C17    C     0.95834   0.59636   0.24428   0.00000  Uiso   1.00
C18    C     0.15911   0.57425   0.21798   0.00000  Uiso   1.00
C19    C     0.22202   0.58324   0.26420   0.00000  Uiso   1.00
C20    C     0.29235   0.63481   0.27561   0.00000  Uiso   1.00
C21    C     0.04607   0.48056   0.12698   0.00000  Uiso   1.00
C22    C     0.01395   0.41077   0.09669   0.00000  Uiso   1.00
C23    C     0.98913   0.38346   0.03148   0.00000  Uiso   1.00
H24    H     0.09552   0.62853   0.10975   0.00000  Uiso   1.00
H25    H     0.01278   0.67226   0.14812   0.00000  Uiso   1.00
H26    H     0.24193   0.69864   0.16960   0.00000  Uiso   1.00
H27    H     0.03389   0.52619   0.00212   0.00000  Uiso   1.00
H28    H     0.91793   0.70265   0.20551   0.00000  Uiso   1.00
H29    H     0.40112   0.75826   0.25081   0.00000  Uiso   1.00
H30    H     0.96244   0.39463   0.89763   0.00000  Uiso   1.00
H31    H     0.07142   0.48901   0.22410   0.00000  Uiso   1.00
H32    H     0.98735   0.52508   0.26874   0.00000  Uiso   1.00
H33    H     0.21651   0.55146   0.29023   0.00000  Uiso   1.00
H34    H     0.00847   0.37902   0.12275   0.00000  Uiso   1.00
H35    H     0.89729   0.58320   0.30342   0.00000  Uiso   1.00
H36    H     0.38049   0.63880   0.34871   0.00000  Uiso   1.00
H37    H     0.94180   0.27517   0.99554   0.00000  Uiso   1.00
O38    O     0.85276   0.66919   0.28179   0.00000  Uiso   1.00
O39    O     0.48669   0.74213   0.34120   0.00000  Uiso   1.00
O40    O     0.91114   0.26506   0.87785   0.00000  Uiso   1.00
N41    N     0.92460   0.66958   0.22242   0.00000  Uiso   1.00
N42    N     0.37635   0.72157   0.26477   0.00000  Uiso   1.00
N43    N     0.96624   0.38161   0.93459   0.00000  Uiso   1.00
N44    N     0.91349   0.60530   0.27510   0.00000  Uiso   1.00
N45    N     0.36525   0.65729   0.31746   0.00000  Uiso   1.00
N46    N     0.95513   0.31733   0.98727   0.00000  Uiso   1.00
C47    C     0.57925   0.02842   0.55199   0.00000  Uiso   1.00
C48    C     0.58172   0.08741   0.53549   0.00000  Uiso   1.00
C49    C     0.51924   0.09268   0.50685   0.00000  Uiso   1.00
C50    C     0.53342   0.15065   0.49572   0.00000  Uiso   1.00
C51    C     0.52599   0.23450   0.46749   0.00000  Uiso   1.00
C52    C     0.62143   0.00259   0.51920   0.00000  Uiso   1.00
C53    C     0.59234   0.93654   0.47688   0.00000  Uiso   1.00
C54    C     0.63996   0.92311   0.45204   0.00000  Uiso   1.00
C55    C     0.69421   0.87527   0.39857   0.00000  Uiso   1.00
C56    C     0.62800   0.05938   0.62261   0.00000  Uiso   1.00
C57    C     0.60444   0.04106   0.66724   0.00000  Uiso   1.00
C58    C     0.65759   0.07543   0.72947   0.00000  Uiso   1.00
C59    C     0.72203   0.11576   0.83656   0.00000  Uiso   1.00
C60    C     0.71555   0.12199   0.58313   0.00000  Uiso   1.00
C61    C     0.65575   0.13823   0.55240   0.00000  Uiso   1.00
C62    C     0.67003   0.19621   0.54131   0.00000  Uiso   1.00
C63    C     0.60758   0.20157   0.51266   0.00000  Uiso   1.00
C64    C     0.69546   0.05341   0.53611   0.00000  Uiso   1.00
C65    C     0.74314   0.04007   0.51134   0.00000  Uiso   1.00
C66    C     0.71413   0.97403   0.46899   0.00000  Uiso   1.00
C67    C     0.70203   0.11020   0.63953   0.00000  Uiso   1.00
C68    C     0.75523   0.14460   0.70170   0.00000  Uiso   1.00
C69    C     0.73176   0.12635   0.74642   0.00000  Uiso   1.00
H70    H     0.52161   0.98884   0.53882   0.00000  Uiso   1.00
H71    H     0.46195   0.05333   0.49377   0.00000  Uiso   1.00
H72    H     0.53505   0.89722   0.46381   0.00000  Uiso   1.00
H73    H     0.54715   0.00173   0.65414   0.00000  Uiso   1.00
H74    H     0.42845   0.14723   0.45126   0.00000  Uiso   1.00
H75    H     0.58259   0.81805   0.38810   0.00000  Uiso   1.00
H76    H     0.60809   0.03843   0.78945   0.00000  Uiso   1.00
H77    H     0.77319   0.16157   0.59630   0.00000  Uiso   1.00
H78    H     0.72733   0.23554   0.55440   0.00000  Uiso   1.00
H79    H     0.80043   0.07942   0.52444   0.00000  Uiso   1.00
H80    H     0.81252   0.18393   0.71477   0.00000  Uiso   1.00
H81    H     0.64384   0.29512   0.50047   0.00000  Uiso   1.00
H82    H     0.79798   0.96593   0.43731   0.00000  Uiso   1.00
H83    H     0.82348   0.18631   0.83866   0.00000  Uiso   1.00
O84    O     0.50144   0.26671   0.44724   0.00000  Uiso   1.00
O85    O     0.70367   0.83483   0.36439   0.00000  Uiso   1.00
O86    O     0.73713   0.12396   0.89096   0.00000  Uiso   1.00
N87    N     0.48544   0.17189   0.46860   0.00000  Uiso   1.00
N88    N     0.62955   0.86413   0.40954   0.00000  Uiso   1.00
N89    N     0.65339   0.07015   0.78477   0.00000  Uiso   1.00
N90    N     0.60134   0.25147   0.49508   0.00000  Uiso   1.00
N91    N     0.74545   0.94371   0.43602   0.00000  Uiso   1.00
N92    N     0.76929   0.14973   0.81125   0.00000  Uiso   1.00
C93    C     0.25842   0.85417   0.90916   0.00000  Uiso   1.00
C94    C     0.17838   0.79879   0.86167   0.00000  Uiso   1.00
C95    C     0.11463   0.80609   0.84757   0.00000  Uiso   1.00
C96    C     0.04658   0.74937   0.80276   0.00000  Uiso   1.00
C97    C     0.92291   0.67276   0.73354   0.00000  Uiso   1.00
C98    C     0.28324   0.82595   0.95575   0.00000  Uiso   1.00
C99    C     0.30766   0.85608   0.02075   0.00000  Uiso   1.00
C100   C     0.32788   0.82222   0.05514   0.00000  Uiso   1.00
C101   C     0.36706   0.78780   0.13199   0.00000  Uiso   1.00
C102   C     0.30852   0.85985   0.87271   0.00000  Uiso   1.00
C103   C     0.35421   0.91849   0.86790   0.00000  Uiso   1.00
C104   C     0.39573   0.91317   0.83238   0.00000  Uiso   1.00
C105   C     0.47415   0.93139   0.78030   0.00000  Uiso   1.00
C106   C     0.25094   0.74045   0.85465   0.00000  Uiso   1.00
C107   C     0.17432   0.73702   0.83207   0.00000  Uiso   1.00
C108   C     0.10635   0.68027   0.78726   0.00000  Uiso   1.00
C109   C     0.04250   0.68749   0.77309   0.00000  Uiso   1.00
C110   C     0.27917   0.76418   0.92615   0.00000  Uiso   1.00
C111   C     0.29937   0.73027   0.96044   0.00000  Uiso   1.00
C112   C     0.32381   0.76034   0.02548   0.00000  Uiso   1.00
C113   C     0.30445   0.79808   0.84310   0.00000  Uiso   1.00
C114   C     0.34592   0.79267   0.80759   0.00000  Uiso   1.00
C115   C     0.39166   0.85129   0.80272   0.00000  Uiso   1.00
H116   H     0.26159   0.90226   0.93221   0.00000  Uiso   1.00
H117   H     0.11780   0.85390   0.87050   0.00000  Uiso   1.00
H118   H     0.31081   0.90388   0.04365   0.00000  Uiso   1.00
H119   H     0.35734   0.96628   0.89082   0.00000  Uiso   1.00
H120   H     0.95658   0.77303   0.78903   0.00000  Uiso   1.00
H121   H     0.36357   0.87844   0.15414   0.00000  Uiso   1.00
H122   H     0.46170   0.01002   0.83187   0.00000  Uiso   1.00
H123   H     0.24777   0.69236   0.83160   0.00000  Uiso   1.00
H124   H     0.10322   0.63248   0.76436   0.00000  Uiso   1.00
H125   H     0.29622   0.68247   0.93752   0.00000  Uiso   1.00
H126   H     0.34276   0.74486   0.78469   0.00000  Uiso   1.00
H127   H     0.94474   0.59332   0.70289   0.00000  Uiso   1.00
H128   H     0.35173   0.69874   0.06800   0.00000  Uiso   1.00
H129   H     0.44986   0.83031   0.74572   0.00000  Uiso   1.00
O130   O     0.85582   0.64757   0.70355   0.00000  Uiso   1.00
O131   O     0.38978   0.78587   0.18256   0.00000  Uiso   1.00
O132   O     0.51852   0.95849   0.75975   0.00000  Uiso   1.00
N133   N     0.97364   0.73896   0.77797   0.00000  Uiso   1.00
N134   N     0.35413   0.83751   0.11933   0.00000  Uiso   1.00
N135   N     0.44590   0.96053   0.81805   0.00000  Uiso   1.00
N136   N     0.96727   0.64226   0.73162   0.00000  Uiso   1.00
N137   N     0.34776   0.74081   0.07297   0.00000  Uiso   1.00
N138   N     0.43953   0.86382   0.77169   0.00000  Uiso   1.00
C139   C     0.00554   0.13631   0.42079   0.00000  Uiso   1.00
C140   C     0.02385   0.16833   0.37527   0.00000  Uiso   1.00
C141   C     0.99648   0.20818   0.35666   0.00000  Uiso   1.00
C142   C     0.01992   0.23273   0.31467   0.00000  Uiso   1.00
C143   C     0.04092   0.28473   0.24745   0.00000  Uiso   1.00
C144   C     0.08165   0.16155   0.47349   0.00000  Uiso   1.00
C145   C     0.10286   0.19568   0.53746   0.00000  Uiso   1.00
C146   C     0.17495   0.21451   0.57814   0.00000  Uiso   1.00
C147   C     0.28565   0.25593   0.66340   0.00000  Uiso   1.00
C148   C     0.97302   0.06037   0.38518   0.00000  Uiso   1.00
C149   C     0.90291   0.00943   0.37491   0.00000  Uiso   1.00
C150   C     0.88355   0.94307   0.34125   0.00000  Uiso   1.00
C151   C     0.82559   0.82741   0.28940   0.00000  Uiso   1.00
C152   C     0.09583   0.10905   0.37930   0.00000  Uiso   1.00
C153   C     0.07289   0.15352   0.35274   0.00000  Uiso   1.00
C154   C     0.09638   0.17801   0.31076   0.00000  Uiso   1.00
C155   C     0.06905   0.21789   0.29209   0.00000  Uiso   1.00
C156   C     0.13069   0.14674   0.45095   0.00000  Uiso   1.00
C157   C     0.20276   0.16552   0.49155   0.00000  Uiso   1.00
C158   C     0.22408   0.19967   0.55556   0.00000  Uiso   1.00
C159   C     0.02206   0.04556   0.36264   0.00000  Uiso   1.00
C160   C     0.00281   0.97927   0.32900   0.00000  Uiso   1.00
C161   C     0.93268   0.92824   0.31868   0.00000  Uiso   1.00
H162   H     0.96737   0.14784   0.43834   0.00000  Uiso   1.00
H163   H     0.95854   0.21964   0.37412   0.00000  Uiso   1.00
H164   H     0.06490   0.20713   0.55488   0.00000  Uiso   1.00
H165   H     0.86498   0.02091   0.39236   0.00000  Uiso   1.00
H166   H     0.97040   0.29272   0.29300   0.00000  Uiso   1.00
H167   H     0.19465   0.26633   0.67415   0.00000  Uiso   1.00
H168   H     0.77308   0.87365   0.33144   0.00000  Uiso   1.00
H169   H     0.13402   0.09751   0.36175   0.00000  Uiso   1.00
H170   H     0.13433   0.16655   0.29333   0.00000  Uiso   1.00
H171   H     0.24069   0.15404   0.47409   0.00000  Uiso   1.00
H172   H     0.04077   0.96782   0.31157   0.00000  Uiso   1.00
H173   H     0.11308   0.24963   0.22743   0.00000  Uiso   1.00
H174   H     0.33734   0.22324   0.60858   0.00000  Uiso   1.00
H175   H     0.91576   0.83057   0.26586   0.00000  Uiso   1.00
O176   O     0.03896   0.31752   0.21660   0.00000  Uiso   1.00
O177   O     0.33317   0.28288   0.71665   0.00000  Uiso   1.00
O178   O     0.78007   0.76770   0.26702   0.00000  Uiso   1.00
N179   N     0.00392   0.27310   0.28695   0.00000  Uiso   1.00
N180   N     0.21359   0.24843   0.64330   0.00000  Uiso   1.00
N181   N     0.81947   0.88131   0.32291   0.00000  Uiso   1.00
N182   N     0.08070   0.24991   0.25167   0.00000  Uiso   1.00
N183   N     0.29037   0.22525   0.60801   0.00000  Uiso   1.00
N184   N     0.89624   0.85813   0.28762   0.00000  Uiso   1.00
C185   C     0.47103   0.47150   0.60941   0.00000  Uiso   1.00
C186   C     0.48622   0.54430   0.63194   0.00000  Uiso   1.00
C187   C     0.43150   0.56367   0.62213   0.00000  Uiso   1.00
C188   C     0.45694   0.63281   0.64649   0.00000  Uiso   1.00
C189   C     0.46875   0.73856   0.67647   0.00000  Uiso   1.00
C190   C     0.50834   0.46362   0.66825   0.00000  Uiso   1.00
C191   C     0.47222   0.41514   0.68896   0.00000  Uiso   1.00
C192   C     0.51628   0.41636   0.74388   0.00000  Uiso   1.00
C193   C     0.56245   0.39682   0.83021   0.00000  Uiso   1.00
C194   C     0.51618   0.46711   0.56967   0.00000  Uiso   1.00
C195   C     0.48665   0.42155   0.50749   0.00000  Uiso   1.00
C196   C     0.53733   0.42569   0.47942   0.00000  Uiso   1.00
C197   C     0.59566   0.41156   0.41269   0.00000  Uiso   1.00
C198   C     0.61353   0.55984   0.67012   0.00000  Uiso   1.00
C199   C     0.56362   0.59229   0.66491   0.00000  Uiso   1.00
C200   C     0.58915   0.66141   0.68929   0.00000  Uiso   1.00
C201   C     0.53447   0.68088   0.67952   0.00000  Uiso   1.00
C202   C     0.58574   0.51160   0.70122   0.00000  Uiso   1.00
C203   C     0.62987   0.51288   0.75612   0.00000  Uiso   1.00
C204   C     0.59382   0.46443   0.77691   0.00000  Uiso   1.00
C205   C     0.59358   0.51509   0.60263   0.00000  Uiso   1.00
C206   C     0.64431   0.51929   0.57465   0.00000  Uiso   1.00
C207   C     0.61486   0.47376   0.51245   0.00000  Uiso   1.00
H208   H     0.41078   0.43414   0.58375   0.00000  Uiso   1.00
H209   H     0.37161   0.52652   0.59661   0.00000  Uiso   1.00
H210   H     0.41232   0.37802   0.66343   0.00000  Uiso   1.00
H211   H     0.42676   0.38442   0.48200   0.00000  Uiso   1.00
H212   H     0.36231   0.65011   0.62544   0.00000  Uiso   1.00
H213   H     0.44817   0.33696   0.76631   0.00000  Uiso   1.00
H214   H     0.47861   0.35047   0.38372   0.00000  Uiso   1.00
H215   H     0.67379   0.59720   0.69579   0.00000  Uiso   1.00
H216   H     0.64905   0.69854   0.71480   0.00000  Uiso   1.00
H217   H     0.68976   0.55002   0.78162   0.00000  Uiso   1.00
H218   H     0.70420   0.55643   0.60018   0.00000  Uiso   1.00
H219   H     0.58749   0.78972   0.72137   0.00000  Uiso   1.00
H220   H     0.67335   0.47656   0.86224   0.00000  Uiso   1.00
H221   H     0.70379   0.49008   0.47965   0.00000  Uiso   1.00
O222   O     0.45388   0.78364   0.68391   0.00000  Uiso   1.00
O223   O     0.56652   0.37278   0.86872   0.00000  Uiso   1.00
O224   O     0.60646   0.39051   0.36677   0.00000  Uiso   1.00
N225   N     0.41870   0.66906   0.64540   0.00000  Uiso   1.00
N226   N     0.49897   0.37629   0.77711   0.00000  Uiso   1.00
N227   N     0.52743   0.38891   0.41942   0.00000  Uiso   1.00
N228   N     0.53987   0.74419   0.69701   0.00000  Uiso   1.00
N229   N     0.62014   0.45141   0.82873   0.00000  Uiso   1.00
N230   N     0.64860   0.46403   0.47104   0.00000  Uiso   1.00
C231   C     0.36321   0.33465   0.89904   0.00000  Uiso   1.00
C232   C     0.27940   0.30246   0.88673   0.00000  Uiso   1.00
C233   C     0.22244   0.29694   0.83726   0.00000  Uiso   1.00
C234   C     0.14935   0.26579   0.83422   0.00000  Uiso   1.00
C235   C     0.02156   0.21954   0.80826   0.00000  Uiso   1.00
C236   C     0.38478   0.28034   0.90098   0.00000  Uiso   1.00
C237   C     0.41643   0.25624   0.86349   0.00000  Uiso   1.00
C238   C     0.43206   0.20647   0.87245   0.00000  Uiso   1.00
C239   C     0.46794   0.12592   0.86865   0.00000  Uiso   1.00
C240   C     0.40590   0.38996   0.96600   0.00000  Uiso   1.00
C241   C     0.45533   0.45801   0.98320   0.00000  Uiso   1.00
C242   C     0.48876   0.50053   0.04691   0.00000  Uiso   1.00
C243   C     0.55743   0.59017   0.14407   0.00000  Uiso   1.00
C244   C     0.33470   0.28914   0.98162   0.00000  Uiso   1.00
C245   C     0.26391   0.27774   0.93158   0.00000  Uiso   1.00
C246   C     0.19089   0.24659   0.92862   0.00000  Uiso   1.00
C247   C     0.13383   0.24103   0.87915   0.00000  Uiso   1.00
C248   C     0.36930   0.25562   0.94583   0.00000  Uiso   1.00
C249   C     0.38489   0.20589   0.95485   0.00000  Uiso   1.00
C250   C     0.41655   0.18171   0.91739   0.00000  Uiso   1.00
C251   C     0.39041   0.36524   0.01086   0.00000  Uiso   1.00
C252   C     0.42378   0.40766   0.07456   0.00000  Uiso   1.00
C253   C     0.47324   0.47577   0.09185   0.00000  Uiso   1.00
H254   H     0.37527   0.35390   0.86412   0.00000  Uiso   1.00
H255   H     0.23444   0.31608   0.80255   0.00000  Uiso   1.00
H256   H     0.42842   0.27538   0.82879   0.00000  Uiso   1.00
H257   H     0.46730   0.47712   0.94847   0.00000  Uiso   1.00
H258   H     0.07148   0.26322   0.75406   0.00000  Uiso   1.00
H259   H     0.48051   0.17744   0.80939   0.00000  Uiso   1.00
H260   H     0.56251   0.60285   0.06178   0.00000  Uiso   1.00
H261   H     0.32264   0.26989   0.01654   0.00000  Uiso   1.00
H262   H     0.17892   0.22747   0.96334   0.00000  Uiso   1.00
H263   H     0.37290   0.18677   0.98957   0.00000  Uiso   1.00
H264   H     0.41178   0.38851   0.10926   0.00000  Uiso   1.00
H265   H     0.02642   0.19130   0.88455   0.00000  Uiso   1.00
H266   H     0.43545   0.10551   0.93989   0.00000  Uiso   1.00
H267   H     0.51745   0.53093   0.19228   0.00000  Uiso   1.00
O268   O     0.95536   0.20085   0.78154   0.00000  Uiso   1.00
O269   O     0.49200   0.08831   0.85415   0.00000  Uiso   1.00
O270   O     0.59957   0.64644   0.18527   0.00000  Uiso   1.00
N271   N     0.08060   0.25213   0.79208   0.00000  Uiso   1.00
N272   N     0.46301   0.17192   0.84381   0.00000  Uiso   1.00
N273   N     0.53968   0.56964   0.07977   0.00000  Uiso   1.00
N274   N     0.05635   0.21343   0.86230   0.00000  Uiso   1.00
N275   N     0.43876   0.13322   0.91403   0.00000  Uiso   1.00
N276   N     0.51544   0.53094   0.14999   0.00000  Uiso   1.00
C277   C     0.76320   0.38218   0.79758   0.00000  Uiso   1.00
C278   C     0.82037   0.37614   0.77193   0.00000  Uiso   1.00
C279   C     0.85591   0.33908   0.78273   0.00000  Uiso   1.00
C280   C     0.90637   0.33998   0.75506   0.00000  Uiso   1.00
C281   C     0.99292   0.32500   0.72087   0.00000  Uiso   1.00
C282   C     0.69213   0.35874   0.74018   0.00000  Uiso   1.00
C283   C     0.61984   0.30705   0.72429   0.00000  Uiso   1.00
C284   C     0.56235   0.29331   0.66989   0.00000  Uiso   1.00
C285   C     0.44979   0.25135   0.58643   0.00000  Uiso   1.00
C286   C     0.79521   0.45792   0.83378   0.00000  Uiso   1.00
C287   C     0.80959   0.48962   0.89659   0.00000  Uiso   1.00
C288   C     0.83887   0.55939   0.92100   0.00000  Uiso   1.00
C289   C     0.88637   0.67141   0.98287   0.00000  Uiso   1.00
C290   C     0.78962   0.44970   0.72924   0.00000  Uiso   1.00
C291   C     0.83471   0.41282   0.73482   0.00000  Uiso   1.00
C292   C     0.88514   0.41378   0.70713   0.00000  Uiso   1.00
C293   C     0.92075   0.37673   0.71789   0.00000  Uiso   1.00
C294   C     0.70647   0.39541   0.70306   0.00000  Uiso   1.00
C295   C     0.64907   0.38176   0.64869   0.00000  Uiso   1.00
C296   C     0.57672   0.33005   0.63271   0.00000  Uiso   1.00
C297   C     0.80956   0.49460   0.79667   0.00000  Uiso   1.00
C298   C     0.83882   0.56433   0.82099   0.00000  Uiso   1.00
C299   C     0.85324   0.59613   0.88382   0.00000  Uiso   1.00
H300   H     0.75203   0.35362   0.82647   0.00000  Uiso   1.00
H301   H     0.84478   0.31070   0.81145   0.00000  Uiso   1.00
H302   H     0.60875   0.27868   0.75302   0.00000  Uiso   1.00
H303   H     0.79848   0.46122   0.92530   0.00000  Uiso   1.00
H304   H     0.95393   0.27925   0.77841   0.00000  Uiso   1.00
H305   H     0.45625   0.21177   0.65522   0.00000  Uiso   1.00
H306   H     0.85631   0.59669   0.01850   0.00000  Uiso   1.00
H307   H     0.80079   0.47826   0.70035   0.00000  Uiso   1.00
H308   H     0.89623   0.44217   0.67841   0.00000  Uiso   1.00
H309   H     0.66020   0.41015   0.61998   0.00000  Uiso   1.00
H310   H     0.84992   0.59269   0.79225   0.00000  Uiso   1.00
H311   H     0.99568   0.38596   0.67043   0.00000  Uiso   1.00
H312   H     0.49799   0.31847   0.54724   0.00000  Uiso   1.00
H313   H     0.89806   0.70340   0.91052   0.00000  Uiso   1.00
O314   O     0.03669   0.30660   0.71225   0.00000  Uiso   1.00
O315   O     0.38374   0.21807   0.55064   0.00000  Uiso   1.00
O316   O     0.90862   0.72308   0.02725   0.00000  Uiso   1.00
N317   N     0.95067   0.30933   0.75602   0.00000  Uiso   1.00
N318   N     0.48537   0.24622   0.64084   0.00000  Uiso   1.00
N319   N     0.85937   0.60610   0.98047   0.00000  Uiso   1.00
N320   N     0.97314   0.36675   0.69792   0.00000  Uiso   1.00
N321   N     0.50783   0.30364   0.58273   0.00000  Uiso   1.00
N322   N     0.88184   0.66351   0.92237   0.00000  Uiso   1.00
C323   C     0.23538   0.90932   0.49808   0.00000  Uiso   1.00
C324   C     0.23179   0.85169   0.51745   0.00000  Uiso   1.00
C325   C     0.28047   0.85886   0.57358   0.00000  Uiso   1.00
C326   C     0.26775   0.79991   0.58242   0.00000  Uiso   1.00
C327   C     0.27117   0.72012   0.61947   0.00000  Uiso   1.00
C328   C     0.15767   0.90352   0.48433   0.00000  Uiso   1.00
C329   C     0.14404   0.95428   0.51261   0.00000  Uiso   1.00
C330   C     0.06892   0.93897   0.49357   0.00000  Uiso   1.00
C331   C     0.95728   0.93967   0.47917   0.00000  Uiso   1.00
C332   C     0.24186   0.89228   0.43482   0.00000  Uiso   1.00
C333   C     0.29900   0.93359   0.42145   0.00000  Uiso   1.00
C334   C     0.29476   0.90881   0.36072   0.00000  Uiso   1.00
C335   C     0.31383   0.89205   0.26943   0.00000  Uiso   1.00
C336   C     0.12622   0.79188   0.41397   0.00000  Uiso   1.00
C337   C     0.17249   0.78790   0.47177   0.00000  Uiso   1.00
C338   C     0.15970   0.72892   0.48053   0.00000  Uiso   1.00
C339   C     0.20835   0.73600   0.53666   0.00000  Uiso   1.00
C340   C     0.09838   0.83974   0.43865   0.00000  Uiso   1.00
C341   C     0.02326   0.82434   0.41956   0.00000  Uiso   1.00
C342   C     0.00952   0.87506   0.44781   0.00000  Uiso   1.00
C343   C     0.18257   0.82849   0.38913   0.00000  Uiso   1.00
C344   C     0.17823   0.80364   0.32841   0.00000  Uiso   1.00
C345   C     0.23536   0.84490   0.31495   0.00000  Uiso   1.00
H346   H     0.28153   0.95899   0.53364   0.00000  Uiso   1.00
H347   H     0.32634   0.90823   0.60892   0.00000  Uiso   1.00
H348   H     0.18993   0.00364   0.54796   0.00000  Uiso   1.00
H349   H     0.34487   0.98295   0.45682   0.00000  Uiso   1.00
H350   H     0.34986   0.82383   0.67225   0.00000  Uiso   1.00
H351   H     0.06223   0.02502   0.54369   0.00000  Uiso   1.00
H352   H     0.38896   0.98138   0.35150   0.00000  Uiso   1.00
H353   H     0.08005   0.74222   0.37841   0.00000  Uiso   1.00
H354   H     0.11381   0.67956   0.44517   0.00000  Uiso   1.00
H355   H     0.97740   0.77498   0.38421   0.00000  Uiso   1.00
H356   H     0.13234   0.75428   0.29307   0.00000  Uiso   1.00
H357   H     0.17736   0.63824   0.53934   0.00000  Uiso   1.00
H358   H     0.88973   0.83942   0.41078   0.00000  Uiso   1.00
H359   H     0.21645   0.79578   0.21859   0.00000  Uiso   1.00
O360   O     0.28944   0.69374   0.65252   0.00000  Uiso   1.00
O361   O     0.91208   0.95769   0.48385   0.00000  Uiso   1.00
O362   O     0.34074   0.90043   0.23170   0.00000  Uiso   1.00
N363   N     0.30464   0.78875   0.63180   0.00000  Uiso   1.00
N364   N     0.03572   0.97684   0.51161   0.00000  Uiso   1.00
N365   N     0.34117   0.93605   0.33193   0.00000  Uiso   1.00
N366   N     0.21182   0.68888   0.56028   0.00000  Uiso   1.00
N367   N     0.94290   0.87697   0.44009   0.00000  Uiso   1.00
N368   N     0.24835   0.83618   0.26041   0.00000  Uiso   1.00
C369   C     0.72434   0.31471   0.10452   0.00000  Uiso   1.00
C370   C     0.79021   0.34877   0.16902   0.00000  Uiso   1.00
C371   C     0.85859   0.34935   0.18080   0.00000  Uiso   1.00
C372   C     0.91162   0.38329   0.24305   0.00000  Uiso   1.00
C373   C     0.01618   0.43130   0.33579   0.00000  Uiso   1.00
C374   C     0.70853   0.37017   0.09512   0.00000  Uiso   1.00
C375   C     0.70823   0.38874   0.04477   0.00000  Uiso   1.00
C376   C     0.69248   0.44069   0.04482   0.00000  Uiso   1.00
C377   C     0.67019   0.52190   0.02281   0.00000  Uiso   1.00
C378   C     0.65549   0.26580   0.11084   0.00000  Uiso   1.00
C379   C     0.61056   0.19662   0.07368   0.00000  Uiso   1.00
C380   C     0.55014   0.16071   0.08695   0.00000  Uiso   1.00
C381   C     0.44548   0.07987   0.08933   0.00000  Uiso   1.00
C382   C     0.69692   0.37395   0.19414   0.00000  Uiso   1.00
C383   C     0.77532   0.38095   0.21770   0.00000  Uiso   1.00
C384   C     0.82825   0.41489   0.27995   0.00000  Uiso   1.00
C385   C     0.89670   0.41552   0.29182   0.00000  Uiso   1.00
C386   C     0.69364   0.40235   0.14380   0.00000  Uiso   1.00
C387   C     0.67789   0.45428   0.14392   0.00000  Uiso   1.00
C388   C     0.67756   0.47293   0.09358   0.00000  Uiso   1.00
C389   C     0.64059   0.29798   0.15951   0.00000  Uiso   1.00
C390   C     0.58023   0.26217   0.17284   0.00000  Uiso   1.00
C391   C     0.53522   0.19294   0.13571   0.00000  Uiso   1.00
H392   H     0.73593   0.28966   0.06662   0.00000  Uiso   1.00
H393   H     0.87010   0.32445   0.14311   0.00000  Uiso   1.00
H394   H     0.71975   0.36382   0.00710   0.00000  Uiso   1.00
H395   H     0.62210   0.17174   0.03601   0.00000  Uiso   1.00
H396   H     0.01228   0.37722   0.24938   0.00000  Uiso   1.00
H397   H     0.69524   0.46024   0.96258   0.00000  Uiso   1.00
H398   H     0.48933   0.05518   0.02354   0.00000  Uiso   1.00
H399   H     0.68532   0.39901   0.23204   0.00000  Uiso   1.00
H400   H     0.81671   0.43979   0.31761   0.00000  Uiso   1.00
H401   H     0.66636   0.47917   0.18160   0.00000  Uiso   1.00
H402   H     0.56872   0.28708   0.21051   0.00000  Uiso   1.00
H403   H     0.96895   0.47084   0.39101   0.00000  Uiso   1.00
H404   H     0.65191   0.55385   0.10421   0.00000  Uiso   1.00
H405   H     0.44600   0.14880   0.16517   0.00000  Uiso   1.00
O406   O     0.07797   0.44890   0.37349   0.00000  Uiso   1.00
O407   O     0.66201   0.55781   0.99722   0.00000  Uiso   1.00
O408   O     0.39187   0.02639   0.07721   0.00000  Uiso   1.00
N409   N     0.98405   0.39364   0.27097   0.00000  Uiso   1.00
N410   N     0.68764   0.47127   0.00284   0.00000  Uiso   1.00
N411   N     0.49512   0.09258   0.05982   0.00000  Uiso   1.00
N412   N     0.96073   0.44402   0.34718   0.00000  Uiso   1.00
N413   N     0.66433   0.52164   0.07904   0.00000  Uiso   1.00
N414   N     0.47181   0.14295   0.13603   0.00000  Uiso   1.00
C415   C     0.72098   0.83190   0.59823   0.00000  Uiso   1.00
C416   C     0.74594   0.82287   0.65931   0.00000  Uiso   1.00
C417   C     0.76797   0.77607   0.66671   0.00000  Uiso   1.00
C418   C     0.78877   0.77581   0.72637   0.00000  Uiso   1.00
C419   C     0.82767   0.75493   0.81354   0.00000  Uiso   1.00
C420   C     0.64227   0.82344   0.58560   0.00000  Uiso   1.00
C421   C     0.57714   0.77712   0.53102   0.00000  Uiso   1.00
C422   C     0.51068   0.77735   0.52864   0.00000  Uiso   1.00
C423   C     0.38865   0.75738   0.50136   0.00000  Uiso   1.00
C424   C     0.77321   0.90610   0.61336   0.00000  Uiso   1.00
C425   C     0.81815   0.92929   0.58211   0.00000  Uiso   1.00
C426   C     0.86191   0.99912   0.60309   0.00000  Uiso   1.00
C427   C     0.94317   0.10750   0.61891   0.00000  Uiso   1.00
C428   C     0.71877   0.91466   0.69103   0.00000  Uiso   1.00
C429   C     0.74474   0.86782   0.70972   0.00000  Uiso   1.00
C430   C     0.76552   0.86763   0.76938   0.00000  Uiso   1.00
C431   C     0.78757   0.82084   0.77687   0.00000  Uiso   1.00
C432   C     0.64107   0.86839   0.63601   0.00000  Uiso   1.00
C433   C     0.57469   0.86869   0.63370   0.00000  Uiso   1.00
C434   C     0.50947   0.82238   0.57914   0.00000  Uiso   1.00
C435   C     0.77201   0.95105   0.66377   0.00000  Uiso   1.00
C436   C     0.81570   0.02086   0.68479   0.00000  Uiso   1.00
C437   C     0.86070   0.04415   0.65359   0.00000  Uiso   1.00
H438   H     0.72191   0.79690   0.55898   0.00000  Uiso   1.00
H439   H     0.76888   0.74129   0.62769   0.00000  Uiso   1.00
H440   H     0.57809   0.74235   0.49202   0.00000  Uiso   1.00
H441   H     0.81906   0.89449   0.54311   0.00000  Uiso   1.00
H442   H     0.82040   0.69944   0.72608   0.00000  Uiso   1.00
H443   H     0.41811   0.70169   0.44002   0.00000  Uiso   1.00
H444   H     0.92624   0.02251   0.54774   0.00000  Uiso   1.00
H445   H     0.71783   0.94966   0.73027   0.00000  Uiso   1.00
H446   H     0.76458   0.90243   0.80838   0.00000  Uiso   1.00
H447   H     0.57378   0.90348   0.67271   0.00000  Uiso   1.00
H448   H     0.81475   0.05563   0.72380   0.00000  Uiso   1.00
H449   H     0.81690   0.83022   0.87274   0.00000  Uiso   1.00
H450   H     0.41461   0.83247   0.58667   0.00000  Uiso   1.00
H451   H     0.92275   0.15330   0.69440   0.00000  Uiso   1.00
O452   O     0.84945   0.73098   0.84770   0.00000  Uiso   1.00
O453   O     0.32166   0.73394   0.47239   0.00000  Uiso   1.00
O454   O     0.98833   0.15486   0.61372   0.00000  Uiso   1.00
N455   N     0.81317   0.73671   0.74988   0.00000  Uiso   1.00
N456   N     0.43705   0.73880   0.48243   0.00000  Uiso   1.00
N457   N     0.91210   0.03875   0.58313   0.00000  Uiso   1.00
N458   N     0.81129   0.80708   0.82880   0.00000  Uiso   1.00
N459   N     0.43517   0.80917   0.56135   0.00000  Uiso   1.00
N460   N     0.91022   0.10912   0.66205   0.00000  Uiso   1.00
C461   C     0.42404   0.51237   0.30918   0.00000  Uiso   1.00
C462   C     0.40545   0.43864   0.28328   0.00000  Uiso   1.00
C463   C     0.45729   0.41614   0.29418   0.00000  Uiso   1.00
C464   C     0.42900   0.34667   0.26624   0.00000  Uiso   1.00
C465   C     0.41191   0.23908   0.23170   0.00000  Uiso   1.00
C466   C     0.39446   0.52597   0.25192   0.00000  Uiso   1.00
C467   C     0.43707   0.57690   0.23645   0.00000  Uiso   1.00
C468   C     0.39951   0.58095   0.18212   0.00000  Uiso   1.00
C469   C     0.36535   0.60897   0.09891   0.00000  Uiso   1.00
C470   C     0.37460   0.51536   0.34506   0.00000  Uiso   1.00
C471   C     0.40049   0.55739   0.40790   0.00000  Uiso   1.00
C472   C     0.34621   0.55252   0.43198   0.00000  Uiso   1.00
C473   C     0.28120   0.56407   0.49339   0.00000  Uiso   1.00
C474   C     0.28160   0.42900   0.24019   0.00000  Uiso   1.00
C475   C     0.32808   0.39336   0.24581   0.00000  Uiso   1.00
C476   C     0.29970   0.32390   0.21785   0.00000  Uiso   1.00
C477   C     0.35149   0.30131   0.22870   0.00000  Uiso   1.00
C478   C     0.31710   0.48069   0.21445   0.00000  Uiso   1.00
C479   C     0.27947   0.48466   0.16013   0.00000  Uiso   1.00
C480   C     0.32200   0.53558   0.14458   0.00000  Uiso   1.00
C481   C     0.29723   0.47008   0.30759   0.00000  Uiso   1.00
C482   C     0.24289   0.46515   0.33157   0.00000  Uiso   1.00
C483   C     0.26870   0.50716   0.39444   0.00000  Uiso   1.00
H484   H     0.48428   0.54763   0.33835   0.00000  Uiso   1.00
H485   H     0.51717   0.45121   0.32318   0.00000  Uiso   1.00
H486   H     0.49694   0.61194   0.26546   0.00000  Uiso   1.00
H487   H     0.46037   0.59243   0.43688   0.00000  Uiso   1.00
H488   H     0.51952   0.32434   0.28981   0.00000  Uiso   1.00
H489   H     0.47685   0.66327   0.16812   0.00000  Uiso   1.00
H490   H     0.39974   0.62213   0.52960   0.00000  Uiso   1.00
H491   H     0.22136   0.39374   0.21102   0.00000  Uiso   1.00
H492   H     0.23982   0.28887   0.18886   0.00000  Uiso   1.00
H493   H     0.21960   0.44961   0.13114   0.00000  Uiso   1.00
H494   H     0.18303   0.43010   0.30256   0.00000  Uiso   1.00
H495   H     0.29441   0.19258   0.18078   0.00000  Uiso   1.00
H496   H     0.25175   0.53152   0.05910   0.00000  Uiso   1.00
H497   H     0.17464   0.49038   0.42058   0.00000  Uiso   1.00
O498   O     0.42386   0.19225   0.22299   0.00000  Uiso   1.00
O499   O     0.36789   0.63693   0.06336   0.00000  Uiso   1.00
O500   O     0.26671   0.58295   0.53761   0.00000  Uiso   1.00
N501   N     0.46400   0.30772   0.26720   0.00000  Uiso   1.00
N502   N     0.42412   0.62460   0.15343   0.00000  Uiso   1.00
N503   N     0.35202   0.58615   0.49138   0.00000  Uiso   1.00
N504   N     0.34288   0.23682   0.20854   0.00000  Uiso   1.00
N505   N     0.30299   0.55370   0.09477   0.00000  Uiso   1.00
N506   N     0.23090   0.51525   0.43271   0.00000  Uiso   1.00
C507   C     0.52132   0.70664   0.00355   0.00000  Uiso   1.00
C508   C     0.60129   0.71694   0.02677   0.00000  Uiso   1.00
C509   C     0.64044   0.71959   0.08445   0.00000  Uiso   1.00
C510   C     0.71304   0.72939   0.09686   0.00000  Uiso   1.00
C511   C     0.83234   0.74436   0.13959   0.00000  Uiso   1.00
C512   C     0.52772   0.76705   0.98804   0.00000  Uiso   1.00
C513   C     0.50501   0.81182   0.01314   0.00000  Uiso   1.00
C514   C     0.51567   0.86380   0.99293   0.00000  Uiso   1.00
C515   C     0.52069   0.95654   0.97549   0.00000  Uiso   1.00
C516   C     0.47559   0.64465   0.94064   0.00000  Uiso   1.00
C517   C     0.40902   0.58652   0.92589   0.00000  Uiso   1.00
C518   C     0.37578   0.53546   0.86577   0.00000  Uiso   1.00
C519   C     0.29986   0.43816   0.77475   0.00000  Uiso   1.00
C520   C     0.58063   0.71934   0.92301   0.00000  Uiso   1.00
C521   C     0.63351   0.72384   0.98303   0.00000  Uiso   1.00
C522   C     0.70607   0.73364   0.99535   0.00000  Uiso   1.00
C523   C     0.74532   0.73630   0.05304   0.00000  Uiso   1.00
C524   C     0.55994   0.77395   0.94430   0.00000  Uiso   1.00
C525   C     0.57063   0.82587   0.92404   0.00000  Uiso   1.00
C526   C     0.54794   0.87072   0.94911   0.00000  Uiso   1.00
C527   C     0.50780   0.65155   0.89690   0.00000  Uiso   1.00
C528   C     0.47465   0.60057   0.83679   0.00000  Uiso   1.00
C529   C     0.40805   0.54237   0.82195   0.00000  Uiso   1.00
H530   H     0.49624   0.70127   0.03760   0.00000  Uiso   1.00
H531   H     0.61550   0.71425   0.11829   0.00000  Uiso   1.00
H532   H     0.48007   0.80646   0.04698   0.00000  Uiso   1.00
H533   H     0.38411   0.58120   0.95975   0.00000  Uiso   1.00
H534   H     0.76193   0.73171   0.18847   0.00000  Uiso   1.00
H535   H     0.47636   0.92613   0.03810   0.00000  Uiso   1.00
H536   H     0.27401   0.45111   0.85415   0.00000  Uiso   1.00
H537   H     0.60571   0.72471   0.88896   0.00000  Uiso   1.00
H538   H     0.73098   0.73898   0.96149   0.00000  Uiso   1.00
H539   H     0.59556   0.83119   0.89019   0.00000  Uiso   1.00
H540   H     0.49960   0.60593   0.80296   0.00000  Uiso   1.00
H541   H     0.85567   0.75178   0.06121   0.00000  Uiso   1.00
H542   H     0.57009   0.94620   0.91084   0.00000  Uiso   1.00
H543   H     0.36774   0.47119   0.72689   0.00000  Uiso   1.00
O544   O     0.88924   0.75073   0.17524   0.00000  Uiso   1.00
O545   O     0.51457   0.00579   0.97796   0.00000  Uiso   1.00
O546   O     0.24909   0.38258   0.73663   0.00000  Uiso   1.00
N547   N     0.76680   0.73446   0.14856   0.00000  Uiso   1.00
N548   N     0.49982   0.91624   0.00798   0.00000  Uiso   1.00
N549   N     0.31062   0.47215   0.83600   0.00000  Uiso   1.00
N550   N     0.81723   0.74526   0.08008   0.00000  Uiso   1.00
N551   N     0.55025   0.92704   0.93950   0.00000  Uiso   1.00
N552   N     0.36106   0.48295   0.76752   0.00000  Uiso   1.00
