data_job_05642
_audit_creation_date              2018-12-19
_audit_creation_method            'Materials Studio'
_symmetry_space_group_name_H-M    'P1'
_symmetry_Int_Tables_number       1
_symmetry_cell_setting            triclinic
loop_
_symmetry_equiv_pos_as_xyz
  x,y,z
_cell_length_a                    13.3440
_cell_length_b                    10.7181
_cell_length_c                    22.5203
_cell_angle_alpha                 90.0000
_cell_angle_beta                  90.0000
_cell_angle_gamma                 90.0000
loop_
_atom_site_label
_atom_site_type_symbol
_atom_site_fract_x
_atom_site_fract_y
_atom_site_fract_z
_atom_site_U_iso_or_equiv
_atom_site_adp_type
_atom_site_occupancy
C1     C     0.57934   0.29085   0.20451   0.00000  Uiso   1.00
C2     C     0.50724   0.23390   0.15950   0.00000  Uiso   1.00
C3     C     0.52823   0.13448   0.12204   0.00000  Uiso   1.00
C4     C     0.45224   0.09621   0.08408   0.00000  Uiso   1.00
C5     C     0.35453   0.99883   0.01424   0.00000  Uiso   1.00
C6     C     0.58639   0.42910   0.18906   0.00000  Uiso   1.00
C7     C     0.67394   0.49379   0.17645   0.00000  Uiso   1.00
C8     C     0.66457   0.61984   0.16337   0.00000  Uiso   1.00
C9     C     0.68976   0.82552   0.13946   0.00000  Uiso   1.00
C10    C     0.52632   0.28416   0.26440   0.00000  Uiso   1.00
C11    C     0.56337   0.22701   0.31516   0.00000  Uiso   1.00
C12    C     0.50343   0.23106   0.36552   0.00000  Uiso   1.00
C13    C     0.43535   0.21170   0.45860   0.00000  Uiso   1.00
C14    C     0.40703   0.39970   0.20370   0.00000  Uiso   1.00
C15    C     0.41365   0.29303   0.15907   0.00000  Uiso   1.00
C16    C     0.33760   0.25490   0.12115   0.00000  Uiso   1.00
C17    C     0.35848   0.15543   0.08364   0.00000  Uiso   1.00
C18    C     0.49280   0.48822   0.18862   0.00000  Uiso   1.00
C19    C     0.48330   0.61421   0.17556   0.00000  Uiso   1.00
C20    C     0.57081   0.67907   0.16293   0.00000  Uiso   1.00
C21    C     0.43273   0.34327   0.26397   0.00000  Uiso   1.00
C22    C     0.37273   0.34743   0.31426   0.00000  Uiso   1.00
C23    C     0.40968   0.29029   0.36508   0.00000  Uiso   1.00
H24    H     0.65220   0.24483   0.20485   0.00000  Uiso   1.00
H25    H     0.60067   0.08876   0.12239   0.00000  Uiso   1.00
H26    H     0.74635   0.44801   0.17680   0.00000  Uiso   1.00
H27    H     0.63579   0.18127   0.31548   0.00000  Uiso   1.00
H28    H     0.50228   0.94182   0.03076   0.00000  Uiso   1.00
H29    H     0.80946   0.69934   0.14550   0.00000  Uiso   1.00
H30    H     0.57633   0.13686   0.43794   0.00000  Uiso   1.00
H31    H     0.33417   0.44573   0.20336   0.00000  Uiso   1.00
H32    H     0.26518   0.30067   0.12082   0.00000  Uiso   1.00
H33    H     0.41087   0.65993   0.17523   0.00000  Uiso   1.00
H34    H     0.30031   0.39318   0.31391   0.00000  Uiso   1.00
H35    H     0.22999   0.11382   0.02948   0.00000  Uiso   1.00
H36    H     0.53717   0.87134   0.14423   0.00000  Uiso   1.00
H37    H     0.30404   0.30886   0.43667   0.00000  Uiso   1.00
O38    O     0.32650   0.92880   0.97584   0.00000  Uiso   1.00
O39    O     0.72951   0.92263   0.12639   0.00000  Uiso   1.00
O40    O     0.42365   0.18467   0.51006   0.00000  Uiso   1.00
N41    N     0.44766   0.00219   0.04180   0.00000  Uiso   1.00
N42    N     0.73485   0.71042   0.14906   0.00000  Uiso   1.00
N43    N     0.51690   0.18458   0.42248   0.00000  Uiso   1.00
N44    N     0.30114   0.09474   0.04111   0.00000  Uiso   1.00
N45    N     0.58833   0.80297   0.14838   0.00000  Uiso   1.00
N46    N     0.37039   0.27713   0.42179   0.00000  Uiso   1.00
C47    C     0.42066   0.70915   0.70451   0.00000  Uiso   1.00
C48    C     0.49276   0.76610   0.65950   0.00000  Uiso   1.00
C49    C     0.47177   0.86552   0.62204   0.00000  Uiso   1.00
C50    C     0.54776   0.90379   0.58408   0.00000  Uiso   1.00
C51    C     0.64547   0.00117   0.51424   0.00000  Uiso   1.00
C52    C     0.41361   0.57090   0.68906   0.00000  Uiso   1.00
C53    C     0.32606   0.50621   0.67645   0.00000  Uiso   1.00
C54    C     0.33543   0.38016   0.66337   0.00000  Uiso   1.00
C55    C     0.31024   0.17448   0.63946   0.00000  Uiso   1.00
C56    C     0.47368   0.71584   0.76440   0.00000  Uiso   1.00
C57    C     0.43663   0.77299   0.81516   0.00000  Uiso   1.00
C58    C     0.49657   0.76894   0.86552   0.00000  Uiso   1.00
C59    C     0.56465   0.78830   0.95860   0.00000  Uiso   1.00
C60    C     0.59297   0.60030   0.70370   0.00000  Uiso   1.00
C61    C     0.58635   0.70697   0.65907   0.00000  Uiso   1.00
C62    C     0.66240   0.74510   0.62115   0.00000  Uiso   1.00
C63    C     0.64152   0.84457   0.58364   0.00000  Uiso   1.00
C64    C     0.50720   0.51178   0.68862   0.00000  Uiso   1.00
C65    C     0.51670   0.38579   0.67556   0.00000  Uiso   1.00
C66    C     0.42919   0.32093   0.66293   0.00000  Uiso   1.00
C67    C     0.56727   0.65673   0.76397   0.00000  Uiso   1.00
C68    C     0.62727   0.65257   0.81426   0.00000  Uiso   1.00
C69    C     0.59032   0.70971   0.86508   0.00000  Uiso   1.00
H70    H     0.34780   0.75517   0.70485   0.00000  Uiso   1.00
H71    H     0.39933   0.91124   0.62239   0.00000  Uiso   1.00
H72    H     0.25365   0.55199   0.67680   0.00000  Uiso   1.00
H73    H     0.36421   0.81873   0.81548   0.00000  Uiso   1.00
H74    H     0.49772   0.05818   0.53076   0.00000  Uiso   1.00
H75    H     0.19054   0.30066   0.64550   0.00000  Uiso   1.00
H76    H     0.42367   0.86314   0.93794   0.00000  Uiso   1.00
H77    H     0.66583   0.55427   0.70336   0.00000  Uiso   1.00
H78    H     0.73482   0.69933   0.62082   0.00000  Uiso   1.00
H79    H     0.58913   0.34007   0.67523   0.00000  Uiso   1.00
H80    H     0.69969   0.60682   0.81391   0.00000  Uiso   1.00
H81    H     0.77001   0.88618   0.52948   0.00000  Uiso   1.00
H82    H     0.46283   0.12866   0.64423   0.00000  Uiso   1.00
H83    H     0.69596   0.69114   0.93667   0.00000  Uiso   1.00
O84    O     0.67350   0.07120   0.47584   0.00000  Uiso   1.00
O85    O     0.27049   0.07737   0.62639   0.00000  Uiso   1.00
O86    O     0.57635   0.81533   0.01006   0.00000  Uiso   1.00
N87    N     0.55234   0.99781   0.54180   0.00000  Uiso   1.00
N88    N     0.26515   0.28958   0.64906   0.00000  Uiso   1.00
N89    N     0.48310   0.81542   0.92248   0.00000  Uiso   1.00
N90    N     0.69886   0.90526   0.54111   0.00000  Uiso   1.00
N91    N     0.41167   0.19703   0.64838   0.00000  Uiso   1.00
N92    N     0.62961   0.72287   0.92179   0.00000  Uiso   1.00
C93    C     0.07934   0.20915   0.20451   0.00000  Uiso   1.00
C94    C     0.00724   0.26610   0.15950   0.00000  Uiso   1.00
C95    C     0.02823   0.36552   0.12204   0.00000  Uiso   1.00
C96    C     0.95224   0.40379   0.08408   0.00000  Uiso   1.00
C97    C     0.85453   0.50117   0.01424   0.00000  Uiso   1.00
C98    C     0.08639   0.07090   0.18906   0.00000  Uiso   1.00
C99    C     0.17394   0.00621   0.17645   0.00000  Uiso   1.00
C100   C     0.16457   0.88016   0.16337   0.00000  Uiso   1.00
C101   C     0.18976   0.67448   0.13946   0.00000  Uiso   1.00
C102   C     0.02632   0.21584   0.26440   0.00000  Uiso   1.00
C103   C     0.06337   0.27299   0.31516   0.00000  Uiso   1.00
C104   C     0.00343   0.26894   0.36552   0.00000  Uiso   1.00
C105   C     0.93535   0.28830   0.45860   0.00000  Uiso   1.00
C106   C     0.90703   0.10030   0.20370   0.00000  Uiso   1.00
C107   C     0.91365   0.20697   0.15907   0.00000  Uiso   1.00
C108   C     0.83760   0.24510   0.12115   0.00000  Uiso   1.00
C109   C     0.85848   0.34457   0.08364   0.00000  Uiso   1.00
C110   C     0.99280   0.01178   0.18862   0.00000  Uiso   1.00
C111   C     0.98330   0.88579   0.17556   0.00000  Uiso   1.00
C112   C     0.07081   0.82093   0.16293   0.00000  Uiso   1.00
C113   C     0.93273   0.15673   0.26397   0.00000  Uiso   1.00
C114   C     0.87273   0.15257   0.31426   0.00000  Uiso   1.00
C115   C     0.90968   0.20971   0.36508   0.00000  Uiso   1.00
H116   H     0.15220   0.25517   0.20485   0.00000  Uiso   1.00
H117   H     0.10067   0.41124   0.12239   0.00000  Uiso   1.00
H118   H     0.24635   0.05199   0.17680   0.00000  Uiso   1.00
H119   H     0.13579   0.31873   0.31548   0.00000  Uiso   1.00
H120   H     0.00228   0.55818   0.03076   0.00000  Uiso   1.00
H121   H     0.30946   0.80066   0.14550   0.00000  Uiso   1.00
H122   H     0.07633   0.36314   0.43794   0.00000  Uiso   1.00
H123   H     0.83417   0.05427   0.20336   0.00000  Uiso   1.00
H124   H     0.76518   0.19933   0.12082   0.00000  Uiso   1.00
H125   H     0.91087   0.84007   0.17523   0.00000  Uiso   1.00
H126   H     0.80031   0.10682   0.31391   0.00000  Uiso   1.00
H127   H     0.72999   0.38618   0.02948   0.00000  Uiso   1.00
H128   H     0.03717   0.62866   0.14423   0.00000  Uiso   1.00
H129   H     0.80404   0.19114   0.43667   0.00000  Uiso   1.00
O130   O     0.82650   0.57120   0.97584   0.00000  Uiso   1.00
O131   O     0.22951   0.57737   0.12639   0.00000  Uiso   1.00
O132   O     0.92365   0.31533   0.51006   0.00000  Uiso   1.00
N133   N     0.94766   0.49781   0.04180   0.00000  Uiso   1.00
N134   N     0.23485   0.78958   0.14906   0.00000  Uiso   1.00
N135   N     0.01690   0.31542   0.42248   0.00000  Uiso   1.00
N136   N     0.80114   0.40526   0.04111   0.00000  Uiso   1.00
N137   N     0.08833   0.69703   0.14838   0.00000  Uiso   1.00
N138   N     0.87039   0.22287   0.42179   0.00000  Uiso   1.00
C139   C     0.92066   0.79085   0.70451   0.00000  Uiso   1.00
C140   C     0.99276   0.73390   0.65950   0.00000  Uiso   1.00
C141   C     0.97177   0.63448   0.62204   0.00000  Uiso   1.00
C142   C     0.04776   0.59621   0.58408   0.00000  Uiso   1.00
C143   C     0.14547   0.49883   0.51424   0.00000  Uiso   1.00
C144   C     0.91361   0.92910   0.68906   0.00000  Uiso   1.00
C145   C     0.82606   0.99379   0.67645   0.00000  Uiso   1.00
C146   C     0.83543   0.11984   0.66337   0.00000  Uiso   1.00
C147   C     0.81024   0.32552   0.63946   0.00000  Uiso   1.00
C148   C     0.97368   0.78416   0.76440   0.00000  Uiso   1.00
C149   C     0.93663   0.72701   0.81516   0.00000  Uiso   1.00
C150   C     0.99657   0.73106   0.86552   0.00000  Uiso   1.00
C151   C     0.06465   0.71170   0.95860   0.00000  Uiso   1.00
C152   C     0.09297   0.89970   0.70370   0.00000  Uiso   1.00
C153   C     0.08635   0.79303   0.65907   0.00000  Uiso   1.00
C154   C     0.16240   0.75490   0.62115   0.00000  Uiso   1.00
C155   C     0.14152   0.65543   0.58364   0.00000  Uiso   1.00
C156   C     0.00720   0.98822   0.68862   0.00000  Uiso   1.00
C157   C     0.01670   0.11421   0.67556   0.00000  Uiso   1.00
C158   C     0.92919   0.17907   0.66293   0.00000  Uiso   1.00
C159   C     0.06727   0.84327   0.76397   0.00000  Uiso   1.00
C160   C     0.12727   0.84743   0.81426   0.00000  Uiso   1.00
C161   C     0.09032   0.79029   0.86508   0.00000  Uiso   1.00
H162   H     0.84780   0.74483   0.70485   0.00000  Uiso   1.00
H163   H     0.89933   0.58876   0.62239   0.00000  Uiso   1.00
H164   H     0.75365   0.94801   0.67680   0.00000  Uiso   1.00
H165   H     0.86421   0.68127   0.81548   0.00000  Uiso   1.00
H166   H     0.99772   0.44182   0.53076   0.00000  Uiso   1.00
H167   H     0.69054   0.19934   0.64550   0.00000  Uiso   1.00
H168   H     0.92367   0.63686   0.93794   0.00000  Uiso   1.00
H169   H     0.16583   0.94573   0.70336   0.00000  Uiso   1.00
H170   H     0.23482   0.80067   0.62082   0.00000  Uiso   1.00
H171   H     0.08913   0.15993   0.67523   0.00000  Uiso   1.00
H172   H     0.19969   0.89318   0.81391   0.00000  Uiso   1.00
H173   H     0.27001   0.61382   0.52948   0.00000  Uiso   1.00
H174   H     0.96283   0.37134   0.64423   0.00000  Uiso   1.00
H175   H     0.19596   0.80886   0.93667   0.00000  Uiso   1.00
O176   O     0.17350   0.42880   0.47584   0.00000  Uiso   1.00
O177   O     0.77049   0.42263   0.62639   0.00000  Uiso   1.00
O178   O     0.07635   0.68467   0.01006   0.00000  Uiso   1.00
N179   N     0.05234   0.50219   0.54180   0.00000  Uiso   1.00
N180   N     0.76515   0.21042   0.64906   0.00000  Uiso   1.00
N181   N     0.98310   0.68458   0.92248   0.00000  Uiso   1.00
N182   N     0.19886   0.59474   0.54111   0.00000  Uiso   1.00
N183   N     0.91167   0.30297   0.64838   0.00000  Uiso   1.00
N184   N     0.12961   0.77713   0.92179   0.00000  Uiso   1.00
