data_job_01541
_audit_creation_date              2018-12-19
_audit_creation_method            'Materials Studio'
_symmetry_space_group_name_H-M    'P1'
_symmetry_Int_Tables_number       1
_symmetry_cell_setting            triclinic
loop_
_symmetry_equiv_pos_as_xyz
  x,y,z
_cell_length_a                    20.8771
_cell_length_b                    20.8771
_cell_length_c                    11.6957
_cell_angle_alpha                 90.0000
_cell_angle_beta                  90.0000
_cell_angle_gamma                 90.0000
loop_
_atom_site_label
_atom_site_type_symbol
_atom_site_fract_x
_atom_site_fract_y
_atom_site_fract_z
_atom_site_U_iso_or_equiv
_atom_site_adp_type
_atom_site_occupancy
C1     C     0.77226   0.81156   0.35710   0.00000  Uiso   1.00
C2     C     0.82084   0.81306   0.45443   0.00000  Uiso   1.00
C3     C     0.84927   0.75997   0.50464   0.00000  Uiso   1.00
C4     C     0.89249   0.77141   0.59253   0.00000  Uiso   1.00
C5     C     0.96573   0.76426   0.73818   0.00000  Uiso   1.00
C6     C     0.71346   0.84740   0.40061   0.00000  Uiso   1.00
C7     C     0.65161   0.82317   0.40555   0.00000  Uiso   1.00
C8     C     0.60444   0.86353   0.44812   0.00000  Uiso   1.00
C9     C     0.51097   0.90970   0.51013   0.00000  Uiso   1.00
C10    C     0.80041   0.85286   0.26204   0.00000  Uiso   1.00
C11    C     0.81166   0.83325   0.15045   0.00000  Uiso   1.00
C12    C     0.83768   0.87822   0.07634   0.00000  Uiso   1.00
C13    C     0.87922   0.93288   0.92319   0.00000  Uiso   1.00
C14    C     0.79844   0.92631   0.42389   0.00000  Uiso   1.00
C15    C     0.83505   0.87539   0.49071   0.00000  Uiso   1.00
C16    C     0.87824   0.88692   0.57853   0.00000  Uiso   1.00
C17    C     0.90674   0.83385   0.62886   0.00000  Uiso   1.00
C18    C     0.72768   0.90972   0.43689   0.00000  Uiso   1.00
C19    C     0.68058   0.95012   0.47944   0.00000  Uiso   1.00
C20    C     0.61868   0.92597   0.48446   0.00000  Uiso   1.00
C21    C     0.81463   0.91519   0.29831   0.00000  Uiso   1.00
C22    C     0.84063   0.96020   0.22435   0.00000  Uiso   1.00
C23    C     0.85192   0.94066   0.11268   0.00000  Uiso   1.00
H24    H     0.76118   0.76304   0.32886   0.00000  Uiso   1.00
H25    H     0.83825   0.71174   0.47655   0.00000  Uiso   1.00
H26    H     0.64062   0.77494   0.37746   0.00000  Uiso   1.00
H27    H     0.80065   0.78502   0.12241   0.00000  Uiso   1.00
H28    H     0.92995   0.68235   0.65632   0.00000  Uiso   1.00
H29    H     0.51324   0.81562   0.44735   0.00000  Uiso   1.00
H30    H     0.85068   0.83686   0.90952   0.00000  Uiso   1.00
H31    H     0.80951   0.97483   0.45213   0.00000  Uiso   1.00
H32    H     0.88924   0.93515   0.60659   0.00000  Uiso   1.00
H33    H     0.69160   0.99835   0.50750   0.00000  Uiso   1.00
H34    H     0.85163   0.00843   0.25245   0.00000  Uiso   1.00
H35    H     0.97133   0.86368   0.76187   0.00000  Uiso   1.00
H36    H     0.55461   0.99695   0.55290   0.00000  Uiso   1.00
H37    H     0.89206   0.01819   0.01507   0.00000  Uiso   1.00
O38    O     0.00220   0.74309   0.80850   0.00000  Uiso   1.00
O39    O     0.45548   0.91794   0.53432   0.00000  Uiso   1.00
O40    O     0.89821   0.94581   0.82871   0.00000  Uiso   1.00
N41    N     0.92876   0.73047   0.65995   0.00000  Uiso   1.00
N42    N     0.53916   0.85507   0.46459   0.00000  Uiso   1.00
N43    N     0.85462   0.87493   0.96176   0.00000  Uiso   1.00
N44    N     0.95102   0.82804   0.71674   0.00000  Uiso   1.00
N45    N     0.56142   0.95264   0.52139   0.00000  Uiso   1.00
N46    N     0.87689   0.97250   0.01855   0.00000  Uiso   1.00
C47    C     0.27226   0.31156   0.85710   0.00000  Uiso   1.00
C48    C     0.32084   0.31306   0.95443   0.00000  Uiso   1.00
C49    C     0.34927   0.25997   0.00464   0.00000  Uiso   1.00
C50    C     0.39249   0.27141   0.09253   0.00000  Uiso   1.00
C51    C     0.46573   0.26426   0.23818   0.00000  Uiso   1.00
C52    C     0.21346   0.34740   0.90061   0.00000  Uiso   1.00
C53    C     0.15161   0.32317   0.90555   0.00000  Uiso   1.00
C54    C     0.10444   0.36353   0.94812   0.00000  Uiso   1.00
C55    C     0.01097   0.40970   0.01013   0.00000  Uiso   1.00
C56    C     0.30041   0.35286   0.76204   0.00000  Uiso   1.00
C57    C     0.31166   0.33325   0.65045   0.00000  Uiso   1.00
C58    C     0.33768   0.37822   0.57634   0.00000  Uiso   1.00
C59    C     0.37922   0.43288   0.42319   0.00000  Uiso   1.00
C60    C     0.29844   0.42631   0.92389   0.00000  Uiso   1.00
C61    C     0.33505   0.37539   0.99071   0.00000  Uiso   1.00
C62    C     0.37824   0.38692   0.07853   0.00000  Uiso   1.00
C63    C     0.40674   0.33385   0.12886   0.00000  Uiso   1.00
C64    C     0.22768   0.40972   0.93689   0.00000  Uiso   1.00
C65    C     0.18058   0.45012   0.97944   0.00000  Uiso   1.00
C66    C     0.11868   0.42597   0.98446   0.00000  Uiso   1.00
C67    C     0.31463   0.41519   0.79831   0.00000  Uiso   1.00
C68    C     0.34063   0.46020   0.72435   0.00000  Uiso   1.00
C69    C     0.35192   0.44066   0.61268   0.00000  Uiso   1.00
H70    H     0.26118   0.26304   0.82886   0.00000  Uiso   1.00
H71    H     0.33825   0.21174   0.97655   0.00000  Uiso   1.00
H72    H     0.14062   0.27494   0.87746   0.00000  Uiso   1.00
H73    H     0.30065   0.28502   0.62241   0.00000  Uiso   1.00
H74    H     0.42995   0.18235   0.15632   0.00000  Uiso   1.00
H75    H     0.01324   0.31562   0.94735   0.00000  Uiso   1.00
H76    H     0.35068   0.33686   0.40952   0.00000  Uiso   1.00
H77    H     0.30951   0.47483   0.95213   0.00000  Uiso   1.00
H78    H     0.38924   0.43515   0.10659   0.00000  Uiso   1.00
H79    H     0.19160   0.49835   0.00750   0.00000  Uiso   1.00
H80    H     0.35163   0.50843   0.75245   0.00000  Uiso   1.00
H81    H     0.47133   0.36368   0.26187   0.00000  Uiso   1.00
H82    H     0.05461   0.49695   0.05290   0.00000  Uiso   1.00
H83    H     0.39206   0.51819   0.51507   0.00000  Uiso   1.00
O84    O     0.50220   0.24309   0.30850   0.00000  Uiso   1.00
O85    O     0.95548   0.41794   0.03432   0.00000  Uiso   1.00
O86    O     0.39821   0.44581   0.32871   0.00000  Uiso   1.00
N87    N     0.42876   0.23047   0.15995   0.00000  Uiso   1.00
N88    N     0.03916   0.35507   0.96459   0.00000  Uiso   1.00
N89    N     0.35462   0.37493   0.46176   0.00000  Uiso   1.00
N90    N     0.45102   0.32804   0.21674   0.00000  Uiso   1.00
N91    N     0.06142   0.45264   0.02139   0.00000  Uiso   1.00
N92    N     0.37689   0.47250   0.51855   0.00000  Uiso   1.00
C93    C     0.22774   0.18844   0.35710   0.00000  Uiso   1.00
C94    C     0.17916   0.18694   0.45443   0.00000  Uiso   1.00
C95    C     0.15073   0.24003   0.50464   0.00000  Uiso   1.00
C96    C     0.10751   0.22859   0.59253   0.00000  Uiso   1.00
C97    C     0.03427   0.23574   0.73818   0.00000  Uiso   1.00
C98    C     0.28654   0.15260   0.40061   0.00000  Uiso   1.00
C99    C     0.34839   0.17683   0.40555   0.00000  Uiso   1.00
C100   C     0.39556   0.13647   0.44812   0.00000  Uiso   1.00
C101   C     0.48903   0.09030   0.51013   0.00000  Uiso   1.00
C102   C     0.19959   0.14714   0.26204   0.00000  Uiso   1.00
C103   C     0.18834   0.16675   0.15045   0.00000  Uiso   1.00
C104   C     0.16232   0.12178   0.07634   0.00000  Uiso   1.00
C105   C     0.12078   0.06712   0.92319   0.00000  Uiso   1.00
C106   C     0.20156   0.07369   0.42389   0.00000  Uiso   1.00
C107   C     0.16495   0.12461   0.49071   0.00000  Uiso   1.00
C108   C     0.12176   0.11308   0.57853   0.00000  Uiso   1.00
C109   C     0.09326   0.16615   0.62886   0.00000  Uiso   1.00
C110   C     0.27232   0.09028   0.43689   0.00000  Uiso   1.00
C111   C     0.31942   0.04988   0.47944   0.00000  Uiso   1.00
C112   C     0.38132   0.07403   0.48446   0.00000  Uiso   1.00
C113   C     0.18537   0.08481   0.29831   0.00000  Uiso   1.00
C114   C     0.15937   0.03980   0.22435   0.00000  Uiso   1.00
C115   C     0.14808   0.05934   0.11268   0.00000  Uiso   1.00
H116   H     0.23882   0.23696   0.32886   0.00000  Uiso   1.00
H117   H     0.16175   0.28826   0.47655   0.00000  Uiso   1.00
H118   H     0.35938   0.22506   0.37746   0.00000  Uiso   1.00
H119   H     0.19935   0.21498   0.12241   0.00000  Uiso   1.00
H120   H     0.07005   0.31765   0.65632   0.00000  Uiso   1.00
H121   H     0.48676   0.18438   0.44735   0.00000  Uiso   1.00
H122   H     0.14932   0.16314   0.90952   0.00000  Uiso   1.00
H123   H     0.19049   0.02517   0.45213   0.00000  Uiso   1.00
H124   H     0.11076   0.06485   0.60659   0.00000  Uiso   1.00
H125   H     0.30840   0.00165   0.50750   0.00000  Uiso   1.00
H126   H     0.14837   0.99157   0.25245   0.00000  Uiso   1.00
H127   H     0.02867   0.13632   0.76187   0.00000  Uiso   1.00
H128   H     0.44539   0.00305   0.55290   0.00000  Uiso   1.00
H129   H     0.10794   0.98181   0.01507   0.00000  Uiso   1.00
O130   O     0.99780   0.25691   0.80850   0.00000  Uiso   1.00
O131   O     0.54452   0.08206   0.53432   0.00000  Uiso   1.00
O132   O     0.10179   0.05419   0.82871   0.00000  Uiso   1.00
N133   N     0.07124   0.26953   0.65995   0.00000  Uiso   1.00
N134   N     0.46084   0.14493   0.46459   0.00000  Uiso   1.00
N135   N     0.14538   0.12507   0.96176   0.00000  Uiso   1.00
N136   N     0.04898   0.17196   0.71674   0.00000  Uiso   1.00
N137   N     0.43858   0.04736   0.52139   0.00000  Uiso   1.00
N138   N     0.12311   0.02750   0.01855   0.00000  Uiso   1.00
C139   C     0.72774   0.68844   0.85710   0.00000  Uiso   1.00
C140   C     0.67916   0.68694   0.95443   0.00000  Uiso   1.00
C141   C     0.65073   0.74003   0.00464   0.00000  Uiso   1.00
C142   C     0.60751   0.72859   0.09253   0.00000  Uiso   1.00
C143   C     0.53427   0.73574   0.23818   0.00000  Uiso   1.00
C144   C     0.78654   0.65260   0.90061   0.00000  Uiso   1.00
C145   C     0.84839   0.67683   0.90555   0.00000  Uiso   1.00
C146   C     0.89556   0.63647   0.94812   0.00000  Uiso   1.00
C147   C     0.98903   0.59030   0.01013   0.00000  Uiso   1.00
C148   C     0.69959   0.64714   0.76204   0.00000  Uiso   1.00
C149   C     0.68834   0.66675   0.65045   0.00000  Uiso   1.00
C150   C     0.66232   0.62178   0.57634   0.00000  Uiso   1.00
C151   C     0.62078   0.56712   0.42319   0.00000  Uiso   1.00
C152   C     0.70156   0.57369   0.92389   0.00000  Uiso   1.00
C153   C     0.66495   0.62461   0.99071   0.00000  Uiso   1.00
C154   C     0.62176   0.61308   0.07853   0.00000  Uiso   1.00
C155   C     0.59326   0.66615   0.12886   0.00000  Uiso   1.00
C156   C     0.77232   0.59028   0.93689   0.00000  Uiso   1.00
C157   C     0.81942   0.54988   0.97944   0.00000  Uiso   1.00
C158   C     0.88132   0.57403   0.98446   0.00000  Uiso   1.00
C159   C     0.68537   0.58481   0.79831   0.00000  Uiso   1.00
C160   C     0.65937   0.53980   0.72435   0.00000  Uiso   1.00
C161   C     0.64808   0.55934   0.61268   0.00000  Uiso   1.00
H162   H     0.73882   0.73696   0.82886   0.00000  Uiso   1.00
H163   H     0.66175   0.78826   0.97655   0.00000  Uiso   1.00
H164   H     0.85938   0.72506   0.87746   0.00000  Uiso   1.00
H165   H     0.69935   0.71498   0.62241   0.00000  Uiso   1.00
H166   H     0.57005   0.81765   0.15632   0.00000  Uiso   1.00
H167   H     0.98676   0.68438   0.94735   0.00000  Uiso   1.00
H168   H     0.64932   0.66314   0.40952   0.00000  Uiso   1.00
H169   H     0.69049   0.52517   0.95213   0.00000  Uiso   1.00
H170   H     0.61076   0.56485   0.10659   0.00000  Uiso   1.00
H171   H     0.80840   0.50165   0.00750   0.00000  Uiso   1.00
H172   H     0.64837   0.49157   0.75245   0.00000  Uiso   1.00
H173   H     0.52867   0.63632   0.26187   0.00000  Uiso   1.00
H174   H     0.94539   0.50305   0.05290   0.00000  Uiso   1.00
H175   H     0.60794   0.48181   0.51507   0.00000  Uiso   1.00
O176   O     0.49780   0.75691   0.30850   0.00000  Uiso   1.00
O177   O     0.04452   0.58206   0.03432   0.00000  Uiso   1.00
O178   O     0.60179   0.55419   0.32871   0.00000  Uiso   1.00
N179   N     0.57124   0.76953   0.15995   0.00000  Uiso   1.00
N180   N     0.96084   0.64493   0.96459   0.00000  Uiso   1.00
N181   N     0.64538   0.62507   0.46176   0.00000  Uiso   1.00
N182   N     0.54898   0.67196   0.21674   0.00000  Uiso   1.00
N183   N     0.93858   0.54736   0.02139   0.00000  Uiso   1.00
N184   N     0.62311   0.52750   0.51855   0.00000  Uiso   1.00
C185   C     0.18844   0.77226   0.35710   0.00000  Uiso   1.00
C186   C     0.18694   0.82084   0.45443   0.00000  Uiso   1.00
C187   C     0.24003   0.84927   0.50464   0.00000  Uiso   1.00
C188   C     0.22859   0.89249   0.59253   0.00000  Uiso   1.00
C189   C     0.23574   0.96573   0.73818   0.00000  Uiso   1.00
C190   C     0.15260   0.71346   0.40061   0.00000  Uiso   1.00
C191   C     0.17683   0.65161   0.40555   0.00000  Uiso   1.00
C192   C     0.13647   0.60444   0.44812   0.00000  Uiso   1.00
C193   C     0.09030   0.51097   0.51013   0.00000  Uiso   1.00
C194   C     0.14714   0.80041   0.26204   0.00000  Uiso   1.00
C195   C     0.16675   0.81166   0.15045   0.00000  Uiso   1.00
C196   C     0.12178   0.83768   0.07634   0.00000  Uiso   1.00
C197   C     0.06712   0.87922   0.92319   0.00000  Uiso   1.00
C198   C     0.07369   0.79844   0.42389   0.00000  Uiso   1.00
C199   C     0.12461   0.83505   0.49071   0.00000  Uiso   1.00
C200   C     0.11308   0.87824   0.57853   0.00000  Uiso   1.00
C201   C     0.16615   0.90674   0.62886   0.00000  Uiso   1.00
C202   C     0.09028   0.72768   0.43689   0.00000  Uiso   1.00
C203   C     0.04988   0.68058   0.47944   0.00000  Uiso   1.00
C204   C     0.07403   0.61868   0.48446   0.00000  Uiso   1.00
C205   C     0.08481   0.81463   0.29831   0.00000  Uiso   1.00
C206   C     0.03980   0.84063   0.22435   0.00000  Uiso   1.00
C207   C     0.05934   0.85192   0.11268   0.00000  Uiso   1.00
H208   H     0.23696   0.76118   0.32886   0.00000  Uiso   1.00
H209   H     0.28826   0.83825   0.47655   0.00000  Uiso   1.00
H210   H     0.22506   0.64062   0.37746   0.00000  Uiso   1.00
H211   H     0.21498   0.80065   0.12241   0.00000  Uiso   1.00
H212   H     0.31765   0.92995   0.65632   0.00000  Uiso   1.00
H213   H     0.18438   0.51324   0.44735   0.00000  Uiso   1.00
H214   H     0.16314   0.85068   0.90952   0.00000  Uiso   1.00
H215   H     0.02517   0.80951   0.45213   0.00000  Uiso   1.00
H216   H     0.06485   0.88924   0.60659   0.00000  Uiso   1.00
H217   H     0.00165   0.69160   0.50750   0.00000  Uiso   1.00
H218   H     0.99157   0.85163   0.25245   0.00000  Uiso   1.00
H219   H     0.13632   0.97133   0.76187   0.00000  Uiso   1.00
H220   H     0.00305   0.55461   0.55290   0.00000  Uiso   1.00
H221   H     0.98181   0.89206   0.01507   0.00000  Uiso   1.00
O222   O     0.25691   0.00220   0.80850   0.00000  Uiso   1.00
O223   O     0.08206   0.45548   0.53432   0.00000  Uiso   1.00
O224   O     0.05419   0.89821   0.82871   0.00000  Uiso   1.00
N225   N     0.26953   0.92876   0.65995   0.00000  Uiso   1.00
N226   N     0.14493   0.53916   0.46459   0.00000  Uiso   1.00
N227   N     0.12507   0.85462   0.96176   0.00000  Uiso   1.00
N228   N     0.17196   0.95102   0.71674   0.00000  Uiso   1.00
N229   N     0.04736   0.56142   0.52139   0.00000  Uiso   1.00
N230   N     0.02750   0.87689   0.01855   0.00000  Uiso   1.00
C231   C     0.68844   0.27226   0.85710   0.00000  Uiso   1.00
C232   C     0.68694   0.32084   0.95443   0.00000  Uiso   1.00
C233   C     0.74003   0.34927   0.00464   0.00000  Uiso   1.00
C234   C     0.72859   0.39249   0.09253   0.00000  Uiso   1.00
C235   C     0.73574   0.46573   0.23818   0.00000  Uiso   1.00
C236   C     0.65260   0.21346   0.90061   0.00000  Uiso   1.00
C237   C     0.67683   0.15161   0.90555   0.00000  Uiso   1.00
C238   C     0.63647   0.10444   0.94812   0.00000  Uiso   1.00
C239   C     0.59030   0.01097   0.01013   0.00000  Uiso   1.00
C240   C     0.64714   0.30041   0.76204   0.00000  Uiso   1.00
C241   C     0.66675   0.31166   0.65045   0.00000  Uiso   1.00
C242   C     0.62178   0.33768   0.57634   0.00000  Uiso   1.00
C243   C     0.56712   0.37922   0.42319   0.00000  Uiso   1.00
C244   C     0.57369   0.29844   0.92389   0.00000  Uiso   1.00
C245   C     0.62461   0.33505   0.99071   0.00000  Uiso   1.00
C246   C     0.61308   0.37824   0.07853   0.00000  Uiso   1.00
C247   C     0.66615   0.40674   0.12886   0.00000  Uiso   1.00
C248   C     0.59028   0.22768   0.93689   0.00000  Uiso   1.00
C249   C     0.54988   0.18058   0.97944   0.00000  Uiso   1.00
C250   C     0.57403   0.11868   0.98446   0.00000  Uiso   1.00
C251   C     0.58481   0.31463   0.79831   0.00000  Uiso   1.00
C252   C     0.53980   0.34063   0.72435   0.00000  Uiso   1.00
C253   C     0.55934   0.35192   0.61268   0.00000  Uiso   1.00
H254   H     0.73696   0.26118   0.82886   0.00000  Uiso   1.00
H255   H     0.78826   0.33825   0.97655   0.00000  Uiso   1.00
H256   H     0.72506   0.14062   0.87746   0.00000  Uiso   1.00
H257   H     0.71498   0.30065   0.62241   0.00000  Uiso   1.00
H258   H     0.81765   0.42995   0.15632   0.00000  Uiso   1.00
H259   H     0.68438   0.01324   0.94735   0.00000  Uiso   1.00
H260   H     0.66314   0.35068   0.40952   0.00000  Uiso   1.00
H261   H     0.52517   0.30951   0.95213   0.00000  Uiso   1.00
H262   H     0.56485   0.38924   0.10659   0.00000  Uiso   1.00
H263   H     0.50165   0.19160   0.00750   0.00000  Uiso   1.00
H264   H     0.49157   0.35163   0.75245   0.00000  Uiso   1.00
H265   H     0.63632   0.47133   0.26187   0.00000  Uiso   1.00
H266   H     0.50305   0.05461   0.05290   0.00000  Uiso   1.00
H267   H     0.48181   0.39206   0.51507   0.00000  Uiso   1.00
O268   O     0.75691   0.50220   0.30850   0.00000  Uiso   1.00
O269   O     0.58206   0.95548   0.03432   0.00000  Uiso   1.00
O270   O     0.55419   0.39821   0.32871   0.00000  Uiso   1.00
N271   N     0.76953   0.42876   0.15995   0.00000  Uiso   1.00
N272   N     0.64493   0.03916   0.96459   0.00000  Uiso   1.00
N273   N     0.62507   0.35462   0.46176   0.00000  Uiso   1.00
N274   N     0.67196   0.45102   0.21674   0.00000  Uiso   1.00
N275   N     0.54736   0.06142   0.02139   0.00000  Uiso   1.00
N276   N     0.52750   0.37689   0.51855   0.00000  Uiso   1.00
C277   C     0.81156   0.22774   0.35710   0.00000  Uiso   1.00
C278   C     0.81306   0.17916   0.45443   0.00000  Uiso   1.00
C279   C     0.75997   0.15073   0.50464   0.00000  Uiso   1.00
C280   C     0.77141   0.10751   0.59253   0.00000  Uiso   1.00
C281   C     0.76426   0.03427   0.73818   0.00000  Uiso   1.00
C282   C     0.84740   0.28654   0.40061   0.00000  Uiso   1.00
C283   C     0.82317   0.34839   0.40555   0.00000  Uiso   1.00
C284   C     0.86353   0.39556   0.44812   0.00000  Uiso   1.00
C285   C     0.90970   0.48903   0.51013   0.00000  Uiso   1.00
C286   C     0.85286   0.19959   0.26204   0.00000  Uiso   1.00
C287   C     0.83325   0.18834   0.15045   0.00000  Uiso   1.00
C288   C     0.87822   0.16232   0.07634   0.00000  Uiso   1.00
C289   C     0.93288   0.12078   0.92319   0.00000  Uiso   1.00
C290   C     0.92631   0.20156   0.42389   0.00000  Uiso   1.00
C291   C     0.87539   0.16495   0.49071   0.00000  Uiso   1.00
C292   C     0.88692   0.12176   0.57853   0.00000  Uiso   1.00
C293   C     0.83385   0.09326   0.62886   0.00000  Uiso   1.00
C294   C     0.90972   0.27232   0.43689   0.00000  Uiso   1.00
C295   C     0.95012   0.31942   0.47944   0.00000  Uiso   1.00
C296   C     0.92597   0.38132   0.48446   0.00000  Uiso   1.00
C297   C     0.91519   0.18537   0.29831   0.00000  Uiso   1.00
C298   C     0.96020   0.15937   0.22435   0.00000  Uiso   1.00
C299   C     0.94066   0.14808   0.11268   0.00000  Uiso   1.00
H300   H     0.76304   0.23882   0.32886   0.00000  Uiso   1.00
H301   H     0.71174   0.16175   0.47655   0.00000  Uiso   1.00
H302   H     0.77494   0.35938   0.37746   0.00000  Uiso   1.00
H303   H     0.78502   0.19935   0.12241   0.00000  Uiso   1.00
H304   H     0.68235   0.07005   0.65632   0.00000  Uiso   1.00
H305   H     0.81562   0.48676   0.44735   0.00000  Uiso   1.00
H306   H     0.83686   0.14932   0.90952   0.00000  Uiso   1.00
H307   H     0.97483   0.19049   0.45213   0.00000  Uiso   1.00
H308   H     0.93515   0.11076   0.60659   0.00000  Uiso   1.00
H309   H     0.99835   0.30840   0.50750   0.00000  Uiso   1.00
H310   H     0.00843   0.14837   0.25245   0.00000  Uiso   1.00
H311   H     0.86368   0.02867   0.76187   0.00000  Uiso   1.00
H312   H     0.99695   0.44539   0.55290   0.00000  Uiso   1.00
H313   H     0.01819   0.10794   0.01507   0.00000  Uiso   1.00
O314   O     0.74309   0.99780   0.80850   0.00000  Uiso   1.00
O315   O     0.91794   0.54452   0.53432   0.00000  Uiso   1.00
O316   O     0.94581   0.10179   0.82871   0.00000  Uiso   1.00
N317   N     0.73047   0.07124   0.65995   0.00000  Uiso   1.00
N318   N     0.85507   0.46084   0.46459   0.00000  Uiso   1.00
N319   N     0.87493   0.14538   0.96176   0.00000  Uiso   1.00
N320   N     0.82804   0.04898   0.71674   0.00000  Uiso   1.00
N321   N     0.95264   0.43858   0.52139   0.00000  Uiso   1.00
N322   N     0.97250   0.12311   0.01855   0.00000  Uiso   1.00
C323   C     0.31156   0.72774   0.85710   0.00000  Uiso   1.00
C324   C     0.31306   0.67916   0.95443   0.00000  Uiso   1.00
C325   C     0.25997   0.65073   0.00464   0.00000  Uiso   1.00
C326   C     0.27141   0.60751   0.09253   0.00000  Uiso   1.00
C327   C     0.26426   0.53427   0.23818   0.00000  Uiso   1.00
C328   C     0.34740   0.78654   0.90061   0.00000  Uiso   1.00
C329   C     0.32317   0.84839   0.90555   0.00000  Uiso   1.00
C330   C     0.36353   0.89556   0.94812   0.00000  Uiso   1.00
C331   C     0.40970   0.98903   0.01013   0.00000  Uiso   1.00
C332   C     0.35286   0.69959   0.76204   0.00000  Uiso   1.00
C333   C     0.33325   0.68834   0.65045   0.00000  Uiso   1.00
C334   C     0.37822   0.66232   0.57634   0.00000  Uiso   1.00
C335   C     0.43288   0.62078   0.42319   0.00000  Uiso   1.00
C336   C     0.42631   0.70156   0.92389   0.00000  Uiso   1.00
C337   C     0.37539   0.66495   0.99071   0.00000  Uiso   1.00
C338   C     0.38692   0.62176   0.07853   0.00000  Uiso   1.00
C339   C     0.33385   0.59326   0.12886   0.00000  Uiso   1.00
C340   C     0.40972   0.77232   0.93689   0.00000  Uiso   1.00
C341   C     0.45012   0.81942   0.97944   0.00000  Uiso   1.00
C342   C     0.42597   0.88132   0.98446   0.00000  Uiso   1.00
C343   C     0.41519   0.68537   0.79831   0.00000  Uiso   1.00
C344   C     0.46020   0.65937   0.72435   0.00000  Uiso   1.00
C345   C     0.44066   0.64808   0.61268   0.00000  Uiso   1.00
H346   H     0.26304   0.73882   0.82886   0.00000  Uiso   1.00
H347   H     0.21174   0.66175   0.97655   0.00000  Uiso   1.00
H348   H     0.27494   0.85938   0.87746   0.00000  Uiso   1.00
H349   H     0.28502   0.69935   0.62241   0.00000  Uiso   1.00
H350   H     0.18235   0.57005   0.15632   0.00000  Uiso   1.00
H351   H     0.31562   0.98676   0.94735   0.00000  Uiso   1.00
H352   H     0.33686   0.64932   0.40952   0.00000  Uiso   1.00
H353   H     0.47483   0.69049   0.95213   0.00000  Uiso   1.00
H354   H     0.43515   0.61076   0.10659   0.00000  Uiso   1.00
H355   H     0.49835   0.80840   0.00750   0.00000  Uiso   1.00
H356   H     0.50843   0.64837   0.75245   0.00000  Uiso   1.00
H357   H     0.36368   0.52867   0.26187   0.00000  Uiso   1.00
H358   H     0.49695   0.94539   0.05290   0.00000  Uiso   1.00
H359   H     0.51819   0.60794   0.51507   0.00000  Uiso   1.00
O360   O     0.24309   0.49780   0.30850   0.00000  Uiso   1.00
O361   O     0.41794   0.04452   0.03432   0.00000  Uiso   1.00
O362   O     0.44581   0.60179   0.32871   0.00000  Uiso   1.00
N363   N     0.23047   0.57124   0.15995   0.00000  Uiso   1.00
N364   N     0.35507   0.96084   0.96459   0.00000  Uiso   1.00
N365   N     0.37493   0.64538   0.46176   0.00000  Uiso   1.00
N366   N     0.32804   0.54898   0.21674   0.00000  Uiso   1.00
N367   N     0.45264   0.93858   0.02139   0.00000  Uiso   1.00
N368   N     0.47250   0.62311   0.51855   0.00000  Uiso   1.00
