data_job_03680
_audit_creation_date              2018-12-19
_audit_creation_method            'Materials Studio'
_symmetry_space_group_name_H-M    'P1'
_symmetry_Int_Tables_number       1
_symmetry_cell_setting            triclinic
loop_
_symmetry_equiv_pos_as_xyz
  x,y,z
_cell_length_a                    15.7385
_cell_length_b                    10.1707
_cell_length_c                    23.9385
_cell_angle_alpha                 90.0000
_cell_angle_beta                  94.9498
_cell_angle_gamma                 90.0000
loop_
_atom_site_label
_atom_site_type_symbol
_atom_site_fract_x
_atom_site_fract_y
_atom_site_fract_z
_atom_site_U_iso_or_equiv
_atom_site_adp_type
_atom_site_occupancy
C1     C     0.22766   0.62056   0.70048   0.00000  Uiso   1.00
C2     C     0.29521   0.52404   0.68384   0.00000  Uiso   1.00
C3     C     0.28456   0.38925   0.67753   0.00000  Uiso   1.00
C4     C     0.35407   0.31804   0.66210   0.00000  Uiso   1.00
C5     C     0.44719   0.15879   0.63763   0.00000  Uiso   1.00
C6     C     0.26699   0.69181   0.75249   0.00000  Uiso   1.00
C7     C     0.23261   0.69809   0.80390   0.00000  Uiso   1.00
C8     C     0.27836   0.76812   0.84625   0.00000  Uiso   1.00
C9     C     0.32765   0.86943   0.92835   0.00000  Uiso   1.00
C10    C     0.21837   0.72343   0.65401   0.00000  Uiso   1.00
C11    C     0.14311   0.75633   0.62263   0.00000  Uiso   1.00
C12    C     0.14793   0.85302   0.58207   0.00000  Uiso   1.00
C13    C     0.12172   0.00343   0.51127   0.00000  Uiso   1.00
C14    C     0.37004   0.73379   0.68429   0.00000  Uiso   1.00
C15    C     0.37254   0.58554   0.67505   0.00000  Uiso   1.00
C16    C     0.44208   0.51452   0.65961   0.00000  Uiso   1.00
C17    C     0.43154   0.37964   0.65328   0.00000  Uiso   1.00
C18    C     0.34432   0.75330   0.74370   0.00000  Uiso   1.00
C19    C     0.39013   0.82336   0.78598   0.00000  Uiso   1.00
C20    C     0.35584   0.82974   0.83744   0.00000  Uiso   1.00
C21    C     0.29571   0.78493   0.64522   0.00000  Uiso   1.00
C22    C     0.30064   0.88160   0.60471   0.00000  Uiso   1.00
C23    C     0.22540   0.91463   0.57326   0.00000  Uiso   1.00
H24    H     0.16746   0.57269   0.70733   0.00000  Uiso   1.00
H25    H     0.22470   0.34169   0.68435   0.00000  Uiso   1.00
H26    H     0.17276   0.65050   0.81069   0.00000  Uiso   1.00
H27    H     0.08328   0.70872   0.62945   0.00000  Uiso   1.00
H28    H     0.32228   0.11270   0.65501   0.00000  Uiso   1.00
H29    H     0.21274   0.76387   0.92141   0.00000  Uiso   1.00
H30    H     0.02405   0.88666   0.53921   0.00000  Uiso   1.00
H31    H     0.43025   0.78167   0.67744   0.00000  Uiso   1.00
H32    H     0.50192   0.56213   0.65281   0.00000  Uiso   1.00
H33    H     0.44998   0.87094   0.77916   0.00000  Uiso   1.00
H34    H     0.36049   0.92917   0.59791   0.00000  Uiso   1.00
H35    H     0.54728   0.29162   0.62941   0.00000  Uiso   1.00
H36    H     0.43774   0.94280   0.89581   0.00000  Uiso   1.00
H37    H     0.24905   0.06558   0.51362   0.00000  Uiso   1.00
O38    O     0.47719   0.05397   0.62657   0.00000  Uiso   1.00
O39    O     0.33347   0.90830   0.97607   0.00000  Uiso   1.00
O40    O     0.08591   0.06938   0.47464   0.00000  Uiso   1.00
N41    N     0.36539   0.18494   0.65235   0.00000  Uiso   1.00
N42    N     0.26299   0.79373   0.90142   0.00000  Uiso   1.00
N43    N     0.08657   0.90855   0.54411   0.00000  Uiso   1.00
N44    N     0.48647   0.28122   0.63858   0.00000  Uiso   1.00
N45    N     0.38406   0.89001   0.88765   0.00000  Uiso   1.00
N46    N     0.20764   0.00483   0.53034   0.00000  Uiso   1.00
C47    C     0.77234   0.62056   0.79952   0.00000  Uiso   1.00
C48    C     0.70479   0.52404   0.81616   0.00000  Uiso   1.00
C49    C     0.71544   0.38925   0.82247   0.00000  Uiso   1.00
C50    C     0.64593   0.31804   0.83790   0.00000  Uiso   1.00
C51    C     0.55281   0.15879   0.86237   0.00000  Uiso   1.00
C52    C     0.73301   0.69181   0.74751   0.00000  Uiso   1.00
C53    C     0.76739   0.69809   0.69610   0.00000  Uiso   1.00
C54    C     0.72164   0.76812   0.65375   0.00000  Uiso   1.00
C55    C     0.67235   0.86943   0.57165   0.00000  Uiso   1.00
C56    C     0.78163   0.72343   0.84599   0.00000  Uiso   1.00
C57    C     0.85689   0.75633   0.87737   0.00000  Uiso   1.00
C58    C     0.85207   0.85302   0.91793   0.00000  Uiso   1.00
C59    C     0.87828   0.00343   0.98873   0.00000  Uiso   1.00
C60    C     0.62996   0.73379   0.81571   0.00000  Uiso   1.00
C61    C     0.62746   0.58554   0.82495   0.00000  Uiso   1.00
C62    C     0.55792   0.51452   0.84039   0.00000  Uiso   1.00
C63    C     0.56846   0.37964   0.84672   0.00000  Uiso   1.00
C64    C     0.65568   0.75330   0.75630   0.00000  Uiso   1.00
C65    C     0.60987   0.82336   0.71402   0.00000  Uiso   1.00
C66    C     0.64416   0.82974   0.66256   0.00000  Uiso   1.00
C67    C     0.70429   0.78493   0.85478   0.00000  Uiso   1.00
C68    C     0.69936   0.88160   0.89529   0.00000  Uiso   1.00
C69    C     0.77460   0.91463   0.92674   0.00000  Uiso   1.00
H70    H     0.83254   0.57269   0.79267   0.00000  Uiso   1.00
H71    H     0.77530   0.34169   0.81565   0.00000  Uiso   1.00
H72    H     0.82724   0.65050   0.68931   0.00000  Uiso   1.00
H73    H     0.91672   0.70872   0.87055   0.00000  Uiso   1.00
H74    H     0.67772   0.11270   0.84499   0.00000  Uiso   1.00
H75    H     0.78726   0.76387   0.57859   0.00000  Uiso   1.00
H76    H     0.97595   0.88666   0.96079   0.00000  Uiso   1.00
H77    H     0.56975   0.78167   0.82256   0.00000  Uiso   1.00
H78    H     0.49808   0.56213   0.84719   0.00000  Uiso   1.00
H79    H     0.55002   0.87094   0.72084   0.00000  Uiso   1.00
H80    H     0.63951   0.92917   0.90209   0.00000  Uiso   1.00
H81    H     0.45272   0.29162   0.87059   0.00000  Uiso   1.00
H82    H     0.56226   0.94280   0.60419   0.00000  Uiso   1.00
H83    H     0.75095   0.06558   0.98638   0.00000  Uiso   1.00
O84    O     0.52281   0.05397   0.87343   0.00000  Uiso   1.00
O85    O     0.66653   0.90830   0.52393   0.00000  Uiso   1.00
O86    O     0.91409   0.06938   0.02536   0.00000  Uiso   1.00
N87    N     0.63461   0.18494   0.84765   0.00000  Uiso   1.00
N88    N     0.73701   0.79373   0.59858   0.00000  Uiso   1.00
N89    N     0.91343   0.90855   0.95589   0.00000  Uiso   1.00
N90    N     0.51353   0.28122   0.86142   0.00000  Uiso   1.00
N91    N     0.61594   0.89001   0.61235   0.00000  Uiso   1.00
N92    N     0.79236   0.00483   0.96966   0.00000  Uiso   1.00
C93    C     0.77234   0.37944   0.29952   0.00000  Uiso   1.00
C94    C     0.70479   0.47596   0.31616   0.00000  Uiso   1.00
C95    C     0.71544   0.61075   0.32247   0.00000  Uiso   1.00
C96    C     0.64593   0.68196   0.33790   0.00000  Uiso   1.00
C97    C     0.55281   0.84121   0.36237   0.00000  Uiso   1.00
C98    C     0.73301   0.30819   0.24751   0.00000  Uiso   1.00
C99    C     0.76739   0.30191   0.19610   0.00000  Uiso   1.00
C100   C     0.72164   0.23188   0.15375   0.00000  Uiso   1.00
C101   C     0.67235   0.13057   0.07165   0.00000  Uiso   1.00
C102   C     0.78163   0.27657   0.34599   0.00000  Uiso   1.00
C103   C     0.85689   0.24367   0.37737   0.00000  Uiso   1.00
C104   C     0.85207   0.14698   0.41793   0.00000  Uiso   1.00
C105   C     0.87828   0.99657   0.48873   0.00000  Uiso   1.00
C106   C     0.62996   0.26621   0.31571   0.00000  Uiso   1.00
C107   C     0.62746   0.41446   0.32495   0.00000  Uiso   1.00
C108   C     0.55792   0.48548   0.34039   0.00000  Uiso   1.00
C109   C     0.56846   0.62036   0.34672   0.00000  Uiso   1.00
C110   C     0.65568   0.24670   0.25630   0.00000  Uiso   1.00
C111   C     0.60987   0.17664   0.21402   0.00000  Uiso   1.00
C112   C     0.64416   0.17026   0.16256   0.00000  Uiso   1.00
C113   C     0.70429   0.21507   0.35478   0.00000  Uiso   1.00
C114   C     0.69936   0.11840   0.39529   0.00000  Uiso   1.00
C115   C     0.77460   0.08537   0.42674   0.00000  Uiso   1.00
H116   H     0.83254   0.42731   0.29267   0.00000  Uiso   1.00
H117   H     0.77530   0.65831   0.31565   0.00000  Uiso   1.00
H118   H     0.82724   0.34950   0.18931   0.00000  Uiso   1.00
H119   H     0.91672   0.29128   0.37055   0.00000  Uiso   1.00
H120   H     0.67772   0.88730   0.34499   0.00000  Uiso   1.00
H121   H     0.78726   0.23613   0.07859   0.00000  Uiso   1.00
H122   H     0.97595   0.11334   0.46079   0.00000  Uiso   1.00
H123   H     0.56975   0.21833   0.32256   0.00000  Uiso   1.00
H124   H     0.49808   0.43787   0.34719   0.00000  Uiso   1.00
H125   H     0.55002   0.12906   0.22084   0.00000  Uiso   1.00
H126   H     0.63951   0.07083   0.40209   0.00000  Uiso   1.00
H127   H     0.45272   0.70838   0.37059   0.00000  Uiso   1.00
H128   H     0.56226   0.05720   0.10419   0.00000  Uiso   1.00
H129   H     0.75095   0.93442   0.48638   0.00000  Uiso   1.00
O130   O     0.52281   0.94603   0.37343   0.00000  Uiso   1.00
O131   O     0.66653   0.09170   0.02393   0.00000  Uiso   1.00
O132   O     0.91409   0.93062   0.52536   0.00000  Uiso   1.00
N133   N     0.63461   0.81506   0.34765   0.00000  Uiso   1.00
N134   N     0.73701   0.20627   0.09858   0.00000  Uiso   1.00
N135   N     0.91343   0.09145   0.45589   0.00000  Uiso   1.00
N136   N     0.51353   0.71878   0.36142   0.00000  Uiso   1.00
N137   N     0.61594   0.10999   0.11235   0.00000  Uiso   1.00
N138   N     0.79236   0.99517   0.46966   0.00000  Uiso   1.00
C139   C     0.22766   0.37944   0.20048   0.00000  Uiso   1.00
C140   C     0.29521   0.47596   0.18384   0.00000  Uiso   1.00
C141   C     0.28456   0.61075   0.17753   0.00000  Uiso   1.00
C142   C     0.35407   0.68196   0.16210   0.00000  Uiso   1.00
C143   C     0.44719   0.84121   0.13763   0.00000  Uiso   1.00
C144   C     0.26699   0.30819   0.25249   0.00000  Uiso   1.00
C145   C     0.23261   0.30191   0.30390   0.00000  Uiso   1.00
C146   C     0.27836   0.23188   0.34625   0.00000  Uiso   1.00
C147   C     0.32765   0.13057   0.42835   0.00000  Uiso   1.00
C148   C     0.21837   0.27657   0.15401   0.00000  Uiso   1.00
C149   C     0.14311   0.24367   0.12263   0.00000  Uiso   1.00
C150   C     0.14793   0.14698   0.08207   0.00000  Uiso   1.00
C151   C     0.12172   0.99657   0.01127   0.00000  Uiso   1.00
C152   C     0.37004   0.26621   0.18429   0.00000  Uiso   1.00
C153   C     0.37254   0.41446   0.17505   0.00000  Uiso   1.00
C154   C     0.44208   0.48548   0.15961   0.00000  Uiso   1.00
C155   C     0.43154   0.62036   0.15328   0.00000  Uiso   1.00
C156   C     0.34432   0.24670   0.24370   0.00000  Uiso   1.00
C157   C     0.39013   0.17664   0.28598   0.00000  Uiso   1.00
C158   C     0.35584   0.17026   0.33744   0.00000  Uiso   1.00
C159   C     0.29571   0.21507   0.14522   0.00000  Uiso   1.00
C160   C     0.30064   0.11840   0.10471   0.00000  Uiso   1.00
C161   C     0.22540   0.08537   0.07326   0.00000  Uiso   1.00
H162   H     0.16746   0.42731   0.20733   0.00000  Uiso   1.00
H163   H     0.22470   0.65831   0.18435   0.00000  Uiso   1.00
H164   H     0.17276   0.34950   0.31069   0.00000  Uiso   1.00
H165   H     0.08328   0.29128   0.12945   0.00000  Uiso   1.00
H166   H     0.32228   0.88730   0.15501   0.00000  Uiso   1.00
H167   H     0.21274   0.23613   0.42141   0.00000  Uiso   1.00
H168   H     0.02405   0.11334   0.03921   0.00000  Uiso   1.00
H169   H     0.43025   0.21833   0.17744   0.00000  Uiso   1.00
H170   H     0.50192   0.43787   0.15281   0.00000  Uiso   1.00
H171   H     0.44998   0.12906   0.27916   0.00000  Uiso   1.00
H172   H     0.36049   0.07083   0.09791   0.00000  Uiso   1.00
H173   H     0.54728   0.70838   0.12941   0.00000  Uiso   1.00
H174   H     0.43774   0.05720   0.39581   0.00000  Uiso   1.00
H175   H     0.24905   0.93442   0.01362   0.00000  Uiso   1.00
O176   O     0.47719   0.94603   0.12657   0.00000  Uiso   1.00
O177   O     0.33347   0.09170   0.47607   0.00000  Uiso   1.00
O178   O     0.08591   0.93062   0.97464   0.00000  Uiso   1.00
N179   N     0.36539   0.81506   0.15235   0.00000  Uiso   1.00
N180   N     0.26299   0.20627   0.40142   0.00000  Uiso   1.00
N181   N     0.08657   0.09145   0.04411   0.00000  Uiso   1.00
N182   N     0.48647   0.71878   0.13858   0.00000  Uiso   1.00
N183   N     0.38406   0.10999   0.38765   0.00000  Uiso   1.00
N184   N     0.20764   0.99517   0.03034   0.00000  Uiso   1.00
