data_job_02078
_audit_creation_date              2018-12-19
_audit_creation_method            'Materials Studio'
_symmetry_space_group_name_H-M    'P1'
_symmetry_Int_Tables_number       1
_symmetry_cell_setting            triclinic
loop_
_symmetry_equiv_pos_as_xyz
  x,y,z
_cell_length_a                    17.5806
_cell_length_b                    31.4223
_cell_length_c                    20.8093
_cell_angle_alpha                 90.0000
_cell_angle_beta                  147.7731
_cell_angle_gamma                 90.0000
loop_
_atom_site_label
_atom_site_type_symbol
_atom_site_fract_x
_atom_site_fract_y
_atom_site_fract_z
_atom_site_U_iso_or_equiv
_atom_site_adp_type
_atom_site_occupancy
C1     C     0.58304   0.18892   0.82095   0.00000  Uiso   1.00
C2     C     0.61555   0.15026   0.80236   0.00000  Uiso   1.00
C3     C     0.59920   0.14806   0.72448   0.00000  Uiso   1.00
C4     C     0.63473   0.10984   0.72048   0.00000  Uiso   1.00
C5     C     0.67752   0.05509   0.68073   0.00000  Uiso   1.00
C6     C     0.47636   0.17384   0.79511   0.00000  Uiso   1.00
C7     C     0.34299   0.19147   0.71115   0.00000  Uiso   1.00
C8     C     0.26136   0.17309   0.70107   0.00000  Uiso   1.00
C9     C     0.08809   0.15498   0.65012   0.00000  Uiso   1.00
C10    C     0.72037   0.19881   0.95540   0.00000  Uiso   1.00
C11    C     0.79216   0.23743   0.00622   0.00000  Uiso   1.00
C12    C     0.91595   0.24008   0.13110   0.00000  Uiso   1.00
C13    C     0.12156   0.26072   0.32903   0.00000  Uiso   1.00
C14    C     0.67522   0.12494   0.95235   0.00000  Uiso   1.00
C15    C     0.66561   0.11551   0.87374   0.00000  Uiso   1.00
C16    C     0.70118   0.07728   0.86987   0.00000  Uiso   1.00
C17    C     0.68489   0.07503   0.79199   0.00000  Uiso   1.00
C18    C     0.52642   0.13909   0.86649   0.00000  Uiso   1.00
C19    C     0.44497   0.12069   0.85654   0.00000  Uiso   1.00
C20    C     0.31151   0.13828   0.77258   0.00000  Uiso   1.00
C21    C     0.77044   0.16406   0.02678   0.00000  Uiso   1.00
C22    C     0.89414   0.16665   0.15161   0.00000  Uiso   1.00
C23    C     0.96611   0.20526   0.20261   0.00000  Uiso   1.00
H24    H     0.54405   0.21597   0.76537   0.00000  Uiso   1.00
H25    H     0.56044   0.17496   0.66925   0.00000  Uiso   1.00
H26    H     0.30428   0.21836   0.65594   0.00000  Uiso   1.00
H27    H     0.75338   0.26431   0.95096   0.00000  Uiso   1.00
H28    H     0.60063   0.11416   0.59412   0.00000  Uiso   1.00
H29    H     0.06052   0.20569   0.56607   0.00000  Uiso   1.00
H30    H     0.00754   0.30259   0.18819   0.00000  Uiso   1.00
H31    H     0.71419   0.09789   0.00793   0.00000  Uiso   1.00
H32    H     0.73992   0.05039   0.92511   0.00000  Uiso   1.00
H33    H     0.48375   0.09380   0.91179   0.00000  Uiso   1.00
H34    H     0.93285   0.13975   0.20682   0.00000  Uiso   1.00
H35    H     0.74630   0.01306   0.80178   0.00000  Uiso   1.00
H36    H     0.20619   0.10459   0.77374   0.00000  Uiso   1.00
H37    H     0.15321   0.20148   0.39585   0.00000  Uiso   1.00
O38    O     0.68727   0.03450   0.63906   0.00000  Uiso   1.00
O39    O     0.97868   0.15458   0.60229   0.00000  Uiso   1.00
O40    O     0.22115   0.28171   0.41849   0.00000  Uiso   1.00
N41    N     0.63141   0.09689   0.65438   0.00000  Uiso   1.00
N42    N     0.12643   0.18246   0.62814   0.00000  Uiso   1.00
N43    N     0.01179   0.27305   0.20977   0.00000  Uiso   1.00
N44    N     0.70979   0.04249   0.76612   0.00000  Uiso   1.00
N45    N     0.20481   0.12805   0.73988   0.00000  Uiso   1.00
N46    N     0.09018   0.21865   0.32151   0.00000  Uiso   1.00
C47    C     0.42705   0.31178   0.82017   0.00000  Uiso   1.00
C48    C     0.35773   0.35057   0.80165   0.00000  Uiso   1.00
C49    C     0.21797   0.35300   0.72344   0.00000  Uiso   1.00
C50    C     0.17487   0.39132   0.71958   0.00000  Uiso   1.00
C51    C     0.05299   0.44630   0.67986   0.00000  Uiso   1.00
C52    C     0.48279   0.32670   0.79494   0.00000  Uiso   1.00
C53    C     0.44819   0.30905   0.71110   0.00000  Uiso   1.00
C54    C     0.51038   0.32728   0.70160   0.00000  Uiso   1.00
C55    C     0.58274   0.34517   0.65153   0.00000  Uiso   1.00
C56    C     0.55850   0.30174   0.95451   0.00000  Uiso   1.00
C57    C     0.58760   0.26310   0.00484   0.00000  Uiso   1.00
C58    C     0.71356   0.26031   0.12970   0.00000  Uiso   1.00
C59    C     0.90347   0.23944   0.32739   0.00000  Uiso   1.00
C60    C     0.59904   0.37551   0.95241   0.00000  Uiso   1.00
C61    C     0.45114   0.38519   0.87348   0.00000  Uiso   1.00
C62    C     0.40824   0.42351   0.86974   0.00000  Uiso   1.00
C63    C     0.26845   0.42600   0.79154   0.00000  Uiso   1.00
C64    C     0.57620   0.36131   0.86677   0.00000  Uiso   1.00
C65    C     0.63846   0.37956   0.85740   0.00000  Uiso   1.00
C66    C     0.60397   0.36196   0.77356   0.00000  Uiso   1.00
C67    C     0.65192   0.33635   0.02634   0.00000  Uiso   1.00
C68    C     0.77786   0.33361   0.15115   0.00000  Uiso   1.00
C69    C     0.80714   0.29498   0.20166   0.00000  Uiso   1.00
H70    H     0.35433   0.28483   0.76424   0.00000  Uiso   1.00
H71    H     0.14571   0.32621   0.66785   0.00000  Uiso   1.00
H72    H     0.37591   0.28226   0.65553   0.00000  Uiso   1.00
H73    H     0.51528   0.23632   0.94923   0.00000  Uiso   1.00
H74    H     0.95559   0.38736   0.59264   0.00000  Uiso   1.00
H75    H     0.44102   0.29469   0.56668   0.00000  Uiso   1.00
H76    H     0.73492   0.19781   0.18600   0.00000  Uiso   1.00
H77    H     0.67176   0.40246   0.00833   0.00000  Uiso   1.00
H78    H     0.48056   0.45030   0.92534   0.00000  Uiso   1.00
H79    H     0.71075   0.40635   0.91301   0.00000  Uiso   1.00
H80    H     0.85013   0.36041   0.20671   0.00000  Uiso   1.00
H81    H     0.22736   0.48807   0.80161   0.00000  Uiso   1.00
H82    H     0.71279   0.39540   0.77566   0.00000  Uiso   1.00
H83    H     0.00669   0.29852   0.39498   0.00000  Uiso   1.00
O84    O     0.95995   0.46706   0.63810   0.00000  Uiso   1.00
O85    O     0.59683   0.34548   0.60406   0.00000  Uiso   1.00
O86    O     0.98242   0.21838   0.41659   0.00000  Uiso   1.00
N87    N     0.04580   0.40449   0.65323   0.00000  Uiso   1.00
N88    N     0.49963   0.31786   0.62894   0.00000  Uiso   1.00
N89    N     0.77442   0.22728   0.20796   0.00000  Uiso   1.00
N90    N     0.19204   0.45869   0.76568   0.00000  Uiso   1.00
N91    N     0.64587   0.37205   0.74139   0.00000  Uiso   1.00
N92    N     0.92066   0.28147   0.32041   0.00000  Uiso   1.00
C93    C     0.41696   0.68892   0.67905   0.00000  Uiso   1.00
C94    C     0.38445   0.65026   0.69764   0.00000  Uiso   1.00
C95    C     0.40080   0.64806   0.77552   0.00000  Uiso   1.00
C96    C     0.36527   0.60984   0.77952   0.00000  Uiso   1.00
C97    C     0.32248   0.55509   0.81927   0.00000  Uiso   1.00
C98    C     0.52364   0.67384   0.70489   0.00000  Uiso   1.00
C99    C     0.65701   0.69147   0.78885   0.00000  Uiso   1.00
C100   C     0.73864   0.67309   0.79893   0.00000  Uiso   1.00
C101   C     0.91191   0.65498   0.84988   0.00000  Uiso   1.00
C102   C     0.27963   0.69881   0.54460   0.00000  Uiso   1.00
C103   C     0.20784   0.73743   0.49378   0.00000  Uiso   1.00
C104   C     0.08405   0.74008   0.36890   0.00000  Uiso   1.00
C105   C     0.87844   0.76072   0.17097   0.00000  Uiso   1.00
C106   C     0.32478   0.62494   0.54765   0.00000  Uiso   1.00
C107   C     0.33439   0.61551   0.62626   0.00000  Uiso   1.00
C108   C     0.29882   0.57728   0.63013   0.00000  Uiso   1.00
C109   C     0.31511   0.57503   0.70801   0.00000  Uiso   1.00
C110   C     0.47358   0.63909   0.63351   0.00000  Uiso   1.00
C111   C     0.55503   0.62069   0.64346   0.00000  Uiso   1.00
C112   C     0.68849   0.63828   0.72742   0.00000  Uiso   1.00
C113   C     0.22956   0.66406   0.47322   0.00000  Uiso   1.00
C114   C     0.10586   0.66665   0.34839   0.00000  Uiso   1.00
C115   C     0.03389   0.70526   0.29739   0.00000  Uiso   1.00
H116   H     0.45595   0.71597   0.73463   0.00000  Uiso   1.00
H117   H     0.43956   0.67496   0.83075   0.00000  Uiso   1.00
H118   H     0.69572   0.71836   0.84406   0.00000  Uiso   1.00
H119   H     0.24662   0.76431   0.54904   0.00000  Uiso   1.00
H120   H     0.39937   0.61416   0.90588   0.00000  Uiso   1.00
H121   H     0.93948   0.70569   0.93393   0.00000  Uiso   1.00
H122   H     0.99246   0.80259   0.31181   0.00000  Uiso   1.00
H123   H     0.28581   0.59789   0.49207   0.00000  Uiso   1.00
H124   H     0.26008   0.55039   0.57489   0.00000  Uiso   1.00
H125   H     0.51625   0.59380   0.58821   0.00000  Uiso   1.00
H126   H     0.06715   0.63975   0.29318   0.00000  Uiso   1.00
H127   H     0.25370   0.51306   0.69822   0.00000  Uiso   1.00
H128   H     0.79381   0.60459   0.72626   0.00000  Uiso   1.00
H129   H     0.84679   0.70148   0.10415   0.00000  Uiso   1.00
O130   O     0.31273   0.53450   0.86094   0.00000  Uiso   1.00
O131   O     0.02132   0.65458   0.89771   0.00000  Uiso   1.00
O132   O     0.77885   0.78171   0.08151   0.00000  Uiso   1.00
N133   N     0.36859   0.59689   0.84562   0.00000  Uiso   1.00
N134   N     0.87357   0.68246   0.87186   0.00000  Uiso   1.00
N135   N     0.98821   0.77305   0.29023   0.00000  Uiso   1.00
N136   N     0.29021   0.54249   0.73388   0.00000  Uiso   1.00
N137   N     0.79519   0.62805   0.76012   0.00000  Uiso   1.00
N138   N     0.90982   0.71865   0.17849   0.00000  Uiso   1.00
C139   C     0.57295   0.81178   0.67983   0.00000  Uiso   1.00
C140   C     0.64227   0.85057   0.69835   0.00000  Uiso   1.00
C141   C     0.78203   0.85300   0.77656   0.00000  Uiso   1.00
C142   C     0.82513   0.89132   0.78042   0.00000  Uiso   1.00
C143   C     0.94701   0.94630   0.82014   0.00000  Uiso   1.00
C144   C     0.51721   0.82670   0.70506   0.00000  Uiso   1.00
C145   C     0.55181   0.80905   0.78890   0.00000  Uiso   1.00
C146   C     0.48962   0.82728   0.79840   0.00000  Uiso   1.00
C147   C     0.41726   0.84517   0.84847   0.00000  Uiso   1.00
C148   C     0.44150   0.80174   0.54549   0.00000  Uiso   1.00
C149   C     0.41240   0.76310   0.49516   0.00000  Uiso   1.00
C150   C     0.28644   0.76031   0.37030   0.00000  Uiso   1.00
C151   C     0.09653   0.73944   0.17261   0.00000  Uiso   1.00
C152   C     0.40096   0.87551   0.54759   0.00000  Uiso   1.00
C153   C     0.54886   0.88519   0.62652   0.00000  Uiso   1.00
C154   C     0.59176   0.92351   0.63026   0.00000  Uiso   1.00
C155   C     0.73155   0.92600   0.70846   0.00000  Uiso   1.00
C156   C     0.42380   0.86131   0.63323   0.00000  Uiso   1.00
C157   C     0.36154   0.87956   0.64260   0.00000  Uiso   1.00
C158   C     0.39603   0.86196   0.72644   0.00000  Uiso   1.00
C159   C     0.34808   0.83635   0.47366   0.00000  Uiso   1.00
C160   C     0.22214   0.83361   0.34885   0.00000  Uiso   1.00
C161   C     0.19286   0.79498   0.29834   0.00000  Uiso   1.00
H162   H     0.64567   0.78483   0.73576   0.00000  Uiso   1.00
H163   H     0.85429   0.82621   0.83215   0.00000  Uiso   1.00
H164   H     0.62409   0.78226   0.84447   0.00000  Uiso   1.00
H165   H     0.48472   0.73632   0.55077   0.00000  Uiso   1.00
H166   H     0.04441   0.88736   0.90736   0.00000  Uiso   1.00
H167   H     0.55898   0.79469   0.93332   0.00000  Uiso   1.00
H168   H     0.26508   0.69781   0.31400   0.00000  Uiso   1.00
H169   H     0.32824   0.90246   0.49167   0.00000  Uiso   1.00
H170   H     0.51944   0.95030   0.57466   0.00000  Uiso   1.00
H171   H     0.28925   0.90635   0.58699   0.00000  Uiso   1.00
H172   H     0.14987   0.86041   0.29329   0.00000  Uiso   1.00
H173   H     0.77264   0.98807   0.69839   0.00000  Uiso   1.00
H174   H     0.28721   0.89540   0.72434   0.00000  Uiso   1.00
H175   H     0.99331   0.79852   0.10502   0.00000  Uiso   1.00
O176   O     0.04005   0.96706   0.86190   0.00000  Uiso   1.00
O177   O     0.40317   0.84548   0.89594   0.00000  Uiso   1.00
O178   O     0.01758   0.71838   0.08341   0.00000  Uiso   1.00
N179   N     0.95420   0.90449   0.84677   0.00000  Uiso   1.00
N180   N     0.50037   0.81786   0.87106   0.00000  Uiso   1.00
N181   N     0.22558   0.72728   0.29204   0.00000  Uiso   1.00
N182   N     0.80796   0.95869   0.73432   0.00000  Uiso   1.00
N183   N     0.35413   0.87205   0.75861   0.00000  Uiso   1.00
N184   N     0.07934   0.78147   0.17959   0.00000  Uiso   1.00
C185   C     0.41696   0.81108   0.17905   0.00000  Uiso   1.00
C186   C     0.38445   0.84974   0.19764   0.00000  Uiso   1.00
C187   C     0.40080   0.85194   0.27552   0.00000  Uiso   1.00
C188   C     0.36527   0.89016   0.27952   0.00000  Uiso   1.00
C189   C     0.32248   0.94491   0.31927   0.00000  Uiso   1.00
C190   C     0.52364   0.82616   0.20489   0.00000  Uiso   1.00
C191   C     0.65701   0.80853   0.28885   0.00000  Uiso   1.00
C192   C     0.73864   0.82691   0.29893   0.00000  Uiso   1.00
C193   C     0.91191   0.84502   0.34988   0.00000  Uiso   1.00
C194   C     0.27963   0.80119   0.04460   0.00000  Uiso   1.00
C195   C     0.20784   0.76257   0.99378   0.00000  Uiso   1.00
C196   C     0.08405   0.75992   0.86890   0.00000  Uiso   1.00
C197   C     0.87844   0.73928   0.67097   0.00000  Uiso   1.00
C198   C     0.32478   0.87506   0.04765   0.00000  Uiso   1.00
C199   C     0.33439   0.88449   0.12626   0.00000  Uiso   1.00
C200   C     0.29882   0.92272   0.13013   0.00000  Uiso   1.00
C201   C     0.31511   0.92497   0.20801   0.00000  Uiso   1.00
C202   C     0.47358   0.86091   0.13351   0.00000  Uiso   1.00
C203   C     0.55503   0.87931   0.14346   0.00000  Uiso   1.00
C204   C     0.68849   0.86172   0.22742   0.00000  Uiso   1.00
C205   C     0.22956   0.83594   0.97322   0.00000  Uiso   1.00
C206   C     0.10586   0.83335   0.84839   0.00000  Uiso   1.00
C207   C     0.03389   0.79474   0.79739   0.00000  Uiso   1.00
H208   H     0.45595   0.78403   0.23463   0.00000  Uiso   1.00
H209   H     0.43956   0.82504   0.33075   0.00000  Uiso   1.00
H210   H     0.69572   0.78164   0.34406   0.00000  Uiso   1.00
H211   H     0.24662   0.73569   0.04904   0.00000  Uiso   1.00
H212   H     0.39937   0.88584   0.40588   0.00000  Uiso   1.00
H213   H     0.93948   0.79431   0.43393   0.00000  Uiso   1.00
H214   H     0.99246   0.69741   0.81181   0.00000  Uiso   1.00
H215   H     0.28581   0.90211   0.99207   0.00000  Uiso   1.00
H216   H     0.26008   0.94961   0.07489   0.00000  Uiso   1.00
H217   H     0.51625   0.90620   0.08821   0.00000  Uiso   1.00
H218   H     0.06715   0.86025   0.79318   0.00000  Uiso   1.00
H219   H     0.25370   0.98694   0.19822   0.00000  Uiso   1.00
H220   H     0.79381   0.89541   0.22626   0.00000  Uiso   1.00
H221   H     0.84679   0.79852   0.60415   0.00000  Uiso   1.00
O222   O     0.31273   0.96550   0.36094   0.00000  Uiso   1.00
O223   O     0.02132   0.84542   0.39771   0.00000  Uiso   1.00
O224   O     0.77885   0.71829   0.58151   0.00000  Uiso   1.00
N225   N     0.36859   0.90311   0.34562   0.00000  Uiso   1.00
N226   N     0.87357   0.81754   0.37186   0.00000  Uiso   1.00
N227   N     0.98821   0.72695   0.79023   0.00000  Uiso   1.00
N228   N     0.29021   0.95751   0.23388   0.00000  Uiso   1.00
N229   N     0.79519   0.87195   0.26012   0.00000  Uiso   1.00
N230   N     0.90982   0.78135   0.67849   0.00000  Uiso   1.00
C231   C     0.57295   0.68822   0.17983   0.00000  Uiso   1.00
C232   C     0.64227   0.64943   0.19835   0.00000  Uiso   1.00
C233   C     0.78203   0.64700   0.27656   0.00000  Uiso   1.00
C234   C     0.82513   0.60868   0.28042   0.00000  Uiso   1.00
C235   C     0.94701   0.55370   0.32014   0.00000  Uiso   1.00
C236   C     0.51721   0.67330   0.20506   0.00000  Uiso   1.00
C237   C     0.55181   0.69095   0.28890   0.00000  Uiso   1.00
C238   C     0.48962   0.67272   0.29840   0.00000  Uiso   1.00
C239   C     0.41726   0.65483   0.34847   0.00000  Uiso   1.00
C240   C     0.44150   0.69826   0.04549   0.00000  Uiso   1.00
C241   C     0.41240   0.73690   0.99516   0.00000  Uiso   1.00
C242   C     0.28644   0.73969   0.87030   0.00000  Uiso   1.00
C243   C     0.09653   0.76056   0.67261   0.00000  Uiso   1.00
C244   C     0.40096   0.62449   0.04759   0.00000  Uiso   1.00
C245   C     0.54886   0.61481   0.12652   0.00000  Uiso   1.00
C246   C     0.59176   0.57649   0.13026   0.00000  Uiso   1.00
C247   C     0.73155   0.57400   0.20846   0.00000  Uiso   1.00
C248   C     0.42380   0.63869   0.13323   0.00000  Uiso   1.00
C249   C     0.36154   0.62044   0.14260   0.00000  Uiso   1.00
C250   C     0.39603   0.63804   0.22644   0.00000  Uiso   1.00
C251   C     0.34808   0.66365   0.97366   0.00000  Uiso   1.00
C252   C     0.22214   0.66639   0.84885   0.00000  Uiso   1.00
C253   C     0.19286   0.70502   0.79834   0.00000  Uiso   1.00
H254   H     0.64567   0.71517   0.23576   0.00000  Uiso   1.00
H255   H     0.85429   0.67379   0.33215   0.00000  Uiso   1.00
H256   H     0.62409   0.71774   0.34447   0.00000  Uiso   1.00
H257   H     0.48472   0.76368   0.05077   0.00000  Uiso   1.00
H258   H     0.04441   0.61264   0.40736   0.00000  Uiso   1.00
H259   H     0.55898   0.70531   0.43332   0.00000  Uiso   1.00
H260   H     0.26508   0.80219   0.81400   0.00000  Uiso   1.00
H261   H     0.32824   0.59754   0.99167   0.00000  Uiso   1.00
H262   H     0.51944   0.54970   0.07466   0.00000  Uiso   1.00
H263   H     0.28925   0.59365   0.08699   0.00000  Uiso   1.00
H264   H     0.14987   0.63959   0.79329   0.00000  Uiso   1.00
H265   H     0.77264   0.51193   0.19839   0.00000  Uiso   1.00
H266   H     0.28721   0.60460   0.22434   0.00000  Uiso   1.00
H267   H     0.99331   0.70148   0.60502   0.00000  Uiso   1.00
O268   O     0.04005   0.53294   0.36190   0.00000  Uiso   1.00
O269   O     0.40317   0.65452   0.39594   0.00000  Uiso   1.00
O270   O     0.01758   0.78162   0.58341   0.00000  Uiso   1.00
N271   N     0.95420   0.59551   0.34677   0.00000  Uiso   1.00
N272   N     0.50037   0.68214   0.37106   0.00000  Uiso   1.00
N273   N     0.22558   0.77272   0.79204   0.00000  Uiso   1.00
N274   N     0.80796   0.54131   0.23432   0.00000  Uiso   1.00
N275   N     0.35413   0.62795   0.25861   0.00000  Uiso   1.00
N276   N     0.07934   0.71853   0.67959   0.00000  Uiso   1.00
C277   C     0.58304   0.31108   0.32095   0.00000  Uiso   1.00
C278   C     0.61555   0.34974   0.30236   0.00000  Uiso   1.00
C279   C     0.59920   0.35194   0.22448   0.00000  Uiso   1.00
C280   C     0.63473   0.39016   0.22048   0.00000  Uiso   1.00
C281   C     0.67752   0.44491   0.18073   0.00000  Uiso   1.00
C282   C     0.47636   0.32616   0.29511   0.00000  Uiso   1.00
C283   C     0.34299   0.30853   0.21115   0.00000  Uiso   1.00
C284   C     0.26136   0.32691   0.20107   0.00000  Uiso   1.00
C285   C     0.08809   0.34502   0.15012   0.00000  Uiso   1.00
C286   C     0.72037   0.30119   0.45540   0.00000  Uiso   1.00
C287   C     0.79216   0.26257   0.50622   0.00000  Uiso   1.00
C288   C     0.91595   0.25992   0.63110   0.00000  Uiso   1.00
C289   C     0.12156   0.23928   0.82903   0.00000  Uiso   1.00
C290   C     0.67522   0.37506   0.45235   0.00000  Uiso   1.00
C291   C     0.66561   0.38449   0.37374   0.00000  Uiso   1.00
C292   C     0.70118   0.42272   0.36987   0.00000  Uiso   1.00
C293   C     0.68489   0.42497   0.29199   0.00000  Uiso   1.00
C294   C     0.52642   0.36091   0.36649   0.00000  Uiso   1.00
C295   C     0.44497   0.37931   0.35654   0.00000  Uiso   1.00
C296   C     0.31151   0.36172   0.27258   0.00000  Uiso   1.00
C297   C     0.77044   0.33594   0.52678   0.00000  Uiso   1.00
C298   C     0.89414   0.33335   0.65161   0.00000  Uiso   1.00
C299   C     0.96611   0.29474   0.70261   0.00000  Uiso   1.00
H300   H     0.54405   0.28403   0.26537   0.00000  Uiso   1.00
H301   H     0.56044   0.32504   0.16925   0.00000  Uiso   1.00
H302   H     0.30428   0.28164   0.15594   0.00000  Uiso   1.00
H303   H     0.75338   0.23569   0.45096   0.00000  Uiso   1.00
H304   H     0.60063   0.38584   0.09412   0.00000  Uiso   1.00
H305   H     0.06052   0.29431   0.06607   0.00000  Uiso   1.00
H306   H     0.00754   0.19741   0.68819   0.00000  Uiso   1.00
H307   H     0.71419   0.40211   0.50793   0.00000  Uiso   1.00
H308   H     0.73992   0.44961   0.42511   0.00000  Uiso   1.00
H309   H     0.48375   0.40620   0.41179   0.00000  Uiso   1.00
H310   H     0.93285   0.36025   0.70682   0.00000  Uiso   1.00
H311   H     0.74630   0.48694   0.30178   0.00000  Uiso   1.00
H312   H     0.20619   0.39541   0.27374   0.00000  Uiso   1.00
H313   H     0.15321   0.29852   0.89585   0.00000  Uiso   1.00
O314   O     0.68727   0.46550   0.13906   0.00000  Uiso   1.00
O315   O     0.97868   0.34542   0.10229   0.00000  Uiso   1.00
O316   O     0.22115   0.21829   0.91849   0.00000  Uiso   1.00
N317   N     0.63141   0.40311   0.15438   0.00000  Uiso   1.00
N318   N     0.12643   0.31754   0.12814   0.00000  Uiso   1.00
N319   N     0.01179   0.22695   0.70977   0.00000  Uiso   1.00
N320   N     0.70979   0.45751   0.26612   0.00000  Uiso   1.00
N321   N     0.20481   0.37195   0.23988   0.00000  Uiso   1.00
N322   N     0.09018   0.28135   0.82151   0.00000  Uiso   1.00
C323   C     0.42705   0.18822   0.32017   0.00000  Uiso   1.00
C324   C     0.35773   0.14943   0.30165   0.00000  Uiso   1.00
C325   C     0.21797   0.14700   0.22344   0.00000  Uiso   1.00
C326   C     0.17487   0.10868   0.21958   0.00000  Uiso   1.00
C327   C     0.05299   0.05370   0.17986   0.00000  Uiso   1.00
C328   C     0.48279   0.17330   0.29494   0.00000  Uiso   1.00
C329   C     0.44819   0.19095   0.21110   0.00000  Uiso   1.00
C330   C     0.51038   0.17272   0.20160   0.00000  Uiso   1.00
C331   C     0.58274   0.15483   0.15153   0.00000  Uiso   1.00
C332   C     0.55850   0.19826   0.45451   0.00000  Uiso   1.00
C333   C     0.58760   0.23690   0.50484   0.00000  Uiso   1.00
C334   C     0.71356   0.23969   0.62970   0.00000  Uiso   1.00
C335   C     0.90347   0.26056   0.82739   0.00000  Uiso   1.00
C336   C     0.59904   0.12449   0.45241   0.00000  Uiso   1.00
C337   C     0.45114   0.11481   0.37348   0.00000  Uiso   1.00
C338   C     0.40824   0.07649   0.36974   0.00000  Uiso   1.00
C339   C     0.26845   0.07400   0.29154   0.00000  Uiso   1.00
C340   C     0.57620   0.13869   0.36677   0.00000  Uiso   1.00
C341   C     0.63846   0.12044   0.35740   0.00000  Uiso   1.00
C342   C     0.60397   0.13804   0.27356   0.00000  Uiso   1.00
C343   C     0.65192   0.16365   0.52634   0.00000  Uiso   1.00
C344   C     0.77786   0.16639   0.65115   0.00000  Uiso   1.00
C345   C     0.80714   0.20502   0.70166   0.00000  Uiso   1.00
H346   H     0.35433   0.21517   0.26424   0.00000  Uiso   1.00
H347   H     0.14571   0.17379   0.16785   0.00000  Uiso   1.00
H348   H     0.37591   0.21774   0.15553   0.00000  Uiso   1.00
H349   H     0.51528   0.26368   0.44923   0.00000  Uiso   1.00
H350   H     0.95559   0.11264   0.09264   0.00000  Uiso   1.00
H351   H     0.44102   0.20531   0.06668   0.00000  Uiso   1.00
H352   H     0.73492   0.30219   0.68600   0.00000  Uiso   1.00
H353   H     0.67176   0.09754   0.50833   0.00000  Uiso   1.00
H354   H     0.48056   0.04970   0.42534   0.00000  Uiso   1.00
H355   H     0.71075   0.09365   0.41301   0.00000  Uiso   1.00
H356   H     0.85013   0.13959   0.70671   0.00000  Uiso   1.00
H357   H     0.22736   0.01193   0.30161   0.00000  Uiso   1.00
H358   H     0.71279   0.10460   0.27566   0.00000  Uiso   1.00
H359   H     0.00669   0.20148   0.89498   0.00000  Uiso   1.00
O360   O     0.95995   0.03294   0.13810   0.00000  Uiso   1.00
O361   O     0.59683   0.15452   0.10406   0.00000  Uiso   1.00
O362   O     0.98242   0.28162   0.91659   0.00000  Uiso   1.00
N363   N     0.04580   0.09551   0.15323   0.00000  Uiso   1.00
N364   N     0.49963   0.18214   0.12894   0.00000  Uiso   1.00
N365   N     0.77442   0.27272   0.70796   0.00000  Uiso   1.00
N366   N     0.19204   0.04131   0.26568   0.00000  Uiso   1.00
N367   N     0.64587   0.12795   0.24139   0.00000  Uiso   1.00
N368   N     0.92066   0.21853   0.82041   0.00000  Uiso   1.00
