data_job_00116
_audit_creation_date              2018-12-19
_audit_creation_method            'Materials Studio'
_symmetry_space_group_name_H-M    'P1'
_symmetry_Int_Tables_number       1
_symmetry_cell_setting            triclinic
loop_
_symmetry_equiv_pos_as_xyz
  x,y,z
_cell_length_a                    32.4029
_cell_length_b                    7.1116
_cell_length_c                    23.8024
_cell_angle_alpha                 90.0000
_cell_angle_beta                  125.0890
_cell_angle_gamma                 90.0000
loop_
_atom_site_label
_atom_site_type_symbol
_atom_site_fract_x
_atom_site_fract_y
_atom_site_fract_z
_atom_site_U_iso_or_equiv
_atom_site_adp_type
_atom_site_occupancy
C1     C     0.87008   0.06474   0.23924   0.00000  Uiso   1.00
C2     C     0.85619   0.93205   0.18048   0.00000  Uiso   1.00
C3     C     0.83063   0.98179   0.11182   0.00000  Uiso   1.00
C4     C     0.82153   0.83984   0.06596   0.00000  Uiso   1.00
C5     C     0.79752   0.66193   0.97136   0.00000  Uiso   1.00
C6     C     0.84705   0.97986   0.27417   0.00000  Uiso   1.00
C7     C     0.81380   0.06982   0.28428   0.00000  Uiso   1.00
C8     C     0.79702   0.96811   0.31730   0.00000  Uiso   1.00
C9     C     0.75885   0.86448   0.36819   0.00000  Uiso   1.00
C10    C     0.92708   0.04892   0.29093   0.00000  Uiso   1.00
C11    C     0.96112   0.19694   0.31516   0.00000  Uiso   1.00
C12    C     0.01172   0.15338   0.36231   0.00000  Uiso   1.00
C13    C     0.09781   0.15697   0.43923   0.00000  Uiso   1.00
C14    C     0.89940   0.72418   0.27990   0.00000  Uiso   1.00
C15    C     0.87212   0.74707   0.20257   0.00000  Uiso   1.00
C16    C     0.86306   0.60501   0.15680   0.00000  Uiso   1.00
C17    C     0.83749   0.65453   0.08808   0.00000  Uiso   1.00
C18    C     0.86298   0.79489   0.29625   0.00000  Uiso   1.00
C19    C     0.84624   0.69303   0.32926   0.00000  Uiso   1.00
C20    C     0.81297   0.78280   0.33942   0.00000  Uiso   1.00
C21    C     0.94301   0.86394   0.31302   0.00000  Uiso   1.00
C22    C     0.99356   0.82015   0.36014   0.00000  Uiso   1.00
C23    C     0.02767   0.96808   0.38443   0.00000  Uiso   1.00
H24    H     0.85768   0.20875   0.22205   0.00000  Uiso   1.00
H25    H     0.81830   0.12496   0.09474   0.00000  Uiso   1.00
H26    H     0.80149   0.21297   0.26719   0.00000  Uiso   1.00
H27    H     0.94879   0.34007   0.29806   0.00000  Uiso   1.00
H28    H     0.78165   0.95047   0.96334   0.00000  Uiso   1.00
H29    H     0.74621   0.13607   0.32697   0.00000  Uiso   1.00
H30    H     0.05682   0.40409   0.39207   0.00000  Uiso   1.00
H31    H     0.91180   0.58016   0.29710   0.00000  Uiso   1.00
H32    H     0.87539   0.46187   0.17391   0.00000  Uiso   1.00
H33    H     0.85858   0.54989   0.34635   0.00000  Uiso   1.00
H34    H     0.00587   0.67699   0.37722   0.00000  Uiso   1.00
H35    H     0.82798   0.41228   0.02759   0.00000  Uiso   1.00
H36    H     0.79255   0.59790   0.39122   0.00000  Uiso   1.00
H37    H     0.10315   0.86591   0.45632   0.00000  Uiso   1.00
O38    O     0.77988   0.61489   0.91307   0.00000  Uiso   1.00
O39    O     0.73339   0.85842   0.39015   0.00000  Uiso   1.00
O40    O     0.14089   0.21005   0.47556   0.00000  Uiso   1.00
N41    N     0.79756   0.84004   0.99537   0.00000  Uiso   1.00
N42    N     0.76442   0.01357   0.33533   0.00000  Uiso   1.00
N43    N     0.05481   0.26415   0.39621   0.00000  Uiso   1.00
N44    N     0.82249   0.55045   0.02994   0.00000  Uiso   1.00
N45    N     0.78936   0.72398   0.36990   0.00000  Uiso   1.00
N46    N     0.07974   0.97456   0.43078   0.00000  Uiso   1.00
C47    C     0.37008   0.56474   0.23924   0.00000  Uiso   1.00
C48    C     0.35619   0.43205   0.18048   0.00000  Uiso   1.00
C49    C     0.33063   0.48179   0.11182   0.00000  Uiso   1.00
C50    C     0.32153   0.33984   0.06596   0.00000  Uiso   1.00
C51    C     0.29752   0.16193   0.97136   0.00000  Uiso   1.00
C52    C     0.34705   0.47986   0.27417   0.00000  Uiso   1.00
C53    C     0.31380   0.56982   0.28428   0.00000  Uiso   1.00
C54    C     0.29702   0.46811   0.31730   0.00000  Uiso   1.00
C55    C     0.25885   0.36448   0.36819   0.00000  Uiso   1.00
C56    C     0.42708   0.54892   0.29093   0.00000  Uiso   1.00
C57    C     0.46112   0.69694   0.31516   0.00000  Uiso   1.00
C58    C     0.51172   0.65338   0.36231   0.00000  Uiso   1.00
C59    C     0.59781   0.65697   0.43923   0.00000  Uiso   1.00
C60    C     0.39940   0.22418   0.27990   0.00000  Uiso   1.00
C61    C     0.37212   0.24707   0.20257   0.00000  Uiso   1.00
C62    C     0.36306   0.10501   0.15680   0.00000  Uiso   1.00
C63    C     0.33749   0.15453   0.08808   0.00000  Uiso   1.00
C64    C     0.36298   0.29489   0.29625   0.00000  Uiso   1.00
C65    C     0.34624   0.19303   0.32926   0.00000  Uiso   1.00
C66    C     0.31297   0.28280   0.33942   0.00000  Uiso   1.00
C67    C     0.44301   0.36394   0.31302   0.00000  Uiso   1.00
C68    C     0.49356   0.32015   0.36014   0.00000  Uiso   1.00
C69    C     0.52767   0.46808   0.38443   0.00000  Uiso   1.00
H70    H     0.35768   0.70875   0.22205   0.00000  Uiso   1.00
H71    H     0.31830   0.62496   0.09474   0.00000  Uiso   1.00
H72    H     0.30149   0.71297   0.26719   0.00000  Uiso   1.00
H73    H     0.44879   0.84007   0.29806   0.00000  Uiso   1.00
H74    H     0.28165   0.45047   0.96334   0.00000  Uiso   1.00
H75    H     0.24621   0.63607   0.32697   0.00000  Uiso   1.00
H76    H     0.55682   0.90409   0.39207   0.00000  Uiso   1.00
H77    H     0.41180   0.08016   0.29710   0.00000  Uiso   1.00
H78    H     0.37539   0.96187   0.17391   0.00000  Uiso   1.00
H79    H     0.35858   0.04989   0.34635   0.00000  Uiso   1.00
H80    H     0.50587   0.17699   0.37722   0.00000  Uiso   1.00
H81    H     0.32798   0.91228   0.02759   0.00000  Uiso   1.00
H82    H     0.29255   0.09790   0.39122   0.00000  Uiso   1.00
H83    H     0.60315   0.36591   0.45632   0.00000  Uiso   1.00
O84    O     0.27988   0.11489   0.91307   0.00000  Uiso   1.00
O85    O     0.23339   0.35842   0.39015   0.00000  Uiso   1.00
O86    O     0.64089   0.71005   0.47556   0.00000  Uiso   1.00
N87    N     0.29756   0.34004   0.99537   0.00000  Uiso   1.00
N88    N     0.26442   0.51357   0.33533   0.00000  Uiso   1.00
N89    N     0.55481   0.76415   0.39621   0.00000  Uiso   1.00
N90    N     0.32249   0.05045   0.02994   0.00000  Uiso   1.00
N91    N     0.28936   0.22398   0.36990   0.00000  Uiso   1.00
N92    N     0.57974   0.47456   0.43078   0.00000  Uiso   1.00
C93    C     0.12992   0.06474   0.26076   0.00000  Uiso   1.00
C94    C     0.14381   0.93205   0.31952   0.00000  Uiso   1.00
C95    C     0.16937   0.98179   0.38818   0.00000  Uiso   1.00
C96    C     0.17847   0.83984   0.43404   0.00000  Uiso   1.00
C97    C     0.20248   0.66193   0.52864   0.00000  Uiso   1.00
C98    C     0.15295   0.97986   0.22583   0.00000  Uiso   1.00
C99    C     0.18620   0.06982   0.21572   0.00000  Uiso   1.00
C100   C     0.20298   0.96811   0.18270   0.00000  Uiso   1.00
C101   C     0.24115   0.86448   0.13181   0.00000  Uiso   1.00
C102   C     0.07292   0.04892   0.20907   0.00000  Uiso   1.00
C103   C     0.03888   0.19694   0.18484   0.00000  Uiso   1.00
C104   C     0.98828   0.15338   0.13769   0.00000  Uiso   1.00
C105   C     0.90219   0.15697   0.06077   0.00000  Uiso   1.00
C106   C     0.10060   0.72418   0.22010   0.00000  Uiso   1.00
C107   C     0.12788   0.74707   0.29743   0.00000  Uiso   1.00
C108   C     0.13694   0.60501   0.34320   0.00000  Uiso   1.00
C109   C     0.16251   0.65453   0.41192   0.00000  Uiso   1.00
C110   C     0.13702   0.79489   0.20375   0.00000  Uiso   1.00
C111   C     0.15376   0.69303   0.17074   0.00000  Uiso   1.00
C112   C     0.18703   0.78280   0.16058   0.00000  Uiso   1.00
C113   C     0.05699   0.86394   0.18698   0.00000  Uiso   1.00
C114   C     0.00644   0.82015   0.13986   0.00000  Uiso   1.00
C115   C     0.97233   0.96808   0.11557   0.00000  Uiso   1.00
H116   H     0.14232   0.20875   0.27795   0.00000  Uiso   1.00
H117   H     0.18170   0.12496   0.40526   0.00000  Uiso   1.00
H118   H     0.19851   0.21297   0.23281   0.00000  Uiso   1.00
H119   H     0.05121   0.34007   0.20194   0.00000  Uiso   1.00
H120   H     0.21835   0.95047   0.53666   0.00000  Uiso   1.00
H121   H     0.25379   0.13607   0.17303   0.00000  Uiso   1.00
H122   H     0.94318   0.40409   0.10793   0.00000  Uiso   1.00
H123   H     0.08820   0.58016   0.20290   0.00000  Uiso   1.00
H124   H     0.12461   0.46187   0.32609   0.00000  Uiso   1.00
H125   H     0.14142   0.54989   0.15365   0.00000  Uiso   1.00
H126   H     0.99413   0.67699   0.12278   0.00000  Uiso   1.00
H127   H     0.17202   0.41228   0.47241   0.00000  Uiso   1.00
H128   H     0.20745   0.59790   0.10878   0.00000  Uiso   1.00
H129   H     0.89685   0.86591   0.04368   0.00000  Uiso   1.00
O130   O     0.22012   0.61489   0.58693   0.00000  Uiso   1.00
O131   O     0.26661   0.85842   0.10985   0.00000  Uiso   1.00
O132   O     0.85911   0.21005   0.02444   0.00000  Uiso   1.00
N133   N     0.20244   0.84004   0.50463   0.00000  Uiso   1.00
N134   N     0.23558   0.01357   0.16467   0.00000  Uiso   1.00
N135   N     0.94519   0.26415   0.10379   0.00000  Uiso   1.00
N136   N     0.17751   0.55045   0.47006   0.00000  Uiso   1.00
N137   N     0.21064   0.72398   0.13010   0.00000  Uiso   1.00
N138   N     0.92026   0.97456   0.06922   0.00000  Uiso   1.00
C139   C     0.62992   0.56474   0.26076   0.00000  Uiso   1.00
C140   C     0.64381   0.43205   0.31952   0.00000  Uiso   1.00
C141   C     0.66937   0.48179   0.38818   0.00000  Uiso   1.00
C142   C     0.67847   0.33984   0.43404   0.00000  Uiso   1.00
C143   C     0.70248   0.16193   0.52864   0.00000  Uiso   1.00
C144   C     0.65295   0.47986   0.22583   0.00000  Uiso   1.00
C145   C     0.68620   0.56982   0.21572   0.00000  Uiso   1.00
C146   C     0.70298   0.46811   0.18270   0.00000  Uiso   1.00
C147   C     0.74115   0.36448   0.13181   0.00000  Uiso   1.00
C148   C     0.57292   0.54892   0.20907   0.00000  Uiso   1.00
C149   C     0.53888   0.69694   0.18484   0.00000  Uiso   1.00
C150   C     0.48828   0.65338   0.13769   0.00000  Uiso   1.00
C151   C     0.40219   0.65697   0.06077   0.00000  Uiso   1.00
C152   C     0.60060   0.22418   0.22010   0.00000  Uiso   1.00
C153   C     0.62788   0.24707   0.29743   0.00000  Uiso   1.00
C154   C     0.63694   0.10501   0.34320   0.00000  Uiso   1.00
C155   C     0.66251   0.15453   0.41192   0.00000  Uiso   1.00
C156   C     0.63702   0.29489   0.20375   0.00000  Uiso   1.00
C157   C     0.65376   0.19303   0.17074   0.00000  Uiso   1.00
C158   C     0.68703   0.28280   0.16058   0.00000  Uiso   1.00
C159   C     0.55699   0.36394   0.18698   0.00000  Uiso   1.00
C160   C     0.50644   0.32015   0.13986   0.00000  Uiso   1.00
C161   C     0.47233   0.46808   0.11557   0.00000  Uiso   1.00
H162   H     0.64232   0.70875   0.27795   0.00000  Uiso   1.00
H163   H     0.68170   0.62496   0.40526   0.00000  Uiso   1.00
H164   H     0.69851   0.71297   0.23281   0.00000  Uiso   1.00
H165   H     0.55121   0.84007   0.20194   0.00000  Uiso   1.00
H166   H     0.71835   0.45047   0.53666   0.00000  Uiso   1.00
H167   H     0.75379   0.63607   0.17303   0.00000  Uiso   1.00
H168   H     0.44318   0.90409   0.10793   0.00000  Uiso   1.00
H169   H     0.58820   0.08016   0.20290   0.00000  Uiso   1.00
H170   H     0.62461   0.96187   0.32609   0.00000  Uiso   1.00
H171   H     0.64142   0.04989   0.15365   0.00000  Uiso   1.00
H172   H     0.49413   0.17699   0.12278   0.00000  Uiso   1.00
H173   H     0.67202   0.91228   0.47241   0.00000  Uiso   1.00
H174   H     0.70745   0.09790   0.10878   0.00000  Uiso   1.00
H175   H     0.39685   0.36591   0.04368   0.00000  Uiso   1.00
O176   O     0.72012   0.11489   0.58693   0.00000  Uiso   1.00
O177   O     0.76661   0.35842   0.10985   0.00000  Uiso   1.00
O178   O     0.35911   0.71005   0.02444   0.00000  Uiso   1.00
N179   N     0.70244   0.34004   0.50463   0.00000  Uiso   1.00
N180   N     0.73558   0.51357   0.16467   0.00000  Uiso   1.00
N181   N     0.44519   0.76415   0.10379   0.00000  Uiso   1.00
N182   N     0.67751   0.05045   0.47006   0.00000  Uiso   1.00
N183   N     0.71064   0.22398   0.13010   0.00000  Uiso   1.00
N184   N     0.42026   0.47456   0.06922   0.00000  Uiso   1.00
C185   C     0.12992   0.93526   0.76076   0.00000  Uiso   1.00
C186   C     0.14381   0.06795   0.81952   0.00000  Uiso   1.00
C187   C     0.16937   0.01821   0.88818   0.00000  Uiso   1.00
C188   C     0.17847   0.16016   0.93404   0.00000  Uiso   1.00
C189   C     0.20248   0.33807   0.02864   0.00000  Uiso   1.00
C190   C     0.15295   0.02014   0.72583   0.00000  Uiso   1.00
C191   C     0.18620   0.93018   0.71572   0.00000  Uiso   1.00
C192   C     0.20298   0.03189   0.68270   0.00000  Uiso   1.00
C193   C     0.24115   0.13552   0.63181   0.00000  Uiso   1.00
C194   C     0.07292   0.95108   0.70907   0.00000  Uiso   1.00
C195   C     0.03888   0.80306   0.68484   0.00000  Uiso   1.00
C196   C     0.98828   0.84662   0.63769   0.00000  Uiso   1.00
C197   C     0.90219   0.84303   0.56077   0.00000  Uiso   1.00
C198   C     0.10060   0.27582   0.72010   0.00000  Uiso   1.00
C199   C     0.12788   0.25293   0.79743   0.00000  Uiso   1.00
C200   C     0.13694   0.39499   0.84320   0.00000  Uiso   1.00
C201   C     0.16251   0.34547   0.91192   0.00000  Uiso   1.00
C202   C     0.13702   0.20511   0.70375   0.00000  Uiso   1.00
C203   C     0.15376   0.30697   0.67074   0.00000  Uiso   1.00
C204   C     0.18703   0.21720   0.66058   0.00000  Uiso   1.00
C205   C     0.05699   0.13606   0.68698   0.00000  Uiso   1.00
C206   C     0.00644   0.17985   0.63986   0.00000  Uiso   1.00
C207   C     0.97233   0.03192   0.61557   0.00000  Uiso   1.00
H208   H     0.14232   0.79125   0.77795   0.00000  Uiso   1.00
H209   H     0.18170   0.87504   0.90526   0.00000  Uiso   1.00
H210   H     0.19851   0.78703   0.73281   0.00000  Uiso   1.00
H211   H     0.05121   0.65993   0.70194   0.00000  Uiso   1.00
H212   H     0.21835   0.04953   0.03666   0.00000  Uiso   1.00
H213   H     0.25379   0.86393   0.67303   0.00000  Uiso   1.00
H214   H     0.94318   0.59591   0.60793   0.00000  Uiso   1.00
H215   H     0.08820   0.41984   0.70290   0.00000  Uiso   1.00
H216   H     0.12461   0.53813   0.82609   0.00000  Uiso   1.00
H217   H     0.14142   0.45011   0.65365   0.00000  Uiso   1.00
H218   H     0.99413   0.32301   0.62278   0.00000  Uiso   1.00
H219   H     0.17202   0.58772   0.97241   0.00000  Uiso   1.00
H220   H     0.20745   0.40210   0.60878   0.00000  Uiso   1.00
H221   H     0.89685   0.13409   0.54368   0.00000  Uiso   1.00
O222   O     0.22012   0.38511   0.08693   0.00000  Uiso   1.00
O223   O     0.26661   0.14158   0.60985   0.00000  Uiso   1.00
O224   O     0.85911   0.78995   0.52444   0.00000  Uiso   1.00
N225   N     0.20244   0.15996   0.00463   0.00000  Uiso   1.00
N226   N     0.23558   0.98643   0.66467   0.00000  Uiso   1.00
N227   N     0.94519   0.73585   0.60379   0.00000  Uiso   1.00
N228   N     0.17751   0.44955   0.97006   0.00000  Uiso   1.00
N229   N     0.21064   0.27602   0.63010   0.00000  Uiso   1.00
N230   N     0.92026   0.02544   0.56922   0.00000  Uiso   1.00
C231   C     0.62992   0.43526   0.76076   0.00000  Uiso   1.00
C232   C     0.64381   0.56795   0.81952   0.00000  Uiso   1.00
C233   C     0.66937   0.51821   0.88818   0.00000  Uiso   1.00
C234   C     0.67847   0.66016   0.93404   0.00000  Uiso   1.00
C235   C     0.70248   0.83807   0.02864   0.00000  Uiso   1.00
C236   C     0.65295   0.52014   0.72583   0.00000  Uiso   1.00
C237   C     0.68620   0.43018   0.71572   0.00000  Uiso   1.00
C238   C     0.70298   0.53189   0.68270   0.00000  Uiso   1.00
C239   C     0.74115   0.63552   0.63181   0.00000  Uiso   1.00
C240   C     0.57292   0.45108   0.70907   0.00000  Uiso   1.00
C241   C     0.53888   0.30306   0.68484   0.00000  Uiso   1.00
C242   C     0.48828   0.34662   0.63769   0.00000  Uiso   1.00
C243   C     0.40219   0.34303   0.56077   0.00000  Uiso   1.00
C244   C     0.60060   0.77582   0.72010   0.00000  Uiso   1.00
C245   C     0.62788   0.75293   0.79743   0.00000  Uiso   1.00
C246   C     0.63694   0.89499   0.84320   0.00000  Uiso   1.00
C247   C     0.66251   0.84547   0.91192   0.00000  Uiso   1.00
C248   C     0.63702   0.70511   0.70375   0.00000  Uiso   1.00
C249   C     0.65376   0.80697   0.67074   0.00000  Uiso   1.00
C250   C     0.68703   0.71720   0.66058   0.00000  Uiso   1.00
C251   C     0.55699   0.63606   0.68698   0.00000  Uiso   1.00
C252   C     0.50644   0.67985   0.63986   0.00000  Uiso   1.00
C253   C     0.47233   0.53192   0.61557   0.00000  Uiso   1.00
H254   H     0.64232   0.29125   0.77795   0.00000  Uiso   1.00
H255   H     0.68170   0.37504   0.90526   0.00000  Uiso   1.00
H256   H     0.69851   0.28703   0.73281   0.00000  Uiso   1.00
H257   H     0.55121   0.15993   0.70194   0.00000  Uiso   1.00
H258   H     0.71835   0.54953   0.03666   0.00000  Uiso   1.00
H259   H     0.75379   0.36393   0.67303   0.00000  Uiso   1.00
H260   H     0.44318   0.09591   0.60793   0.00000  Uiso   1.00
H261   H     0.58820   0.91984   0.70290   0.00000  Uiso   1.00
H262   H     0.62461   0.03813   0.82609   0.00000  Uiso   1.00
H263   H     0.64142   0.95011   0.65365   0.00000  Uiso   1.00
H264   H     0.49413   0.82301   0.62278   0.00000  Uiso   1.00
H265   H     0.67202   0.08772   0.97241   0.00000  Uiso   1.00
H266   H     0.70745   0.90210   0.60878   0.00000  Uiso   1.00
H267   H     0.39685   0.63409   0.54368   0.00000  Uiso   1.00
O268   O     0.72012   0.88511   0.08693   0.00000  Uiso   1.00
O269   O     0.76661   0.64158   0.60985   0.00000  Uiso   1.00
O270   O     0.35911   0.28995   0.52444   0.00000  Uiso   1.00
N271   N     0.70244   0.65996   0.00463   0.00000  Uiso   1.00
N272   N     0.73558   0.48643   0.66467   0.00000  Uiso   1.00
N273   N     0.44519   0.23585   0.60379   0.00000  Uiso   1.00
N274   N     0.67751   0.94955   0.97006   0.00000  Uiso   1.00
N275   N     0.71064   0.77602   0.63010   0.00000  Uiso   1.00
N276   N     0.42026   0.52544   0.56922   0.00000  Uiso   1.00
C277   C     0.87008   0.93526   0.73924   0.00000  Uiso   1.00
C278   C     0.85619   0.06795   0.68048   0.00000  Uiso   1.00
C279   C     0.83063   0.01821   0.61182   0.00000  Uiso   1.00
C280   C     0.82153   0.16016   0.56596   0.00000  Uiso   1.00
C281   C     0.79752   0.33807   0.47136   0.00000  Uiso   1.00
C282   C     0.84705   0.02014   0.77417   0.00000  Uiso   1.00
C283   C     0.81380   0.93018   0.78428   0.00000  Uiso   1.00
C284   C     0.79702   0.03189   0.81730   0.00000  Uiso   1.00
C285   C     0.75885   0.13552   0.86819   0.00000  Uiso   1.00
C286   C     0.92708   0.95108   0.79093   0.00000  Uiso   1.00
C287   C     0.96112   0.80306   0.81516   0.00000  Uiso   1.00
C288   C     0.01172   0.84662   0.86231   0.00000  Uiso   1.00
C289   C     0.09781   0.84303   0.93923   0.00000  Uiso   1.00
C290   C     0.89940   0.27582   0.77990   0.00000  Uiso   1.00
C291   C     0.87212   0.25293   0.70257   0.00000  Uiso   1.00
C292   C     0.86306   0.39499   0.65680   0.00000  Uiso   1.00
C293   C     0.83749   0.34547   0.58808   0.00000  Uiso   1.00
C294   C     0.86298   0.20511   0.79625   0.00000  Uiso   1.00
C295   C     0.84624   0.30697   0.82926   0.00000  Uiso   1.00
C296   C     0.81297   0.21720   0.83942   0.00000  Uiso   1.00
C297   C     0.94301   0.13606   0.81302   0.00000  Uiso   1.00
C298   C     0.99356   0.17985   0.86014   0.00000  Uiso   1.00
C299   C     0.02767   0.03192   0.88443   0.00000  Uiso   1.00
H300   H     0.85768   0.79125   0.72205   0.00000  Uiso   1.00
H301   H     0.81830   0.87504   0.59474   0.00000  Uiso   1.00
H302   H     0.80149   0.78703   0.76719   0.00000  Uiso   1.00
H303   H     0.94879   0.65993   0.79806   0.00000  Uiso   1.00
H304   H     0.78165   0.04953   0.46334   0.00000  Uiso   1.00
H305   H     0.74621   0.86393   0.82697   0.00000  Uiso   1.00
H306   H     0.05682   0.59591   0.89207   0.00000  Uiso   1.00
H307   H     0.91180   0.41984   0.79710   0.00000  Uiso   1.00
H308   H     0.87539   0.53813   0.67391   0.00000  Uiso   1.00
H309   H     0.85858   0.45011   0.84635   0.00000  Uiso   1.00
H310   H     0.00587   0.32301   0.87722   0.00000  Uiso   1.00
H311   H     0.82798   0.58772   0.52759   0.00000  Uiso   1.00
H312   H     0.79255   0.40210   0.89122   0.00000  Uiso   1.00
H313   H     0.10315   0.13409   0.95632   0.00000  Uiso   1.00
O314   O     0.77988   0.38511   0.41307   0.00000  Uiso   1.00
O315   O     0.73339   0.14158   0.89015   0.00000  Uiso   1.00
O316   O     0.14089   0.78995   0.97556   0.00000  Uiso   1.00
N317   N     0.79756   0.15996   0.49537   0.00000  Uiso   1.00
N318   N     0.76442   0.98643   0.83533   0.00000  Uiso   1.00
N319   N     0.05481   0.73585   0.89621   0.00000  Uiso   1.00
N320   N     0.82249   0.44955   0.52994   0.00000  Uiso   1.00
N321   N     0.78936   0.27602   0.86990   0.00000  Uiso   1.00
N322   N     0.07974   0.02544   0.93078   0.00000  Uiso   1.00
C323   C     0.37008   0.43526   0.73924   0.00000  Uiso   1.00
C324   C     0.35619   0.56795   0.68048   0.00000  Uiso   1.00
C325   C     0.33063   0.51821   0.61182   0.00000  Uiso   1.00
C326   C     0.32153   0.66016   0.56596   0.00000  Uiso   1.00
C327   C     0.29752   0.83807   0.47136   0.00000  Uiso   1.00
C328   C     0.34705   0.52014   0.77417   0.00000  Uiso   1.00
C329   C     0.31380   0.43018   0.78428   0.00000  Uiso   1.00
C330   C     0.29702   0.53189   0.81730   0.00000  Uiso   1.00
C331   C     0.25885   0.63552   0.86819   0.00000  Uiso   1.00
C332   C     0.42708   0.45108   0.79093   0.00000  Uiso   1.00
C333   C     0.46112   0.30306   0.81516   0.00000  Uiso   1.00
C334   C     0.51172   0.34662   0.86231   0.00000  Uiso   1.00
C335   C     0.59781   0.34303   0.93923   0.00000  Uiso   1.00
C336   C     0.39940   0.77582   0.77990   0.00000  Uiso   1.00
C337   C     0.37212   0.75293   0.70257   0.00000  Uiso   1.00
C338   C     0.36306   0.89499   0.65680   0.00000  Uiso   1.00
C339   C     0.33749   0.84547   0.58808   0.00000  Uiso   1.00
C340   C     0.36298   0.70511   0.79625   0.00000  Uiso   1.00
C341   C     0.34624   0.80697   0.82926   0.00000  Uiso   1.00
C342   C     0.31297   0.71720   0.83942   0.00000  Uiso   1.00
C343   C     0.44301   0.63606   0.81302   0.00000  Uiso   1.00
C344   C     0.49356   0.67985   0.86014   0.00000  Uiso   1.00
C345   C     0.52767   0.53192   0.88443   0.00000  Uiso   1.00
H346   H     0.35768   0.29125   0.72205   0.00000  Uiso   1.00
H347   H     0.31830   0.37504   0.59474   0.00000  Uiso   1.00
H348   H     0.30149   0.28703   0.76719   0.00000  Uiso   1.00
H349   H     0.44879   0.15993   0.79806   0.00000  Uiso   1.00
H350   H     0.28165   0.54953   0.46334   0.00000  Uiso   1.00
H351   H     0.24621   0.36393   0.82697   0.00000  Uiso   1.00
H352   H     0.55682   0.09591   0.89207   0.00000  Uiso   1.00
H353   H     0.41180   0.91984   0.79710   0.00000  Uiso   1.00
H354   H     0.37539   0.03813   0.67391   0.00000  Uiso   1.00
H355   H     0.35858   0.95011   0.84635   0.00000  Uiso   1.00
H356   H     0.50587   0.82301   0.87722   0.00000  Uiso   1.00
H357   H     0.32798   0.08772   0.52759   0.00000  Uiso   1.00
H358   H     0.29255   0.90210   0.89122   0.00000  Uiso   1.00
H359   H     0.60315   0.63409   0.95632   0.00000  Uiso   1.00
O360   O     0.27988   0.88511   0.41307   0.00000  Uiso   1.00
O361   O     0.23339   0.64158   0.89015   0.00000  Uiso   1.00
O362   O     0.64089   0.28995   0.97556   0.00000  Uiso   1.00
N363   N     0.29756   0.65996   0.49537   0.00000  Uiso   1.00
N364   N     0.26442   0.48643   0.83533   0.00000  Uiso   1.00
N365   N     0.55481   0.23585   0.89621   0.00000  Uiso   1.00
N366   N     0.32249   0.94955   0.52994   0.00000  Uiso   1.00
N367   N     0.28936   0.77602   0.86990   0.00000  Uiso   1.00
N368   N     0.57974   0.52544   0.93078   0.00000  Uiso   1.00
