data_job_01145
_audit_creation_date              2018-12-19
_audit_creation_method            'Materials Studio'
_symmetry_space_group_name_H-M    'P1'
_symmetry_Int_Tables_number       1
_symmetry_cell_setting            triclinic
loop_
_symmetry_equiv_pos_as_xyz
  x,y,z
_cell_length_a                    20.6366
_cell_length_b                    13.9053
_cell_length_c                    17.3810
_cell_angle_alpha                 90.0000
_cell_angle_beta                  90.0000
_cell_angle_gamma                 90.0000
loop_
_atom_site_label
_atom_site_type_symbol
_atom_site_fract_x
_atom_site_fract_y
_atom_site_fract_z
_atom_site_U_iso_or_equiv
_atom_site_adp_type
_atom_site_occupancy
C1     C     0.69786   0.90900   0.06254   0.00000  Uiso   1.00
C2     C     0.66695   0.99717   0.02546   0.00000  Uiso   1.00
C3     C     0.63326   0.99824   0.95637   0.00000  Uiso   1.00
C4     C     0.60869   0.08617   0.93225   0.00000  Uiso   1.00
C5     C     0.55937   0.21033   0.86804   0.00000  Uiso   1.00
C6     C     0.76915   0.93398   0.07412   0.00000  Uiso   1.00
C7     C     0.82139   0.88193   0.04594   0.00000  Uiso   1.00
C8     C     0.88285   0.91666   0.06279   0.00000  Uiso   1.00
C9     C     0.99220   0.94269   0.07417   0.00000  Uiso   1.00
C10    C     0.66864   0.90154   0.14290   0.00000  Uiso   1.00
C11    C     0.63638   0.82220   0.17257   0.00000  Uiso   1.00
C12    C     0.61323   0.82961   0.24734   0.00000  Uiso   1.00
C13    C     0.56653   0.80528   0.36551   0.00000  Uiso   1.00
C14    C     0.71412   0.06323   0.14259   0.00000  Uiso   1.00
C15    C     0.67578   0.08094   0.06894   0.00000  Uiso   1.00
C16    C     0.65125   0.16888   0.04493   0.00000  Uiso   1.00
C17    C     0.61753   0.17009   0.97581   0.00000  Uiso   1.00
C18    C     0.77798   0.01775   0.11760   0.00000  Uiso   1.00
C19    C     0.83938   0.05256   0.13450   0.00000  Uiso   1.00
C20    C     0.89170   0.00058   0.10635   0.00000  Uiso   1.00
C21    C     0.67747   0.98531   0.18638   0.00000  Uiso   1.00
C22    C     0.65437   0.99285   0.26113   0.00000  Uiso   1.00
C23    C     0.62208   0.91354   0.29090   0.00000  Uiso   1.00
H24    H     0.69099   0.84378   0.02870   0.00000  Uiso   1.00
H25    H     0.62644   0.93340   0.92273   0.00000  Uiso   1.00
H26    H     0.81454   0.81710   0.01230   0.00000  Uiso   1.00
H27    H     0.62956   0.75739   0.13891   0.00000  Uiso   1.00
H28    H     0.55879   0.06971   0.82441   0.00000  Uiso   1.00
H29    H     0.95541   0.82447   0.01329   0.00000  Uiso   1.00
H30    H     0.56534   0.69855   0.28027   0.00000  Uiso   1.00
H31    H     0.72100   0.12845   0.17644   0.00000  Uiso   1.00
H32    H     0.65809   0.23370   0.07859   0.00000  Uiso   1.00
H33    H     0.84620   0.11739   0.16815   0.00000  Uiso   1.00
H34    H     0.66121   0.05768   0.29476   0.00000  Uiso   1.00
H35    H     0.58448   0.31344   0.95090   0.00000  Uiso   1.00
H36    H     0.98111   0.06819   0.13979   0.00000  Uiso   1.00
H37    H     0.59104   0.94228   0.40676   0.00000  Uiso   1.00
O38    O     0.52973   0.25568   0.82061   0.00000  Uiso   1.00
O39    O     0.05008   0.93391   0.06842   0.00000  Uiso   1.00
O40    O     0.53832   0.76872   0.41868   0.00000  Uiso   1.00
N41    N     0.57346   0.11263   0.86762   0.00000  Uiso   1.00
N42    N     0.94427   0.88334   0.04420   0.00000  Uiso   1.00
N43    N     0.57961   0.76562   0.29381   0.00000  Uiso   1.00
N44    N     0.58728   0.24378   0.93568   0.00000  Uiso   1.00
N45    N     0.95810   0.01449   0.11226   0.00000  Uiso   1.00
N46    N     0.59343   0.89677   0.36187   0.00000  Uiso   1.00
C47    C     0.80214   0.59100   0.06254   0.00000  Uiso   1.00
C48    C     0.83305   0.50283   0.02546   0.00000  Uiso   1.00
C49    C     0.86674   0.50176   0.95637   0.00000  Uiso   1.00
C50    C     0.89131   0.41383   0.93225   0.00000  Uiso   1.00
C51    C     0.94063   0.28967   0.86804   0.00000  Uiso   1.00
C52    C     0.73085   0.56602   0.07412   0.00000  Uiso   1.00
C53    C     0.67861   0.61807   0.04594   0.00000  Uiso   1.00
C54    C     0.61715   0.58334   0.06279   0.00000  Uiso   1.00
C55    C     0.50780   0.55731   0.07417   0.00000  Uiso   1.00
C56    C     0.83136   0.59846   0.14290   0.00000  Uiso   1.00
C57    C     0.86362   0.67780   0.17257   0.00000  Uiso   1.00
C58    C     0.88677   0.67039   0.24734   0.00000  Uiso   1.00
C59    C     0.93347   0.69472   0.36551   0.00000  Uiso   1.00
C60    C     0.78588   0.43677   0.14259   0.00000  Uiso   1.00
C61    C     0.82422   0.41906   0.06894   0.00000  Uiso   1.00
C62    C     0.84875   0.33112   0.04493   0.00000  Uiso   1.00
C63    C     0.88247   0.32991   0.97581   0.00000  Uiso   1.00
C64    C     0.72202   0.48225   0.11760   0.00000  Uiso   1.00
C65    C     0.66062   0.44744   0.13450   0.00000  Uiso   1.00
C66    C     0.60830   0.49942   0.10635   0.00000  Uiso   1.00
C67    C     0.82253   0.51469   0.18638   0.00000  Uiso   1.00
C68    C     0.84563   0.50715   0.26113   0.00000  Uiso   1.00
C69    C     0.87792   0.58646   0.29090   0.00000  Uiso   1.00
H70    H     0.80901   0.65622   0.02870   0.00000  Uiso   1.00
H71    H     0.87356   0.56660   0.92273   0.00000  Uiso   1.00
H72    H     0.68546   0.68290   0.01230   0.00000  Uiso   1.00
H73    H     0.87044   0.74261   0.13891   0.00000  Uiso   1.00
H74    H     0.94121   0.43029   0.82441   0.00000  Uiso   1.00
H75    H     0.54459   0.67553   0.01329   0.00000  Uiso   1.00
H76    H     0.93466   0.80145   0.28027   0.00000  Uiso   1.00
H77    H     0.77900   0.37155   0.17644   0.00000  Uiso   1.00
H78    H     0.84191   0.26630   0.07859   0.00000  Uiso   1.00
H79    H     0.65380   0.38261   0.16815   0.00000  Uiso   1.00
H80    H     0.83879   0.44232   0.29476   0.00000  Uiso   1.00
H81    H     0.91552   0.18656   0.95090   0.00000  Uiso   1.00
H82    H     0.51889   0.43181   0.13979   0.00000  Uiso   1.00
H83    H     0.90896   0.55772   0.40676   0.00000  Uiso   1.00
O84    O     0.97027   0.24432   0.82061   0.00000  Uiso   1.00
O85    O     0.44992   0.56609   0.06842   0.00000  Uiso   1.00
O86    O     0.96168   0.73128   0.41868   0.00000  Uiso   1.00
N87    N     0.92654   0.38737   0.86762   0.00000  Uiso   1.00
N88    N     0.55573   0.61666   0.04420   0.00000  Uiso   1.00
N89    N     0.92039   0.73438   0.29381   0.00000  Uiso   1.00
N90    N     0.91272   0.25622   0.93568   0.00000  Uiso   1.00
N91    N     0.54190   0.48551   0.11226   0.00000  Uiso   1.00
N92    N     0.90657   0.60323   0.36187   0.00000  Uiso   1.00
C93    C     0.30214   0.40900   0.43746   0.00000  Uiso   1.00
C94    C     0.33305   0.49717   0.47454   0.00000  Uiso   1.00
C95    C     0.36674   0.49824   0.54363   0.00000  Uiso   1.00
C96    C     0.39131   0.58617   0.56775   0.00000  Uiso   1.00
C97    C     0.44063   0.71033   0.63196   0.00000  Uiso   1.00
C98    C     0.23085   0.43398   0.42588   0.00000  Uiso   1.00
C99    C     0.17861   0.38193   0.45406   0.00000  Uiso   1.00
C100   C     0.11715   0.41666   0.43721   0.00000  Uiso   1.00
C101   C     0.00780   0.44269   0.42583   0.00000  Uiso   1.00
C102   C     0.33136   0.40154   0.35710   0.00000  Uiso   1.00
C103   C     0.36362   0.32220   0.32743   0.00000  Uiso   1.00
C104   C     0.38677   0.32961   0.25266   0.00000  Uiso   1.00
C105   C     0.43347   0.30528   0.13449   0.00000  Uiso   1.00
C106   C     0.28588   0.56323   0.35741   0.00000  Uiso   1.00
C107   C     0.32422   0.58094   0.43106   0.00000  Uiso   1.00
C108   C     0.34875   0.66888   0.45507   0.00000  Uiso   1.00
C109   C     0.38247   0.67009   0.52419   0.00000  Uiso   1.00
C110   C     0.22202   0.51775   0.38240   0.00000  Uiso   1.00
C111   C     0.16062   0.55256   0.36550   0.00000  Uiso   1.00
C112   C     0.10830   0.50058   0.39365   0.00000  Uiso   1.00
C113   C     0.32253   0.48531   0.31362   0.00000  Uiso   1.00
C114   C     0.34563   0.49285   0.23887   0.00000  Uiso   1.00
C115   C     0.37792   0.41354   0.20910   0.00000  Uiso   1.00
H116   H     0.30901   0.34378   0.47130   0.00000  Uiso   1.00
H117   H     0.37356   0.43340   0.57727   0.00000  Uiso   1.00
H118   H     0.18546   0.31710   0.48770   0.00000  Uiso   1.00
H119   H     0.37044   0.25739   0.36109   0.00000  Uiso   1.00
H120   H     0.44121   0.56971   0.67559   0.00000  Uiso   1.00
H121   H     0.04459   0.32447   0.48671   0.00000  Uiso   1.00
H122   H     0.43466   0.19855   0.21973   0.00000  Uiso   1.00
H123   H     0.27900   0.62845   0.32356   0.00000  Uiso   1.00
H124   H     0.34191   0.73370   0.42141   0.00000  Uiso   1.00
H125   H     0.15380   0.61739   0.33185   0.00000  Uiso   1.00
H126   H     0.33879   0.55768   0.20524   0.00000  Uiso   1.00
H127   H     0.41552   0.81344   0.54910   0.00000  Uiso   1.00
H128   H     0.01889   0.56819   0.36021   0.00000  Uiso   1.00
H129   H     0.40896   0.44228   0.09324   0.00000  Uiso   1.00
O130   O     0.47027   0.75568   0.67939   0.00000  Uiso   1.00
O131   O     0.94992   0.43391   0.43158   0.00000  Uiso   1.00
O132   O     0.46168   0.26872   0.08132   0.00000  Uiso   1.00
N133   N     0.42654   0.61263   0.63238   0.00000  Uiso   1.00
N134   N     0.05573   0.38334   0.45580   0.00000  Uiso   1.00
N135   N     0.42039   0.26562   0.20619   0.00000  Uiso   1.00
N136   N     0.41272   0.74378   0.56432   0.00000  Uiso   1.00
N137   N     0.04190   0.51449   0.38774   0.00000  Uiso   1.00
N138   N     0.40657   0.39677   0.13813   0.00000  Uiso   1.00
C139   C     0.19786   0.09100   0.43746   0.00000  Uiso   1.00
C140   C     0.16695   0.00283   0.47454   0.00000  Uiso   1.00
C141   C     0.13326   0.00176   0.54363   0.00000  Uiso   1.00
C142   C     0.10869   0.91383   0.56775   0.00000  Uiso   1.00
C143   C     0.05937   0.78967   0.63196   0.00000  Uiso   1.00
C144   C     0.26915   0.06602   0.42588   0.00000  Uiso   1.00
C145   C     0.32139   0.11807   0.45406   0.00000  Uiso   1.00
C146   C     0.38285   0.08334   0.43721   0.00000  Uiso   1.00
C147   C     0.49220   0.05731   0.42583   0.00000  Uiso   1.00
C148   C     0.16864   0.09846   0.35710   0.00000  Uiso   1.00
C149   C     0.13638   0.17780   0.32743   0.00000  Uiso   1.00
C150   C     0.11323   0.17039   0.25266   0.00000  Uiso   1.00
C151   C     0.06653   0.19472   0.13449   0.00000  Uiso   1.00
C152   C     0.21412   0.93677   0.35741   0.00000  Uiso   1.00
C153   C     0.17578   0.91906   0.43106   0.00000  Uiso   1.00
C154   C     0.15125   0.83112   0.45507   0.00000  Uiso   1.00
C155   C     0.11753   0.82991   0.52419   0.00000  Uiso   1.00
C156   C     0.27798   0.98225   0.38240   0.00000  Uiso   1.00
C157   C     0.33938   0.94744   0.36550   0.00000  Uiso   1.00
C158   C     0.39170   0.99942   0.39365   0.00000  Uiso   1.00
C159   C     0.17747   0.01469   0.31362   0.00000  Uiso   1.00
C160   C     0.15437   0.00715   0.23887   0.00000  Uiso   1.00
C161   C     0.12208   0.08646   0.20910   0.00000  Uiso   1.00
H162   H     0.19099   0.15622   0.47130   0.00000  Uiso   1.00
H163   H     0.12644   0.06660   0.57727   0.00000  Uiso   1.00
H164   H     0.31454   0.18290   0.48770   0.00000  Uiso   1.00
H165   H     0.12956   0.24261   0.36109   0.00000  Uiso   1.00
H166   H     0.05879   0.93029   0.67559   0.00000  Uiso   1.00
H167   H     0.45541   0.17553   0.48671   0.00000  Uiso   1.00
H168   H     0.06534   0.30145   0.21973   0.00000  Uiso   1.00
H169   H     0.22100   0.87155   0.32356   0.00000  Uiso   1.00
H170   H     0.15809   0.76630   0.42141   0.00000  Uiso   1.00
H171   H     0.34620   0.88261   0.33185   0.00000  Uiso   1.00
H172   H     0.16121   0.94232   0.20524   0.00000  Uiso   1.00
H173   H     0.08448   0.68656   0.54910   0.00000  Uiso   1.00
H174   H     0.48111   0.93181   0.36021   0.00000  Uiso   1.00
H175   H     0.09104   0.05772   0.09324   0.00000  Uiso   1.00
O176   O     0.02973   0.74432   0.67939   0.00000  Uiso   1.00
O177   O     0.55008   0.06609   0.43158   0.00000  Uiso   1.00
O178   O     0.03832   0.23128   0.08132   0.00000  Uiso   1.00
N179   N     0.07346   0.88737   0.63238   0.00000  Uiso   1.00
N180   N     0.44427   0.11666   0.45580   0.00000  Uiso   1.00
N181   N     0.07961   0.23438   0.20619   0.00000  Uiso   1.00
N182   N     0.08728   0.75622   0.56432   0.00000  Uiso   1.00
N183   N     0.45810   0.98551   0.38774   0.00000  Uiso   1.00
N184   N     0.09343   0.10323   0.13813   0.00000  Uiso   1.00
C185   C     0.30214   0.09100   0.93746   0.00000  Uiso   1.00
C186   C     0.33305   0.00283   0.97454   0.00000  Uiso   1.00
C187   C     0.36674   0.00176   0.04363   0.00000  Uiso   1.00
C188   C     0.39131   0.91383   0.06775   0.00000  Uiso   1.00
C189   C     0.44063   0.78967   0.13196   0.00000  Uiso   1.00
C190   C     0.23085   0.06602   0.92588   0.00000  Uiso   1.00
C191   C     0.17861   0.11807   0.95406   0.00000  Uiso   1.00
C192   C     0.11715   0.08334   0.93721   0.00000  Uiso   1.00
C193   C     0.00780   0.05731   0.92583   0.00000  Uiso   1.00
C194   C     0.33136   0.09846   0.85710   0.00000  Uiso   1.00
C195   C     0.36362   0.17780   0.82743   0.00000  Uiso   1.00
C196   C     0.38677   0.17039   0.75266   0.00000  Uiso   1.00
C197   C     0.43347   0.19472   0.63449   0.00000  Uiso   1.00
C198   C     0.28588   0.93677   0.85741   0.00000  Uiso   1.00
C199   C     0.32422   0.91906   0.93106   0.00000  Uiso   1.00
C200   C     0.34875   0.83112   0.95507   0.00000  Uiso   1.00
C201   C     0.38247   0.82991   0.02419   0.00000  Uiso   1.00
C202   C     0.22202   0.98225   0.88240   0.00000  Uiso   1.00
C203   C     0.16062   0.94744   0.86550   0.00000  Uiso   1.00
C204   C     0.10830   0.99942   0.89365   0.00000  Uiso   1.00
C205   C     0.32253   0.01469   0.81362   0.00000  Uiso   1.00
C206   C     0.34563   0.00715   0.73887   0.00000  Uiso   1.00
C207   C     0.37792   0.08646   0.70910   0.00000  Uiso   1.00
H208   H     0.30901   0.15622   0.97130   0.00000  Uiso   1.00
H209   H     0.37356   0.06660   0.07727   0.00000  Uiso   1.00
H210   H     0.18546   0.18290   0.98770   0.00000  Uiso   1.00
H211   H     0.37044   0.24261   0.86109   0.00000  Uiso   1.00
H212   H     0.44121   0.93029   0.17559   0.00000  Uiso   1.00
H213   H     0.04459   0.17553   0.98671   0.00000  Uiso   1.00
H214   H     0.43466   0.30145   0.71973   0.00000  Uiso   1.00
H215   H     0.27900   0.87155   0.82356   0.00000  Uiso   1.00
H216   H     0.34191   0.76630   0.92141   0.00000  Uiso   1.00
H217   H     0.15380   0.88261   0.83185   0.00000  Uiso   1.00
H218   H     0.33879   0.94232   0.70524   0.00000  Uiso   1.00
H219   H     0.41552   0.68656   0.04910   0.00000  Uiso   1.00
H220   H     0.01889   0.93181   0.86021   0.00000  Uiso   1.00
H221   H     0.40896   0.05772   0.59324   0.00000  Uiso   1.00
O222   O     0.47027   0.74432   0.17939   0.00000  Uiso   1.00
O223   O     0.94992   0.06609   0.93158   0.00000  Uiso   1.00
O224   O     0.46168   0.23128   0.58132   0.00000  Uiso   1.00
N225   N     0.42654   0.88737   0.13238   0.00000  Uiso   1.00
N226   N     0.05573   0.11666   0.95580   0.00000  Uiso   1.00
N227   N     0.42039   0.23438   0.70619   0.00000  Uiso   1.00
N228   N     0.41272   0.75622   0.06432   0.00000  Uiso   1.00
N229   N     0.04190   0.98551   0.88774   0.00000  Uiso   1.00
N230   N     0.40657   0.10323   0.63813   0.00000  Uiso   1.00
C231   C     0.19786   0.40900   0.93746   0.00000  Uiso   1.00
C232   C     0.16695   0.49717   0.97454   0.00000  Uiso   1.00
C233   C     0.13326   0.49824   0.04363   0.00000  Uiso   1.00
C234   C     0.10869   0.58617   0.06775   0.00000  Uiso   1.00
C235   C     0.05937   0.71033   0.13196   0.00000  Uiso   1.00
C236   C     0.26915   0.43398   0.92588   0.00000  Uiso   1.00
C237   C     0.32139   0.38193   0.95406   0.00000  Uiso   1.00
C238   C     0.38285   0.41666   0.93721   0.00000  Uiso   1.00
C239   C     0.49220   0.44269   0.92583   0.00000  Uiso   1.00
C240   C     0.16864   0.40154   0.85710   0.00000  Uiso   1.00
C241   C     0.13638   0.32220   0.82743   0.00000  Uiso   1.00
C242   C     0.11323   0.32961   0.75266   0.00000  Uiso   1.00
C243   C     0.06653   0.30528   0.63449   0.00000  Uiso   1.00
C244   C     0.21412   0.56323   0.85741   0.00000  Uiso   1.00
C245   C     0.17578   0.58094   0.93106   0.00000  Uiso   1.00
C246   C     0.15125   0.66888   0.95507   0.00000  Uiso   1.00
C247   C     0.11753   0.67009   0.02419   0.00000  Uiso   1.00
C248   C     0.27798   0.51775   0.88240   0.00000  Uiso   1.00
C249   C     0.33938   0.55256   0.86550   0.00000  Uiso   1.00
C250   C     0.39170   0.50058   0.89365   0.00000  Uiso   1.00
C251   C     0.17747   0.48531   0.81362   0.00000  Uiso   1.00
C252   C     0.15437   0.49285   0.73887   0.00000  Uiso   1.00
C253   C     0.12208   0.41354   0.70910   0.00000  Uiso   1.00
H254   H     0.19099   0.34378   0.97130   0.00000  Uiso   1.00
H255   H     0.12644   0.43340   0.07727   0.00000  Uiso   1.00
H256   H     0.31454   0.31710   0.98770   0.00000  Uiso   1.00
H257   H     0.12956   0.25739   0.86109   0.00000  Uiso   1.00
H258   H     0.05879   0.56971   0.17559   0.00000  Uiso   1.00
H259   H     0.45541   0.32447   0.98671   0.00000  Uiso   1.00
H260   H     0.06534   0.19855   0.71973   0.00000  Uiso   1.00
H261   H     0.22100   0.62845   0.82356   0.00000  Uiso   1.00
H262   H     0.15809   0.73370   0.92141   0.00000  Uiso   1.00
H263   H     0.34620   0.61739   0.83185   0.00000  Uiso   1.00
H264   H     0.16121   0.55768   0.70524   0.00000  Uiso   1.00
H265   H     0.08448   0.81344   0.04910   0.00000  Uiso   1.00
H266   H     0.48111   0.56819   0.86021   0.00000  Uiso   1.00
H267   H     0.09104   0.44228   0.59324   0.00000  Uiso   1.00
O268   O     0.02973   0.75568   0.17939   0.00000  Uiso   1.00
O269   O     0.55008   0.43391   0.93158   0.00000  Uiso   1.00
O270   O     0.03832   0.26872   0.58132   0.00000  Uiso   1.00
N271   N     0.07346   0.61263   0.13238   0.00000  Uiso   1.00
N272   N     0.44427   0.38334   0.95580   0.00000  Uiso   1.00
N273   N     0.07961   0.26562   0.70619   0.00000  Uiso   1.00
N274   N     0.08728   0.74378   0.06432   0.00000  Uiso   1.00
N275   N     0.45810   0.51449   0.88774   0.00000  Uiso   1.00
N276   N     0.09343   0.39677   0.63813   0.00000  Uiso   1.00
C277   C     0.69786   0.59100   0.56254   0.00000  Uiso   1.00
C278   C     0.66695   0.50283   0.52546   0.00000  Uiso   1.00
C279   C     0.63326   0.50176   0.45637   0.00000  Uiso   1.00
C280   C     0.60869   0.41383   0.43225   0.00000  Uiso   1.00
C281   C     0.55937   0.28967   0.36804   0.00000  Uiso   1.00
C282   C     0.76915   0.56602   0.57412   0.00000  Uiso   1.00
C283   C     0.82139   0.61807   0.54594   0.00000  Uiso   1.00
C284   C     0.88285   0.58334   0.56279   0.00000  Uiso   1.00
C285   C     0.99220   0.55731   0.57417   0.00000  Uiso   1.00
C286   C     0.66864   0.59846   0.64290   0.00000  Uiso   1.00
C287   C     0.63638   0.67780   0.67257   0.00000  Uiso   1.00
C288   C     0.61323   0.67039   0.74734   0.00000  Uiso   1.00
C289   C     0.56653   0.69472   0.86551   0.00000  Uiso   1.00
C290   C     0.71412   0.43677   0.64259   0.00000  Uiso   1.00
C291   C     0.67578   0.41906   0.56894   0.00000  Uiso   1.00
C292   C     0.65125   0.33112   0.54493   0.00000  Uiso   1.00
C293   C     0.61753   0.32991   0.47581   0.00000  Uiso   1.00
C294   C     0.77798   0.48225   0.61760   0.00000  Uiso   1.00
C295   C     0.83938   0.44744   0.63450   0.00000  Uiso   1.00
C296   C     0.89170   0.49942   0.60635   0.00000  Uiso   1.00
C297   C     0.67747   0.51469   0.68638   0.00000  Uiso   1.00
C298   C     0.65437   0.50715   0.76113   0.00000  Uiso   1.00
C299   C     0.62208   0.58646   0.79090   0.00000  Uiso   1.00
H300   H     0.69099   0.65622   0.52870   0.00000  Uiso   1.00
H301   H     0.62644   0.56660   0.42273   0.00000  Uiso   1.00
H302   H     0.81454   0.68290   0.51230   0.00000  Uiso   1.00
H303   H     0.62956   0.74261   0.63891   0.00000  Uiso   1.00
H304   H     0.55879   0.43029   0.32441   0.00000  Uiso   1.00
H305   H     0.95541   0.67553   0.51329   0.00000  Uiso   1.00
H306   H     0.56534   0.80145   0.78027   0.00000  Uiso   1.00
H307   H     0.72100   0.37155   0.67644   0.00000  Uiso   1.00
H308   H     0.65809   0.26630   0.57859   0.00000  Uiso   1.00
H309   H     0.84620   0.38261   0.66815   0.00000  Uiso   1.00
H310   H     0.66121   0.44232   0.79476   0.00000  Uiso   1.00
H311   H     0.58448   0.18656   0.45090   0.00000  Uiso   1.00
H312   H     0.98111   0.43181   0.63979   0.00000  Uiso   1.00
H313   H     0.59104   0.55772   0.90676   0.00000  Uiso   1.00
O314   O     0.52973   0.24432   0.32061   0.00000  Uiso   1.00
O315   O     0.05008   0.56609   0.56842   0.00000  Uiso   1.00
O316   O     0.53832   0.73128   0.91868   0.00000  Uiso   1.00
N317   N     0.57346   0.38737   0.36762   0.00000  Uiso   1.00
N318   N     0.94427   0.61666   0.54420   0.00000  Uiso   1.00
N319   N     0.57961   0.73438   0.79381   0.00000  Uiso   1.00
N320   N     0.58728   0.25622   0.43568   0.00000  Uiso   1.00
N321   N     0.95810   0.48551   0.61226   0.00000  Uiso   1.00
N322   N     0.59343   0.60323   0.86187   0.00000  Uiso   1.00
C323   C     0.80214   0.90900   0.56254   0.00000  Uiso   1.00
C324   C     0.83305   0.99717   0.52546   0.00000  Uiso   1.00
C325   C     0.86674   0.99824   0.45637   0.00000  Uiso   1.00
C326   C     0.89131   0.08617   0.43225   0.00000  Uiso   1.00
C327   C     0.94063   0.21033   0.36804   0.00000  Uiso   1.00
C328   C     0.73085   0.93398   0.57412   0.00000  Uiso   1.00
C329   C     0.67861   0.88193   0.54594   0.00000  Uiso   1.00
C330   C     0.61715   0.91666   0.56279   0.00000  Uiso   1.00
C331   C     0.50780   0.94269   0.57417   0.00000  Uiso   1.00
C332   C     0.83136   0.90154   0.64290   0.00000  Uiso   1.00
C333   C     0.86362   0.82220   0.67257   0.00000  Uiso   1.00
C334   C     0.88677   0.82961   0.74734   0.00000  Uiso   1.00
C335   C     0.93347   0.80528   0.86551   0.00000  Uiso   1.00
C336   C     0.78588   0.06323   0.64259   0.00000  Uiso   1.00
C337   C     0.82422   0.08094   0.56894   0.00000  Uiso   1.00
C338   C     0.84875   0.16888   0.54493   0.00000  Uiso   1.00
C339   C     0.88247   0.17009   0.47581   0.00000  Uiso   1.00
C340   C     0.72202   0.01775   0.61760   0.00000  Uiso   1.00
C341   C     0.66062   0.05256   0.63450   0.00000  Uiso   1.00
C342   C     0.60830   0.00058   0.60635   0.00000  Uiso   1.00
C343   C     0.82253   0.98531   0.68638   0.00000  Uiso   1.00
C344   C     0.84563   0.99285   0.76113   0.00000  Uiso   1.00
C345   C     0.87792   0.91354   0.79090   0.00000  Uiso   1.00
H346   H     0.80901   0.84378   0.52870   0.00000  Uiso   1.00
H347   H     0.87356   0.93340   0.42273   0.00000  Uiso   1.00
H348   H     0.68546   0.81710   0.51230   0.00000  Uiso   1.00
H349   H     0.87044   0.75739   0.63891   0.00000  Uiso   1.00
H350   H     0.94121   0.06971   0.32441   0.00000  Uiso   1.00
H351   H     0.54459   0.82447   0.51329   0.00000  Uiso   1.00
H352   H     0.93466   0.69855   0.78027   0.00000  Uiso   1.00
H353   H     0.77900   0.12845   0.67644   0.00000  Uiso   1.00
H354   H     0.84191   0.23370   0.57859   0.00000  Uiso   1.00
H355   H     0.65380   0.11739   0.66815   0.00000  Uiso   1.00
H356   H     0.83879   0.05768   0.79476   0.00000  Uiso   1.00
H357   H     0.91552   0.31344   0.45090   0.00000  Uiso   1.00
H358   H     0.51889   0.06819   0.63979   0.00000  Uiso   1.00
H359   H     0.90896   0.94228   0.90676   0.00000  Uiso   1.00
O360   O     0.97027   0.25568   0.32061   0.00000  Uiso   1.00
O361   O     0.44992   0.93391   0.56842   0.00000  Uiso   1.00
O362   O     0.96168   0.76872   0.91868   0.00000  Uiso   1.00
N363   N     0.92654   0.11263   0.36762   0.00000  Uiso   1.00
N364   N     0.55573   0.88334   0.54420   0.00000  Uiso   1.00
N365   N     0.92039   0.76562   0.79381   0.00000  Uiso   1.00
N366   N     0.91272   0.24378   0.43568   0.00000  Uiso   1.00
N367   N     0.54190   0.01449   0.61226   0.00000  Uiso   1.00
N368   N     0.90657   0.89677   0.86187   0.00000  Uiso   1.00
