data_job_07013
_audit_creation_date              2018-12-19
_audit_creation_method            'Materials Studio'
_symmetry_space_group_name_H-M    'P1'
_symmetry_Int_Tables_number       1
_symmetry_cell_setting            triclinic
loop_
_symmetry_equiv_pos_as_xyz
  x,y,z
_cell_length_a                    23.3742
_cell_length_b                    23.4353
_cell_length_c                    19.4252
_cell_angle_alpha                 93.4357
_cell_angle_beta                  71.4424
_cell_angle_gamma                 72.1869
loop_
_atom_site_label
_atom_site_type_symbol
_atom_site_fract_x
_atom_site_fract_y
_atom_site_fract_z
_atom_site_U_iso_or_equiv
_atom_site_adp_type
_atom_site_occupancy
C1     C     0.16916   0.27579   0.64801   0.00000  Uiso   1.00
C2     C     0.10752   0.27451   0.70532   0.00000  Uiso   1.00
C3     C     0.09124   0.28633   0.78124   0.00000  Uiso   1.00
C4     C     0.03269   0.28283   0.82428   0.00000  Uiso   1.00
C5     C     0.94319   0.28306   0.91809   0.00000  Uiso   1.00
C6     C     0.20041   0.21333   0.59873   0.00000  Uiso   1.00
C7     C     0.26225   0.17372   0.58502   0.00000  Uiso   1.00
C8     C     0.28190   0.11871   0.53833   0.00000  Uiso   1.00
C9     C     0.33664   0.02399   0.46661   0.00000  Uiso   1.00
C10    C     0.14812   0.32084   0.59986   0.00000  Uiso   1.00
C11    C     0.16600   0.37163   0.58709   0.00000  Uiso   1.00
C12    C     0.14163   0.40714   0.54134   0.00000  Uiso   1.00
C13    C     0.11518   0.47935   0.47139   0.00000  Uiso   1.00
C14    C     0.09411   0.24854   0.58944   0.00000  Uiso   1.00
C15    C     0.06676   0.25971   0.67350   0.00000  Uiso   1.00
C16    C     0.00821   0.25619   0.71644   0.00000  Uiso   1.00
C17    C     0.99185   0.26800   0.79241   0.00000  Uiso   1.00
C18    C     0.15965   0.19853   0.56691   0.00000  Uiso   1.00
C19    C     0.17922   0.14357   0.52022   0.00000  Uiso   1.00
C20    C     0.24106   0.10389   0.50645   0.00000  Uiso   1.00
C21    C     0.10736   0.30605   0.56805   0.00000  Uiso   1.00
C22    C     0.08296   0.34148   0.52230   0.00000  Uiso   1.00
C23    C     0.10079   0.39231   0.50947   0.00000  Uiso   1.00
H24    H     0.20090   0.28730   0.67278   0.00000  Uiso   1.00
H25    H     0.12280   0.29777   0.80584   0.00000  Uiso   1.00
H26    H     0.29378   0.18518   0.60964   0.00000  Uiso   1.00
H27    H     0.19754   0.38306   0.61172   0.00000  Uiso   1.00
H28    H     0.01826   0.30284   0.93932   0.00000  Uiso   1.00
H29    H     0.37878   0.06544   0.52562   0.00000  Uiso   1.00
H30    H     0.17585   0.48271   0.53000   0.00000  Uiso   1.00
H31    H     0.06238   0.23702   0.56467   0.00000  Uiso   1.00
H32    H     0.97668   0.24474   0.69180   0.00000  Uiso   1.00
H33    H     0.14766   0.13214   0.49561   0.00000  Uiso   1.00
H34    H     0.05142   0.33002   0.49769   0.00000  Uiso   1.00
H35    H     0.89966   0.25978   0.84677   0.00000  Uiso   1.00
H36    H     0.26019   0.02239   0.43307   0.00000  Uiso   1.00
H37    H     0.05725   0.43965   0.43745   0.00000  Uiso   1.00
O38    O     0.90509   0.28727   0.97863   0.00000  Uiso   1.00
O39    O     0.37809   0.97582   0.43586   0.00000  Uiso   1.00
O40    O     0.11184   0.52327   0.44161   0.00000  Uiso   1.00
N41    N     0.00210   0.29166   0.90010   0.00000  Uiso   1.00
N42    N     0.33917   0.06970   0.51332   0.00000  Uiso   1.00
N43    N     0.14945   0.45980   0.51740   0.00000  Uiso   1.00
N44    N     0.93828   0.26849   0.85029   0.00000  Uiso   1.00
N45    N     0.27535   0.04654   0.46352   0.00000  Uiso   1.00
N46    N     0.08563   0.43664   0.46760   0.00000  Uiso   1.00
C47    C     0.71728   0.98761   0.19397   0.00000  Uiso   1.00
C48    C     0.75213   0.92086   0.15800   0.00000  Uiso   1.00
C49    C     0.81518   0.88721   0.14843   0.00000  Uiso   1.00
C50    C     0.83820   0.82681   0.11426   0.00000  Uiso   1.00
C51    C     0.89821   0.72711   0.06198   0.00000  Uiso   1.00
C52    C     0.69367   0.01982   0.13715   0.00000  Uiso   1.00
C53    C     0.70757   0.06937   0.11006   0.00000  Uiso   1.00
C54    C     0.68136   0.09228   0.05835   0.00000  Uiso   1.00
C55    C     0.65058   0.14624   0.97374   0.00000  Uiso   1.00
C56    C     0.65720   0.98964   0.25681   0.00000  Uiso   1.00
C57    C     0.64043   0.01383   0.33035   0.00000  Uiso   1.00
C58    C     0.58352   0.01135   0.37938   0.00000  Uiso   1.00
C59    C     0.49612   0.01844   0.48058   0.00000  Uiso   1.00
C60    C     0.64602   0.94019   0.15028   0.00000  Uiso   1.00
C61    C     0.71342   0.89511   0.13427   0.00000  Uiso   1.00
C62    C     0.73635   0.83475   0.10010   0.00000  Uiso   1.00
C63    C     0.79943   0.80101   0.09049   0.00000  Uiso   1.00
C64    C     0.65497   0.99407   0.11342   0.00000  Uiso   1.00
C65    C     0.62873   0.01692   0.06173   0.00000  Uiso   1.00
C66    C     0.64259   0.06649   0.03458   0.00000  Uiso   1.00
C67    C     0.61850   0.96389   0.23309   0.00000  Uiso   1.00
C68    C     0.56160   0.96137   0.28202   0.00000  Uiso   1.00
C69    C     0.54474   0.98555   0.35561   0.00000  Uiso   1.00
H70    H     0.74741   0.00766   0.21244   0.00000  Uiso   1.00
H71    H     0.84512   0.90716   0.16680   0.00000  Uiso   1.00
H72    H     0.73751   0.08930   0.12844   0.00000  Uiso   1.00
H73    H     0.67039   0.03376   0.34869   0.00000  Uiso   1.00
H74    H     0.93640   0.78438   0.10571   0.00000  Uiso   1.00
H75    H     0.70948   0.16845   0.02485   0.00000  Uiso   1.00
H76    H     0.56794   0.05134   0.48929   0.00000  Uiso   1.00
H77    H     0.61589   0.92014   0.13181   0.00000  Uiso   1.00
H78    H     0.70639   0.81483   0.08175   0.00000  Uiso   1.00
H79    H     0.59878   0.99698   0.04339   0.00000  Uiso   1.00
H80    H     0.53166   0.94144   0.26364   0.00000  Uiso   1.00
H81    H     0.82380   0.70945   0.03668   0.00000  Uiso   1.00
H82    H     0.59688   0.09352   0.95582   0.00000  Uiso   1.00
H83    H     0.45534   0.97640   0.42026   0.00000  Uiso   1.00
O84    O     0.94201   0.67923   0.03969   0.00000  Uiso   1.00
O85    O     0.64430   0.18311   0.93362   0.00000  Uiso   1.00
O86    O     0.45860   0.02946   0.54295   0.00000  Uiso   1.00
N87    N     0.89747   0.78120   0.09635   0.00000  Uiso   1.00
N88    N     0.68533   0.14027   0.02074   0.00000  Uiso   1.00
N89    N     0.55299   0.03079   0.45495   0.00000  Uiso   1.00
N90    N     0.83688   0.74087   0.05920   0.00000  Uiso   1.00
N91    N     0.62474   0.09995   0.98360   0.00000  Uiso   1.00
N92    N     0.49240   0.99047   0.41780   0.00000  Uiso   1.00
C93    C     0.25502   0.45920   0.29537   0.00000  Uiso   1.00
C94    C     0.23930   0.51528   0.25949   0.00000  Uiso   1.00
C95    C     0.19738   0.57305   0.29589   0.00000  Uiso   1.00
C96    C     0.18952   0.61827   0.25320   0.00000  Uiso   1.00
C97    C     0.16008   0.70719   0.20909   0.00000  Uiso   1.00
C98    C     0.23947   0.41112   0.25554   0.00000  Uiso   1.00
C99    C     0.19769   0.38132   0.28862   0.00000  Uiso   1.00
C100   C     0.18998   0.33885   0.24260   0.00000  Uiso   1.00
C101   C     0.16083   0.26604   0.19236   0.00000  Uiso   1.00
C102   C     0.32781   0.43582   0.27477   0.00000  Uiso   1.00
C103   C     0.36032   0.42677   0.32402   0.00000  Uiso   1.00
C104   C     0.42699   0.40508   0.29420   0.00000  Uiso   1.00
C105   C     0.53501   0.37062   0.27382   0.00000  Uiso   1.00
C106   C     0.31562   0.43677   0.15482   0.00000  Uiso   1.00
C107   C     0.27222   0.50309   0.18315   0.00000  Uiso   1.00
C108   C     0.26442   0.54824   0.14039   0.00000  Uiso   1.00
C109   C     0.22249   0.60607   0.17672   0.00000  Uiso   1.00
C110   C     0.27238   0.39894   0.17920   0.00000  Uiso   1.00
C111   C     0.26473   0.35650   0.13312   0.00000  Uiso   1.00
C112   C     0.22295   0.32665   0.16612   0.00000  Uiso   1.00
C113   C     0.36073   0.42364   0.19843   0.00000  Uiso   1.00
C114   C     0.42736   0.40196   0.16852   0.00000  Uiso   1.00
C115   C     0.45996   0.39288   0.21772   0.00000  Uiso   1.00
H116   H     0.22939   0.46868   0.35480   0.00000  Uiso   1.00
H117   H     0.17191   0.58246   0.35497   0.00000  Uiso   1.00
H118   H     0.17223   0.39075   0.34770   0.00000  Uiso   1.00
H119   H     0.33483   0.43620   0.38310   0.00000  Uiso   1.00
H120   H     0.12267   0.70323   0.32148   0.00000  Uiso   1.00
H121   H     0.12336   0.29899   0.30615   0.00000  Uiso   1.00
H122   H     0.46624   0.39482   0.38080   0.00000  Uiso   1.00
H123   H     0.34125   0.42728   0.09538   0.00000  Uiso   1.00
H124   H     0.28990   0.53879   0.08131   0.00000  Uiso   1.00
H125   H     0.29022   0.34709   0.07404   0.00000  Uiso   1.00
H126   H     0.45282   0.39253   0.10944   0.00000  Uiso   1.00
H127   H     0.21844   0.66779   0.09937   0.00000  Uiso   1.00
H128   H     0.21913   0.26354   0.08405   0.00000  Uiso   1.00
H129   H     0.56200   0.35938   0.15869   0.00000  Uiso   1.00
O130   O     0.13474   0.75960   0.20585   0.00000  Uiso   1.00
O131   O     0.13566   0.22925   0.18574   0.00000  Uiso   1.00
O132   O     0.58550   0.35498   0.28368   0.00000  Uiso   1.00
N133   N     0.15227   0.67959   0.27114   0.00000  Uiso   1.00
N134   N     0.15291   0.30166   0.25681   0.00000  Uiso   1.00
N135   N     0.47346   0.39123   0.32660   0.00000  Uiso   1.00
N136   N     0.20380   0.66052   0.15163   0.00000  Uiso   1.00
N137   N     0.20443   0.28258   0.13729   0.00000  Uiso   1.00
N138   N     0.52499   0.37216   0.20708   0.00000  Uiso   1.00
C139   C     0.67119   0.04083   0.74147   0.00000  Uiso   1.00
C140   C     0.61347   0.09895   0.75805   0.00000  Uiso   1.00
C141   C     0.60936   0.15665   0.78564   0.00000  Uiso   1.00
C142   C     0.55245   0.20392   0.79703   0.00000  Uiso   1.00
C143   C     0.47059   0.29571   0.82512   0.00000  Uiso   1.00
C144   C     0.68971   0.01425   0.66065   0.00000  Uiso   1.00
C145   C     0.74971   0.00072   0.60635   0.00000  Uiso   1.00
C146   C     0.75698   0.97668   0.53575   0.00000  Uiso   1.00
C147   C     0.79350   0.93692   0.41264   0.00000  Uiso   1.00
C148   C     0.64612   0.99652   0.78593   0.00000  Uiso   1.00
C149   C     0.66948   0.96808   0.83696   0.00000  Uiso   1.00
C150   C     0.64006   0.92911   0.87183   0.00000  Uiso   1.00
C151   C     0.60890   0.86184   0.94325   0.00000  Uiso   1.00
C152   C     0.57742   0.02218   0.71263   0.00000  Uiso   1.00
C153   C     0.56254   0.08882   0.74238   0.00000  Uiso   1.00
C154   C     0.50561   0.13601   0.75373   0.00000  Uiso   1.00
C155   C     0.50142   0.19377   0.78134   0.00000  Uiso   1.00
C156   C     0.63878   0.00411   0.64498   0.00000  Uiso   1.00
C157   C     0.64596   0.98008   0.57444   0.00000  Uiso   1.00
C158   C     0.70595   0.96653   0.52005   0.00000  Uiso   1.00
C159   C     0.59519   0.98639   0.77027   0.00000  Uiso   1.00
C160   C     0.56573   0.94745   0.80506   0.00000  Uiso   1.00
C161   C     0.58903   0.91896   0.85614   0.00000  Uiso   1.00
H162   H     0.71084   0.04872   0.75366   0.00000  Uiso   1.00
H163   H     0.64879   0.16447   0.79775   0.00000  Uiso   1.00
H164   H     0.78912   0.00856   0.61849   0.00000  Uiso   1.00
H165   H     0.70890   0.97594   0.84907   0.00000  Uiso   1.00
H166   H     0.55754   0.28834   0.83970   0.00000  Uiso   1.00
H167   H     0.85344   0.95957   0.46173   0.00000  Uiso   1.00
H168   H     0.68428   0.89077   0.94795   0.00000  Uiso   1.00
H169   H     0.53776   0.01429   0.70043   0.00000  Uiso   1.00
H170   H     0.46621   0.12816   0.74160   0.00000  Uiso   1.00
H171   H     0.60654   0.97225   0.56234   0.00000  Uiso   1.00
H172   H     0.52631   0.93962   0.79292   0.00000  Uiso   1.00
H173   H     0.40935   0.25887   0.79413   0.00000  Uiso   1.00
H174   H     0.70525   0.93010   0.41616   0.00000  Uiso   1.00
H175   H     0.53608   0.86130   0.90238   0.00000  Uiso   1.00
O176   O     0.43951   0.34913   0.84493   0.00000  Uiso   1.00
O177   O     0.82771   0.91779   0.34906   0.00000  Uiso   1.00
O178   O     0.60578   0.82753   0.98697   0.00000  Uiso   1.00
N179   N     0.53248   0.26578   0.82334   0.00000  Uiso   1.00
N180   N     0.80912   0.95841   0.46996   0.00000  Uiso   1.00
N181   N     0.65098   0.89407   0.92452   0.00000  Uiso   1.00
N182   N     0.45274   0.24992   0.79882   0.00000  Uiso   1.00
N183   N     0.72938   0.94255   0.44544   0.00000  Uiso   1.00
N184   N     0.57124   0.87821   0.90000   0.00000  Uiso   1.00
C185   C     0.08630   0.71034   0.68636   0.00000  Uiso   1.00
C186   C     0.14207   0.69769   0.61360   0.00000  Uiso   1.00
C187   C     0.20297   0.69828   0.60589   0.00000  Uiso   1.00
C188   C     0.24730   0.68552   0.53461   0.00000  Uiso   1.00
C189   C     0.33636   0.66781   0.43096   0.00000  Uiso   1.00
C190   C     0.06557   0.65459   0.68783   0.00000  Uiso   1.00
C191   C     0.06214   0.61896   0.74254   0.00000  Uiso   1.00
C192   C     0.04206   0.56992   0.73376   0.00000  Uiso   1.00
C193   C     0.01229   0.48533   0.74538   0.00000  Uiso   1.00
C194   C     0.03099   0.76246   0.68030   0.00000  Uiso   1.00
C195   C     0.99848   0.81753   0.72868   0.00000  Uiso   1.00
C196   C     0.94928   0.85930   0.71357   0.00000  Uiso   1.00
C197   C     0.86583   0.94220   0.71350   0.00000  Uiso   1.00
C198   C     0.05672   0.68661   0.57350   0.00000  Uiso   1.00
C199   C     0.12600   0.68480   0.55230   0.00000  Uiso   1.00
C200   C     0.17025   0.67203   0.48102   0.00000  Uiso   1.00
C201   C     0.23121   0.67261   0.47320   0.00000  Uiso   1.00
C202   C     0.04950   0.64170   0.62653   0.00000  Uiso   1.00
C203   C     0.02941   0.59271   0.61767   0.00000  Uiso   1.00
C204   C     0.02596   0.55701   0.67234   0.00000  Uiso   1.00
C205   C     0.01493   0.74958   0.61900   0.00000  Uiso   1.00
C206   C     0.96576   0.79128   0.60381   0.00000  Uiso   1.00
C207   C     0.93319   0.84639   0.65216   0.00000  Uiso   1.00
H208   H     0.09881   0.72037   0.73409   0.00000  Uiso   1.00
H209   H     0.21539   0.70825   0.65334   0.00000  Uiso   1.00
H210   H     0.07457   0.62895   0.78998   0.00000  Uiso   1.00
H211   H     0.01093   0.82748   0.77612   0.00000  Uiso   1.00
H212   H     0.33757   0.68912   0.53679   0.00000  Uiso   1.00
H213   H     0.04062   0.52190   0.82490   0.00000  Uiso   1.00
H214   H     0.90642   0.94056   0.79568   0.00000  Uiso   1.00
H215   H     0.04421   0.67657   0.52577   0.00000  Uiso   1.00
H216   H     0.15780   0.66206   0.43359   0.00000  Uiso   1.00
H217   H     0.01698   0.58275   0.57023   0.00000  Uiso   1.00
H218   H     0.95334   0.78129   0.55637   0.00000  Uiso   1.00
H219   H     0.29083   0.65162   0.35843   0.00000  Uiso   1.00
H220   H     0.99388   0.48441   0.64655   0.00000  Uiso   1.00
H221   H     0.85968   0.90307   0.61732   0.00000  Uiso   1.00
O222   O     0.38992   0.66159   0.39073   0.00000  Uiso   1.00
O223   O     0.00032   0.44222   0.76873   0.00000  Uiso   1.00
O224   O     0.82425   0.99149   0.73039   0.00000  Uiso   1.00
N225   N     0.31098   0.68230   0.50746   0.00000  Uiso   1.00
N226   N     0.03336   0.52596   0.77682   0.00000  Uiso   1.00
N227   N     0.90788   0.91736   0.74951   0.00000  Uiso   1.00
N228   N     0.28583   0.66212   0.41149   0.00000  Uiso   1.00
N229   N     0.00821   0.50578   0.68085   0.00000  Uiso   1.00
N230   N     0.88273   0.89718   0.65354   0.00000  Uiso   1.00
C231   C     0.68301   0.63431   0.13546   0.00000  Uiso   1.00
C232   C     0.66066   0.59188   0.18577   0.00000  Uiso   1.00
C233   C     0.63996   0.60266   0.26221   0.00000  Uiso   1.00
C234   C     0.62149   0.55824   0.29816   0.00000  Uiso   1.00
C235   C     0.58642   0.50048   0.38222   0.00000  Uiso   1.00
C236   C     0.64063   0.64699   0.08858   0.00000  Uiso   1.00
C237   C     0.60310   0.70409   0.08331   0.00000  Uiso   1.00
C238   C     0.56777   0.70606   0.03744   0.00000  Uiso   1.00
C239   C     0.50165   0.73385   0.97059   0.00000  Uiso   1.00
C240   C     0.75047   0.59687   0.08263   0.00000  Uiso   1.00
C241   C     0.80531   0.61184   0.07234   0.00000  Uiso   1.00
C242   C     0.86246   0.57162   0.02144   0.00000  Uiso   1.00
C243   C     0.96689   0.52160   0.94535   0.00000  Uiso   1.00
C244   C     0.68701   0.53627   0.06337   0.00000  Uiso   1.00
C245   C     0.66283   0.53864   0.14660   0.00000  Uiso   1.00
C246   C     0.64439   0.49419   0.18245   0.00000  Uiso   1.00
C247   C     0.62367   0.50490   0.25893   0.00000  Uiso   1.00
C248   C     0.64280   0.59374   0.04942   0.00000  Uiso   1.00
C249   C     0.60752   0.59563   0.00355   0.00000  Uiso   1.00
C250   C     0.56995   0.65271   0.99821   0.00000  Uiso   1.00
C251   C     0.75265   0.54362   0.04347   0.00000  Uiso   1.00
C252   C     0.80973   0.50338   0.99258   0.00000  Uiso   1.00
C253   C     0.86464   0.51828   0.98221   0.00000  Uiso   1.00
H254   H     0.68131   0.67576   0.16594   0.00000  Uiso   1.00
H255   H     0.63828   0.64387   0.29249   0.00000  Uiso   1.00
H256   H     0.60143   0.74529   0.11361   0.00000  Uiso   1.00
H257   H     0.80360   0.65305   0.10265   0.00000  Uiso   1.00
H258   H     0.59150   0.58504   0.41553   0.00000  Uiso   1.00
H259   H     0.51382   0.79888   0.03833   0.00000  Uiso   1.00
H260   H     0.94015   0.60439   0.01521   0.00000  Uiso   1.00
H261   H     0.68870   0.49482   0.03288   0.00000  Uiso   1.00
H262   H     0.64607   0.45299   0.15213   0.00000  Uiso   1.00
H263   H     0.60922   0.55441   0.97325   0.00000  Uiso   1.00
H264   H     0.81140   0.46218   0.96229   0.00000  Uiso   1.00
H265   H     0.59783   0.43012   0.30160   0.00000  Uiso   1.00
H266   H     0.52015   0.64396   0.92440   0.00000  Uiso   1.00
H267   H     0.94647   0.44946   0.90128   0.00000  Uiso   1.00
O268   O     0.56647   0.48334   0.43941   0.00000  Uiso   1.00
O269   O     0.46456   0.76389   0.94454   0.00000  Uiso   1.00
O270   O     0.02389   0.50872   0.91421   0.00000  Uiso   1.00
N271   N     0.59886   0.55431   0.37235   0.00000  Uiso   1.00
N272   N     0.52622   0.75424   0.01970   0.00000  Uiso   1.00
N273   N     0.92479   0.57241   0.99807   0.00000  Uiso   1.00
N274   N     0.60226   0.47095   0.31105   0.00000  Uiso   1.00
N275   N     0.52962   0.67088   0.95840   0.00000  Uiso   1.00
N276   N     0.92820   0.48905   0.93677   0.00000  Uiso   1.00
C277   C     0.90508   0.55573   0.22665   0.00000  Uiso   1.00
C278   C     0.97329   0.55037   0.17986   0.00000  Uiso   1.00
C279   C     0.00316   0.52760   0.10486   0.00000  Uiso   1.00
C280   C     0.06573   0.52653   0.07215   0.00000  Uiso   1.00
C281   C     0.16684   0.51505   0.99326   0.00000  Uiso   1.00
C282   C     0.87062   0.62253   0.26250   0.00000  Uiso   1.00
C283   C     0.81416   0.66043   0.25699   0.00000  Uiso   1.00
C284   C     0.79030   0.72009   0.29385   0.00000  Uiso   1.00
C285   C     0.73198   0.82063   0.34330   0.00000  Uiso   1.00
C286   C     0.91109   0.52072   0.28918   0.00000  Uiso   1.00
C287   C     0.88864   0.47303   0.30612   0.00000  Uiso   1.00
C288   C     0.89883   0.44700   0.36546   0.00000  Uiso   1.00
C289   C     0.90335   0.38947   0.45634   0.00000  Uiso   1.00
C290   C     0.96310   0.59431   0.30191   0.00000  Uiso   1.00
C291   C     0.00480   0.57133   0.22074   0.00000  Uiso   1.00
C292   C     0.06735   0.57029   0.18813   0.00000  Uiso   1.00
C293   C     0.09730   0.54752   0.11310   0.00000  Uiso   1.00
C294   C     0.90213   0.64349   0.30337   0.00000  Uiso   1.00
C295   C     0.87835   0.70311   0.34025   0.00000  Uiso   1.00
C296   C     0.82187   0.74109   0.33480   0.00000  Uiso   1.00
C297   C     0.94260   0.54168   0.33006   0.00000  Uiso   1.00
C298   C     0.95283   0.51572   0.38938   0.00000  Uiso   1.00
C299   C     0.93040   0.46799   0.40641   0.00000  Uiso   1.00
H300   H     0.88055   0.53941   0.19483   0.00000  Uiso   1.00
H301   H     0.97875   0.51139   0.07325   0.00000  Uiso   1.00
H302   H     0.78978   0.64419   0.22536   0.00000  Uiso   1.00
H303   H     0.86425   0.45683   0.27448   0.00000  Uiso   1.00
H304   H     0.10152   0.48959   0.95647   0.00000  Uiso   1.00
H305   H     0.70305   0.76960   0.27722   0.00000  Uiso   1.00
H306   H     0.86009   0.37450   0.38080   0.00000  Uiso   1.00
H307   H     0.98763   0.61063   0.33374   0.00000  Uiso   1.00
H308   H     0.09172   0.58651   0.21978   0.00000  Uiso   1.00
H309   H     0.90275   0.71931   0.37189   0.00000  Uiso   1.00
H310   H     0.97722   0.53194   0.42101   0.00000  Uiso   1.00
H311   H     0.19321   0.55056   0.07540   0.00000  Uiso   1.00
H312   H     0.79474   0.83057   0.39615   0.00000  Uiso   1.00
H313   H     0.95178   0.43547   0.49973   0.00000  Uiso   1.00
O314   O     0.21390   0.50294   0.93846   0.00000  Uiso   1.00
O315   O     0.69111   0.87030   0.35928   0.00000  Uiso   1.00
O316   O     0.89714   0.35194   0.49517   0.00000  Uiso   1.00
N317   N     0.10882   0.50723   0.00010   0.00000  Uiso   1.00
N318   N     0.73628   0.76903   0.29998   0.00000  Uiso   1.00
N319   N     0.88308   0.39966   0.39683   0.00000  Uiso   1.00
N320   N     0.15816   0.54004   0.06410   0.00000  Uiso   1.00
N321   N     0.78562   0.80184   0.36397   0.00000  Uiso   1.00
N322   N     0.93242   0.43247   0.46082   0.00000  Uiso   1.00
C323   C     0.34670   0.82212   0.59478   0.00000  Uiso   1.00
C324   C     0.30372   0.88871   0.62142   0.00000  Uiso   1.00
C325   C     0.24210   0.91372   0.62017   0.00000  Uiso   1.00
C326   C     0.21068   0.97558   0.64704   0.00000  Uiso   1.00
C327   C     0.13949   0.07356   0.68431   0.00000  Uiso   1.00
C328   C     0.36450   0.80035   0.66007   0.00000  Uiso   1.00
C329   C     0.35399   0.75106   0.69132   0.00000  Uiso   1.00
C330   C     0.37374   0.73854   0.75072   0.00000  Uiso   1.00
C331   C     0.39695   0.69932   0.84797   0.00000  Uiso   1.00
C332   C     0.40875   0.82213   0.53707   0.00000  Uiso   1.00
C333   C     0.43546   0.79113   0.46490   0.00000  Uiso   1.00
C334   C     0.49248   0.79693   0.42075   0.00000  Uiso   1.00
C335   C     0.58439   0.79152   0.32702   0.00000  Uiso   1.00
C336   C     0.40049   0.88753   0.64470   0.00000  Uiso   1.00
C337   C     0.33294   0.92424   0.64853   0.00000  Uiso   1.00
C338   C     0.30161   0.98608   0.67541   0.00000  Uiso   1.00
C339   C     0.23995   0.01117   0.67421   0.00000  Uiso   1.00
C340   C     0.39371   0.83588   0.68719   0.00000  Uiso   1.00
C341   C     0.41349   0.82342   0.74655   0.00000  Uiso   1.00
C342   C     0.40301   0.77413   0.77789   0.00000  Uiso   1.00
C343   C     0.43797   0.85766   0.56418   0.00000  Uiso   1.00
C344   C     0.49496   0.86350   0.52014   0.00000  Uiso   1.00
C345   C     0.52175   0.83252   0.44792   0.00000  Uiso   1.00
H346   H     0.32396   0.79446   0.57367   0.00000  Uiso   1.00
H347   H     0.21950   0.88621   0.59919   0.00000  Uiso   1.00
H348   H     0.33138   0.72357   0.67032   0.00000  Uiso   1.00
H349   H     0.41284   0.76364   0.44394   0.00000  Uiso   1.00
H350   H     0.11657   0.00358   0.63947   0.00000  Uiso   1.00
H351   H     0.35249   0.66065   0.78943   0.00000  Uiso   1.00
H352   H     0.52425   0.74514   0.31206   0.00000  Uiso   1.00
H353   H     0.42324   0.91519   0.66581   0.00000  Uiso   1.00
H354   H     0.32423   0.01356   0.69639   0.00000  Uiso   1.00
H355   H     0.43610   0.85093   0.76752   0.00000  Uiso   1.00
H356   H     0.51756   0.89100   0.54114   0.00000  Uiso   1.00
H357   H     0.20157   0.10695   0.71836   0.00000  Uiso   1.00
H358   H     0.43749   0.76401   0.86832   0.00000  Uiso   1.00
H359   H     0.60925   0.84851   0.39096   0.00000  Uiso   1.00
O360   O     0.09214   0.11779   0.69739   0.00000  Uiso   1.00
O361   O     0.40167   0.66787   0.89412   0.00000  Uiso   1.00
O362   O     0.62701   0.77873   0.26783   0.00000  Uiso   1.00
N363   N     0.15017   0.01441   0.65383   0.00000  Uiso   1.00
N364   N     0.37073   0.69379   0.79404   0.00000  Uiso   1.00
N365   N     0.53132   0.77278   0.34775   0.00000  Uiso   1.00
N366   N     0.19591   0.07003   0.69628   0.00000  Uiso   1.00
N367   N     0.41646   0.74941   0.83649   0.00000  Uiso   1.00
N368   N     0.57706   0.82840   0.39020   0.00000  Uiso   1.00
C369   C     0.73742   0.28921   0.78321   0.00000  Uiso   1.00
C370   C     0.76728   0.23683   0.81798   0.00000  Uiso   1.00
C371   C     0.78044   0.17558   0.79449   0.00000  Uiso   1.00
C372   C     0.80783   0.13470   0.83363   0.00000  Uiso   1.00
C373   C     0.85214   0.05037   0.87840   0.00000  Uiso   1.00
C374   C     0.78452   0.32368   0.76295   0.00000  Uiso   1.00
C375   C     0.81216   0.33544   0.69319   0.00000  Uiso   1.00
C376   C     0.85405   0.36769   0.68602   0.00000  Uiso   1.00
C377   C     0.92508   0.41821   0.64536   0.00000  Uiso   1.00
C378   C     0.67778   0.33204   0.84497   0.00000  Uiso   1.00
C379   C     0.61566   0.35085   0.84417   0.00000  Uiso   1.00
C380   C     0.56769   0.39015   0.90605   0.00000  Uiso   1.00
C381   C     0.47299   0.45366   0.99274   0.00000  Uiso   1.00
C382   C     0.76268   0.32557   0.89451   0.00000  Uiso   1.00
C383   C     0.78100   0.25658   0.87843   0.00000  Uiso   1.00
C384   C     0.80838   0.21579   0.91763   0.00000  Uiso   1.00
C385   C     0.82157   0.15448   0.89420   0.00000  Uiso   1.00
C386   C     0.79824   0.34342   0.82340   0.00000  Uiso   1.00
C387   C     0.84010   0.37566   0.81633   0.00000  Uiso   1.00
C388   C     0.86779   0.38747   0.74658   0.00000  Uiso   1.00
C389   C     0.69149   0.35179   0.90543   0.00000  Uiso   1.00
C390   C     0.64361   0.39106   0.96731   0.00000  Uiso   1.00
C391   C     0.58143   0.40993   0.96661   0.00000  Uiso   1.00
H392   H     0.72675   0.27385   0.73614   0.00000  Uiso   1.00
H393   H     0.76982   0.16031   0.74770   0.00000  Uiso   1.00
H394   H     0.80153   0.32016   0.64642   0.00000  Uiso   1.00
H395   H     0.60507   0.33556   0.79738   0.00000  Uiso   1.00
H396   H     0.82365   0.04315   0.78715   0.00000  Uiso   1.00
H397   H     0.89049   0.38022   0.57361   0.00000  Uiso   1.00
H398   H     0.47621   0.41270   0.89193   0.00000  Uiso   1.00
H399   H     0.77336   0.34094   0.94158   0.00000  Uiso   1.00
H400   H     0.81899   0.23108   0.96441   0.00000  Uiso   1.00
H401   H     0.85070   0.39093   0.86313   0.00000  Uiso   1.00
H402   H     0.65424   0.40633   0.01408   0.00000  Uiso   1.00
H403   H     0.86356   0.10059   0.96304   0.00000  Uiso   1.00
H404   H     0.93039   0.43766   0.74949   0.00000  Uiso   1.00
H405   H     0.51612   0.47014   0.06782   0.00000  Uiso   1.00
O406   O     0.87280   0.99839   0.88639   0.00000  Uiso   1.00
O407   O     0.96048   0.44062   0.60623   0.00000  Uiso   1.00
O408   O     0.41696   0.48323   0.02386   0.00000  Uiso   1.00
N409   N     0.82677   0.07174   0.82542   0.00000  Uiso   1.00
N410   N     0.88926   0.38687   0.62577   0.00000  Uiso   1.00
N411   N     0.50195   0.41725   0.92336   0.00000  Uiso   1.00
N412   N     0.84824   0.10265   0.92007   0.00000  Uiso   1.00
N413   N     0.91074   0.41778   0.72041   0.00000  Uiso   1.00
N414   N     0.52343   0.44816   0.01801   0.00000  Uiso   1.00
C415   C     0.29964   0.80950   0.18155   0.00000  Uiso   1.00
C416   C     0.35275   0.75165   0.18023   0.00000  Uiso   1.00
C417   C     0.35647   0.69259   0.15924   0.00000  Uiso   1.00
C418   C     0.40885   0.64585   0.16187   0.00000  Uiso   1.00
C419   C     0.48416   0.55421   0.15639   0.00000  Uiso   1.00
C420   C     0.27230   0.84483   0.26008   0.00000  Uiso   1.00
C421   C     0.20837   0.86412   0.30622   0.00000  Uiso   1.00
C422   C     0.19303   0.89581   0.37607   0.00000  Uiso   1.00
C423   C     0.14343   0.94887   0.49453   0.00000  Uiso   1.00
C424   C     0.33309   0.84710   0.13313   0.00000  Uiso   1.00
C425   C     0.32026   0.86831   0.07253   0.00000  Uiso   1.00
C426   C     0.35609   0.90193   0.03550   0.00000  Uiso   1.00
C427   C     0.40087   0.95851   0.95685   0.00000  Uiso   1.00
C428   C     0.38605   0.83151   0.22355   0.00000  Uiso   1.00
C429   C     0.39969   0.76361   0.20305   0.00000  Uiso   1.00
C430   C     0.45208   0.71695   0.20570   0.00000  Uiso   1.00
C431   C     0.45587   0.65782   0.18472   0.00000  Uiso   1.00
C432   C     0.31923   0.85679   0.28289   0.00000  Uiso   1.00
C433   C     0.30398   0.88847   0.35269   0.00000  Uiso   1.00
C434   C     0.24005   0.90779   0.39892   0.00000  Uiso   1.00
C435   C     0.38003   0.85906   0.15594   0.00000  Uiso   1.00
C436   C     0.41587   0.89266   0.11899   0.00000  Uiso   1.00
C437   C     0.40311   0.91391   0.05835   0.00000  Uiso   1.00
H438   H     0.26309   0.80019   0.16379   0.00000  Uiso   1.00
H439   H     0.32013   0.68336   0.14160   0.00000  Uiso   1.00
H440   H     0.17206   0.85486   0.28855   0.00000  Uiso   1.00
H441   H     0.28393   0.85905   0.05489   0.00000  Uiso   1.00
H442   H     0.40405   0.55910   0.12707   0.00000  Uiso   1.00
H443   H     0.09183   0.92074   0.43692   0.00000  Uiso   1.00
H444   H     0.32774   0.92957   0.94421   0.00000  Uiso   1.00
H445   H     0.42260   0.84082   0.24131   0.00000  Uiso   1.00
H446   H     0.48839   0.72621   0.22336   0.00000  Uiso   1.00
H447   H     0.34032   0.89772   0.37032   0.00000  Uiso   1.00
H448   H     0.45219   0.90190   0.13666   0.00000  Uiso   1.00
H449   H     0.54062   0.59388   0.19344   0.00000  Uiso   1.00
H450   H     0.22839   0.95552   0.50329   0.00000  Uiso   1.00
H451   H     0.46431   0.96435   0.01058   0.00000  Uiso   1.00
O452   O     0.51272   0.50036   0.14707   0.00000  Uiso   1.00
O453   O     0.10310   0.97483   0.55358   0.00000  Uiso   1.00
O454   O     0.41261   0.98641   0.90716   0.00000  Uiso   1.00
N455   N     0.42717   0.58301   0.14514   0.00000  Uiso   1.00
N456   N     0.13526   0.92111   0.43484   0.00000  Uiso   1.00
N457   N     0.35581   0.92939   0.97421   0.00000  Uiso   1.00
N458   N     0.50065   0.60173   0.18085   0.00000  Uiso   1.00
N459   N     0.20875   0.93983   0.47055   0.00000  Uiso   1.00
N460   N     0.42929   0.94810   0.00992   0.00000  Uiso   1.00
C461   C     0.91387   0.06175   0.35881   0.00000  Uiso   1.00
C462   C     0.84293   0.08493   0.40732   0.00000  Uiso   1.00
C463   C     0.79173   0.09640   0.38242   0.00000  Uiso   1.00
C464   C     0.73043   0.11743   0.43558   0.00000  Uiso   1.00
C465   C     0.62176   0.15205   0.49946   0.00000  Uiso   1.00
C466   C     0.94171   0.10822   0.37979   0.00000  Uiso   1.00
C467   C     0.97358   0.13927   0.33172   0.00000  Uiso   1.00
C468   C     0.99544   0.17990   0.36171   0.00000  Uiso   1.00
C469   C     0.04017   0.25065   0.38282   0.00000  Uiso   1.00
C470   C     0.94474   0.00372   0.38436   0.00000  Uiso   1.00
C471   C     0.97917   0.94689   0.34014   0.00000  Uiso   1.00
C472   C     0.00359   0.89954   0.37397   0.00000  Uiso   1.00
C473   C     0.05302   0.80803   0.40218   0.00000  Uiso   1.00
C474   C     0.89604   0.07870   0.49752   0.00000  Uiso   1.00
C475   C     0.83325   0.09414   0.48267   0.00000  Uiso   1.00
C476   C     0.77201   0.11515   0.53588   0.00000  Uiso   1.00
C477   C     0.72073   0.12665   0.51106   0.00000  Uiso   1.00
C478   C     0.93203   0.11743   0.45513   0.00000  Uiso   1.00
C479   C     0.95386   0.15802   0.48519   0.00000  Uiso   1.00
C480   C     0.98574   0.18912   0.43719   0.00000  Uiso   1.00
C481   C     0.93506   0.01292   0.45970   0.00000  Uiso   1.00
C482   C     0.95944   0.96565   0.49361   0.00000  Uiso   1.00
C483   C     0.99389   0.90877   0.44945   0.00000  Uiso   1.00
H484   H     0.92141   0.05458   0.30015   0.00000  Uiso   1.00
H485   H     0.79925   0.08927   0.32410   0.00000  Uiso   1.00
H486   H     0.98107   0.13213   0.27342   0.00000  Uiso   1.00
H487   H     0.98665   0.93979   0.28184   0.00000  Uiso   1.00
H488   H     0.65954   0.13181   0.38389   0.00000  Uiso   1.00
H489   H     0.04294   0.22216   0.27701   0.00000  Uiso   1.00
H490   H     0.05471   0.81657   0.29476   0.00000  Uiso   1.00
H491   H     0.88851   0.08587   0.55618   0.00000  Uiso   1.00
H492   H     0.76453   0.12227   0.59418   0.00000  Uiso   1.00
H493   H     0.94636   0.16513   0.54350   0.00000  Uiso   1.00
H494   H     0.95194   0.97279   0.55191   0.00000  Uiso   1.00
H495   H     0.63136   0.15860   0.60310   0.00000  Uiso   1.00
H496   H     0.01477   0.24895   0.49622   0.00000  Uiso   1.00
H497   H     0.02653   0.84336   0.51396   0.00000  Uiso   1.00
O498   O     0.56449   0.16861   0.51387   0.00000  Uiso   1.00
O499   O     0.06751   0.28714   0.37365   0.00000  Uiso   1.00
O500   O     0.08295   0.75501   0.39693   0.00000  Uiso   1.00
N501   N     0.66992   0.13311   0.43026   0.00000  Uiso   1.00
N502   N     0.02837   0.21759   0.33034   0.00000  Uiso   1.00
N503   N     0.03939   0.83840   0.34693   0.00000  Uiso   1.00
N504   N     0.65476   0.14753   0.54822   0.00000  Uiso   1.00
N505   N     0.01321   0.23200   0.44830   0.00000  Uiso   1.00
N506   N     0.02423   0.85281   0.46488   0.00000  Uiso   1.00
C507   C     0.25794   0.23152   0.86816   0.00000  Uiso   1.00
C508   C     0.27582   0.27484   0.81654   0.00000  Uiso   1.00
C509   C     0.28209   0.26923   0.74274   0.00000  Uiso   1.00
C510   C     0.29880   0.31357   0.70498   0.00000  Uiso   1.00
C511   C     0.32507   0.37348   0.61952   0.00000  Uiso   1.00
C512   C     0.31200   0.20995   0.89867   0.00000  Uiso   1.00
C513   C     0.34868   0.14978   0.89393   0.00000  Uiso   1.00
C514   C     0.39585   0.13950   0.92531   0.00000  Uiso   1.00
C515   C     0.47825   0.09867   0.96740   0.00000  Uiso   1.00
C516   C     0.19869   0.27057   0.93325   0.00000  Uiso   1.00
C517   C     0.14011   0.26137   0.95761   0.00000  Uiso   1.00
C518   C     0.09187   0.30211   0.01812   0.00000  Uiso   1.00
C519   C     0.99836   0.35540   0.11390   0.00000  Uiso   1.00
C520   C     0.27646   0.32023   0.93234   0.00000  Uiso   1.00
C521   C     0.28588   0.32302   0.85140   0.00000  Uiso   1.00
C522   C     0.30258   0.36738   0.81375   0.00000  Uiso   1.00
C523   C     0.30888   0.36184   0.73990   0.00000  Uiso   1.00
C524   C     0.32206   0.25813   0.93353   0.00000  Uiso   1.00
C525   C     0.36918   0.24793   0.96493   0.00000  Uiso   1.00
C526   C     0.40593   0.18777   0.96023   0.00000  Uiso   1.00
C527   C     0.20875   0.31875   0.96811   0.00000  Uiso   1.00
C528   C     0.16060   0.35952   0.02860   0.00000  Uiso   1.00
C529   C     0.10196   0.35038   0.05304   0.00000  Uiso   1.00
H530   H     0.25011   0.19400   0.84103   0.00000  Uiso   1.00
H531   H     0.27430   0.23193   0.71579   0.00000  Uiso   1.00
H532   H     0.34088   0.11250   0.86696   0.00000  Uiso   1.00
H533   H     0.13234   0.22407   0.93062   0.00000  Uiso   1.00
H534   H     0.30559   0.29521   0.59230   0.00000  Uiso   1.00
H535   H     0.44596   0.04340   0.91107   0.00000  Uiso   1.00
H536   H     0.00621   0.27866   0.04531   0.00000  Uiso   1.00
H537   H     0.28430   0.35775   0.95948   0.00000  Uiso   1.00
H538   H     0.31037   0.40466   0.84073   0.00000  Uiso   1.00
H539   H     0.37695   0.28523   0.99190   0.00000  Uiso   1.00
H540   H     0.16841   0.39680   0.05556   0.00000  Uiso   1.00
H541   H     0.33487   0.43541   0.69371   0.00000  Uiso   1.00
H542   H     0.47524   0.18359   0.01248   0.00000  Uiso   1.00
H543   H     0.03548   0.41885   0.14673   0.00000  Uiso   1.00
O544   O     0.33678   0.39321   0.56274   0.00000  Uiso   1.00
O545   O     0.52094   0.06284   0.98097   0.00000  Uiso   1.00
O546   O     0.94399   0.37149   0.15709   0.00000  Uiso   1.00
N547   N     0.30889   0.32178   0.63246   0.00000  Uiso   1.00
N548   N     0.44014   0.08635   0.93048   0.00000  Uiso   1.00
N549   N     0.02901   0.30628   0.05601   0.00000  Uiso   1.00
N550   N     0.32464   0.39722   0.68703   0.00000  Uiso   1.00
N551   N     0.45589   0.16178   0.98505   0.00000  Uiso   1.00
N552   N     0.04476   0.38172   0.11057   0.00000  Uiso   1.00
