data_job_02485
_audit_creation_date              2018-12-19
_audit_creation_method            'Materials Studio'
_symmetry_space_group_name_H-M    'P1'
_symmetry_Int_Tables_number       1
_symmetry_cell_setting            triclinic
loop_
_symmetry_equiv_pos_as_xyz
  x,y,z
_cell_length_a                    13.3246
_cell_length_b                    13.3246
_cell_length_c                    25.3154
_cell_angle_alpha                 90.0000
_cell_angle_beta                  90.0000
_cell_angle_gamma                 90.0000
loop_
_atom_site_label
_atom_site_type_symbol
_atom_site_fract_x
_atom_site_fract_y
_atom_site_fract_z
_atom_site_U_iso_or_equiv
_atom_site_adp_type
_atom_site_occupancy
C1     C     0.28722   0.48086   0.62621   0.00000  Uiso   1.00
C2     C     0.27948   0.52786   0.57144   0.00000  Uiso   1.00
C3     C     0.25031   0.47856   0.52565   0.00000  Uiso   1.00
C4     C     0.24807   0.53476   0.47949   0.00000  Uiso   1.00
C5     C     0.23215   0.59223   0.39448   0.00000  Uiso   1.00
C6     C     0.39458   0.49926   0.64468   0.00000  Uiso   1.00
C7     C     0.46218   0.42593   0.66049   0.00000  Uiso   1.00
C8     C     0.55682   0.45807   0.67598   0.00000  Uiso   1.00
C9     C     0.71958   0.47115   0.70473   0.00000  Uiso   1.00
C10    C     0.22042   0.54394   0.66212   0.00000  Uiso   1.00
C11    C     0.14158   0.50818   0.69260   0.00000  Uiso   1.00
C12    C     0.08960   0.57793   0.72280   0.00000  Uiso   1.00
C13    C     0.98193   0.66039   0.77862   0.00000  Uiso   1.00
C14    C     0.33511   0.66834   0.62564   0.00000  Uiso   1.00
C15    C     0.30550   0.62968   0.57113   0.00000  Uiso   1.00
C16    C     0.30330   0.68598   0.52502   0.00000  Uiso   1.00
C17    C     0.27412   0.63678   0.47917   0.00000  Uiso   1.00
C18    C     0.42060   0.60109   0.64437   0.00000  Uiso   1.00
C19    C     0.51516   0.63335   0.65985   0.00000  Uiso   1.00
C20    C     0.58289   0.56008   0.67567   0.00000  Uiso   1.00
C21    C     0.24643   0.64578   0.66181   0.00000  Uiso   1.00
C22    C     0.19457   0.71560   0.69197   0.00000  Uiso   1.00
C23    C     0.11567   0.67995   0.72249   0.00000  Uiso   1.00
H24    H     0.26697   0.40158   0.62645   0.00000  Uiso   1.00
H25    H     0.23019   0.39975   0.52591   0.00000  Uiso   1.00
H26    H     0.44202   0.34713   0.66073   0.00000  Uiso   1.00
H27    H     0.12147   0.42937   0.69283   0.00000  Uiso   1.00
H28    H     0.20092   0.44262   0.41429   0.00000  Uiso   1.00
H29    H     0.64757   0.33167   0.69858   0.00000  Uiso   1.00
H30    H     0.97163   0.50508   0.76629   0.00000  Uiso   1.00
H31    H     0.35537   0.74762   0.62540   0.00000  Uiso   1.00
H32    H     0.32343   0.76478   0.52479   0.00000  Uiso   1.00
H33    H     0.53527   0.71216   0.65961   0.00000  Uiso   1.00
H34    H     0.21472   0.79439   0.69172   0.00000  Uiso   1.00
H35    H     0.27661   0.73889   0.41339   0.00000  Uiso   1.00
H36    H     0.72325   0.62793   0.69768   0.00000  Uiso   1.00
H37    H     0.04731   0.80135   0.76538   0.00000  Uiso   1.00
O38    O     0.21620   0.59579   0.34767   0.00000  Uiso   1.00
O39    O     0.80217   0.45023   0.72066   0.00000  Uiso   1.00
O40    O     0.91535   0.67774   0.80949   0.00000  Uiso   1.00
N41    N     0.22310   0.51000   0.42789   0.00000  Uiso   1.00
N42    N     0.64069   0.40626   0.69368   0.00000  Uiso   1.00
N43    N     0.00876   0.56838   0.75699   0.00000  Uiso   1.00
N44    N     0.26382   0.66942   0.42740   0.00000  Uiso   1.00
N45    N     0.68141   0.56568   0.69319   0.00000  Uiso   1.00
N46    N     0.04948   0.72780   0.75650   0.00000  Uiso   1.00
C47    C     0.71278   0.51914   0.12621   0.00000  Uiso   1.00
C48    C     0.72052   0.47214   0.07144   0.00000  Uiso   1.00
C49    C     0.74969   0.52144   0.02565   0.00000  Uiso   1.00
C50    C     0.75193   0.46524   0.97949   0.00000  Uiso   1.00
C51    C     0.76785   0.40777   0.89448   0.00000  Uiso   1.00
C52    C     0.60542   0.50074   0.14468   0.00000  Uiso   1.00
C53    C     0.53782   0.57407   0.16049   0.00000  Uiso   1.00
C54    C     0.44318   0.54193   0.17598   0.00000  Uiso   1.00
C55    C     0.28042   0.52885   0.20473   0.00000  Uiso   1.00
C56    C     0.77958   0.45606   0.16212   0.00000  Uiso   1.00
C57    C     0.85842   0.49182   0.19260   0.00000  Uiso   1.00
C58    C     0.91040   0.42207   0.22280   0.00000  Uiso   1.00
C59    C     0.01807   0.33961   0.27862   0.00000  Uiso   1.00
C60    C     0.66489   0.33166   0.12564   0.00000  Uiso   1.00
C61    C     0.69450   0.37032   0.07113   0.00000  Uiso   1.00
C62    C     0.69670   0.31402   0.02502   0.00000  Uiso   1.00
C63    C     0.72588   0.36322   0.97917   0.00000  Uiso   1.00
C64    C     0.57940   0.39891   0.14437   0.00000  Uiso   1.00
C65    C     0.48484   0.36665   0.15985   0.00000  Uiso   1.00
C66    C     0.41711   0.43992   0.17567   0.00000  Uiso   1.00
C67    C     0.75357   0.35422   0.16181   0.00000  Uiso   1.00
C68    C     0.80543   0.28440   0.19197   0.00000  Uiso   1.00
C69    C     0.88433   0.32005   0.22249   0.00000  Uiso   1.00
H70    H     0.73303   0.59842   0.12645   0.00000  Uiso   1.00
H71    H     0.76981   0.60025   0.02591   0.00000  Uiso   1.00
H72    H     0.55798   0.65287   0.16073   0.00000  Uiso   1.00
H73    H     0.87853   0.57063   0.19283   0.00000  Uiso   1.00
H74    H     0.79908   0.55738   0.91429   0.00000  Uiso   1.00
H75    H     0.35243   0.66833   0.19858   0.00000  Uiso   1.00
H76    H     0.02837   0.49492   0.26629   0.00000  Uiso   1.00
H77    H     0.64463   0.25238   0.12540   0.00000  Uiso   1.00
H78    H     0.67657   0.23522   0.02479   0.00000  Uiso   1.00
H79    H     0.46473   0.28784   0.15961   0.00000  Uiso   1.00
H80    H     0.78528   0.20561   0.19172   0.00000  Uiso   1.00
H81    H     0.72339   0.26111   0.91339   0.00000  Uiso   1.00
H82    H     0.27675   0.37207   0.19768   0.00000  Uiso   1.00
H83    H     0.95269   0.19865   0.26538   0.00000  Uiso   1.00
O84    O     0.78380   0.40421   0.84767   0.00000  Uiso   1.00
O85    O     0.19783   0.54977   0.22066   0.00000  Uiso   1.00
O86    O     0.08465   0.32226   0.30949   0.00000  Uiso   1.00
N87    N     0.77690   0.49000   0.92789   0.00000  Uiso   1.00
N88    N     0.35931   0.59374   0.19368   0.00000  Uiso   1.00
N89    N     0.99124   0.43162   0.25699   0.00000  Uiso   1.00
N90    N     0.73618   0.33058   0.92740   0.00000  Uiso   1.00
N91    N     0.31859   0.43432   0.19319   0.00000  Uiso   1.00
N92    N     0.95052   0.27220   0.25650   0.00000  Uiso   1.00
C93    C     0.01914   0.78722   0.37621   0.00000  Uiso   1.00
C94    C     0.97214   0.77948   0.32144   0.00000  Uiso   1.00
C95    C     0.02144   0.75031   0.27565   0.00000  Uiso   1.00
C96    C     0.96524   0.74807   0.22949   0.00000  Uiso   1.00
C97    C     0.90777   0.73215   0.14448   0.00000  Uiso   1.00
C98    C     0.00074   0.89458   0.39468   0.00000  Uiso   1.00
C99    C     0.07407   0.96218   0.41049   0.00000  Uiso   1.00
C100   C     0.04193   0.05682   0.42598   0.00000  Uiso   1.00
C101   C     0.02885   0.21958   0.45473   0.00000  Uiso   1.00
C102   C     0.95606   0.72042   0.41212   0.00000  Uiso   1.00
C103   C     0.99182   0.64158   0.44260   0.00000  Uiso   1.00
C104   C     0.92207   0.58960   0.47280   0.00000  Uiso   1.00
C105   C     0.83961   0.48193   0.52862   0.00000  Uiso   1.00
C106   C     0.83166   0.83511   0.37564   0.00000  Uiso   1.00
C107   C     0.87032   0.80550   0.32113   0.00000  Uiso   1.00
C108   C     0.81402   0.80330   0.27502   0.00000  Uiso   1.00
C109   C     0.86322   0.77412   0.22917   0.00000  Uiso   1.00
C110   C     0.89891   0.92060   0.39437   0.00000  Uiso   1.00
C111   C     0.86665   0.01516   0.40985   0.00000  Uiso   1.00
C112   C     0.93992   0.08289   0.42567   0.00000  Uiso   1.00
C113   C     0.85422   0.74643   0.41181   0.00000  Uiso   1.00
C114   C     0.78440   0.69457   0.44197   0.00000  Uiso   1.00
C115   C     0.82005   0.61567   0.47249   0.00000  Uiso   1.00
H116   H     0.09842   0.76697   0.37645   0.00000  Uiso   1.00
H117   H     0.10025   0.73019   0.27591   0.00000  Uiso   1.00
H118   H     0.15287   0.94202   0.41073   0.00000  Uiso   1.00
H119   H     0.07063   0.62147   0.44283   0.00000  Uiso   1.00
H120   H     0.05738   0.70092   0.16429   0.00000  Uiso   1.00
H121   H     0.16833   0.14757   0.44858   0.00000  Uiso   1.00
H122   H     0.99492   0.47163   0.51629   0.00000  Uiso   1.00
H123   H     0.75238   0.85537   0.37540   0.00000  Uiso   1.00
H124   H     0.73522   0.82343   0.27479   0.00000  Uiso   1.00
H125   H     0.78784   0.03527   0.40961   0.00000  Uiso   1.00
H126   H     0.70561   0.71472   0.44172   0.00000  Uiso   1.00
H127   H     0.76111   0.77661   0.16339   0.00000  Uiso   1.00
H128   H     0.87207   0.22325   0.44768   0.00000  Uiso   1.00
H129   H     0.69865   0.54731   0.51538   0.00000  Uiso   1.00
O130   O     0.90421   0.71620   0.09767   0.00000  Uiso   1.00
O131   O     0.04977   0.30217   0.47066   0.00000  Uiso   1.00
O132   O     0.82226   0.41535   0.55949   0.00000  Uiso   1.00
N133   N     0.99000   0.72310   0.17789   0.00000  Uiso   1.00
N134   N     0.09374   0.14069   0.44368   0.00000  Uiso   1.00
N135   N     0.93162   0.50876   0.50699   0.00000  Uiso   1.00
N136   N     0.83058   0.76382   0.17740   0.00000  Uiso   1.00
N137   N     0.93432   0.18141   0.44319   0.00000  Uiso   1.00
N138   N     0.77220   0.54948   0.50650   0.00000  Uiso   1.00
C139   C     0.98086   0.21278   0.87621   0.00000  Uiso   1.00
C140   C     0.02786   0.22052   0.82144   0.00000  Uiso   1.00
C141   C     0.97856   0.24969   0.77565   0.00000  Uiso   1.00
C142   C     0.03476   0.25193   0.72949   0.00000  Uiso   1.00
C143   C     0.09223   0.26785   0.64448   0.00000  Uiso   1.00
C144   C     0.99926   0.10542   0.89468   0.00000  Uiso   1.00
C145   C     0.92593   0.03782   0.91049   0.00000  Uiso   1.00
C146   C     0.95807   0.94318   0.92598   0.00000  Uiso   1.00
C147   C     0.97115   0.78042   0.95473   0.00000  Uiso   1.00
C148   C     0.04394   0.27958   0.91212   0.00000  Uiso   1.00
C149   C     0.00818   0.35842   0.94260   0.00000  Uiso   1.00
C150   C     0.07793   0.41040   0.97280   0.00000  Uiso   1.00
C151   C     0.16039   0.51807   0.02862   0.00000  Uiso   1.00
C152   C     0.16834   0.16489   0.87564   0.00000  Uiso   1.00
C153   C     0.12968   0.19450   0.82113   0.00000  Uiso   1.00
C154   C     0.18598   0.19670   0.77502   0.00000  Uiso   1.00
C155   C     0.13678   0.22588   0.72917   0.00000  Uiso   1.00
C156   C     0.10109   0.07940   0.89437   0.00000  Uiso   1.00
C157   C     0.13335   0.98484   0.90985   0.00000  Uiso   1.00
C158   C     0.06008   0.91711   0.92567   0.00000  Uiso   1.00
C159   C     0.14578   0.25357   0.91181   0.00000  Uiso   1.00
C160   C     0.21560   0.30543   0.94197   0.00000  Uiso   1.00
C161   C     0.17995   0.38433   0.97249   0.00000  Uiso   1.00
H162   H     0.90158   0.23303   0.87645   0.00000  Uiso   1.00
H163   H     0.89975   0.26981   0.77591   0.00000  Uiso   1.00
H164   H     0.84713   0.05798   0.91073   0.00000  Uiso   1.00
H165   H     0.92937   0.37853   0.94283   0.00000  Uiso   1.00
H166   H     0.94262   0.29908   0.66429   0.00000  Uiso   1.00
H167   H     0.83167   0.85243   0.94858   0.00000  Uiso   1.00
H168   H     0.00508   0.52837   0.01629   0.00000  Uiso   1.00
H169   H     0.24762   0.14463   0.87540   0.00000  Uiso   1.00
H170   H     0.26478   0.17657   0.77479   0.00000  Uiso   1.00
H171   H     0.21216   0.96473   0.90961   0.00000  Uiso   1.00
H172   H     0.29439   0.28528   0.94172   0.00000  Uiso   1.00
H173   H     0.23889   0.22339   0.66339   0.00000  Uiso   1.00
H174   H     0.12793   0.77675   0.94768   0.00000  Uiso   1.00
H175   H     0.30135   0.45269   0.01538   0.00000  Uiso   1.00
O176   O     0.09579   0.28380   0.59767   0.00000  Uiso   1.00
O177   O     0.95023   0.69783   0.97066   0.00000  Uiso   1.00
O178   O     0.17774   0.58465   0.05949   0.00000  Uiso   1.00
N179   N     0.01000   0.27690   0.67789   0.00000  Uiso   1.00
N180   N     0.90626   0.85931   0.94368   0.00000  Uiso   1.00
N181   N     0.06838   0.49124   0.00699   0.00000  Uiso   1.00
N182   N     0.16942   0.23618   0.67740   0.00000  Uiso   1.00
N183   N     0.06568   0.81859   0.94319   0.00000  Uiso   1.00
N184   N     0.22780   0.45052   0.00650   0.00000  Uiso   1.00
C185   C     0.21278   0.98086   0.12379   0.00000  Uiso   1.00
C186   C     0.22052   0.02786   0.17856   0.00000  Uiso   1.00
C187   C     0.24969   0.97856   0.22435   0.00000  Uiso   1.00
C188   C     0.25193   0.03476   0.27051   0.00000  Uiso   1.00
C189   C     0.26785   0.09223   0.35552   0.00000  Uiso   1.00
C190   C     0.10542   0.99926   0.10532   0.00000  Uiso   1.00
C191   C     0.03782   0.92593   0.08951   0.00000  Uiso   1.00
C192   C     0.94318   0.95807   0.07402   0.00000  Uiso   1.00
C193   C     0.78042   0.97115   0.04527   0.00000  Uiso   1.00
C194   C     0.27958   0.04394   0.08788   0.00000  Uiso   1.00
C195   C     0.35842   0.00818   0.05740   0.00000  Uiso   1.00
C196   C     0.41040   0.07793   0.02720   0.00000  Uiso   1.00
C197   C     0.51807   0.16039   0.97138   0.00000  Uiso   1.00
C198   C     0.16489   0.16834   0.12436   0.00000  Uiso   1.00
C199   C     0.19450   0.12968   0.17887   0.00000  Uiso   1.00
C200   C     0.19670   0.18598   0.22498   0.00000  Uiso   1.00
C201   C     0.22588   0.13678   0.27083   0.00000  Uiso   1.00
C202   C     0.07940   0.10109   0.10563   0.00000  Uiso   1.00
C203   C     0.98484   0.13335   0.09015   0.00000  Uiso   1.00
C204   C     0.91711   0.06008   0.07433   0.00000  Uiso   1.00
C205   C     0.25357   0.14578   0.08819   0.00000  Uiso   1.00
C206   C     0.30543   0.21560   0.05803   0.00000  Uiso   1.00
C207   C     0.38433   0.17995   0.02751   0.00000  Uiso   1.00
H208   H     0.23303   0.90158   0.12355   0.00000  Uiso   1.00
H209   H     0.26981   0.89975   0.22409   0.00000  Uiso   1.00
H210   H     0.05798   0.84713   0.08927   0.00000  Uiso   1.00
H211   H     0.37853   0.92937   0.05717   0.00000  Uiso   1.00
H212   H     0.29908   0.94262   0.33571   0.00000  Uiso   1.00
H213   H     0.85243   0.83167   0.05142   0.00000  Uiso   1.00
H214   H     0.52837   0.00508   0.98371   0.00000  Uiso   1.00
H215   H     0.14463   0.24762   0.12460   0.00000  Uiso   1.00
H216   H     0.17657   0.26478   0.22521   0.00000  Uiso   1.00
H217   H     0.96473   0.21216   0.09039   0.00000  Uiso   1.00
H218   H     0.28528   0.29439   0.05828   0.00000  Uiso   1.00
H219   H     0.22339   0.23889   0.33661   0.00000  Uiso   1.00
H220   H     0.77675   0.12793   0.05232   0.00000  Uiso   1.00
H221   H     0.45269   0.30135   0.98462   0.00000  Uiso   1.00
O222   O     0.28380   0.09579   0.40233   0.00000  Uiso   1.00
O223   O     0.69783   0.95023   0.02934   0.00000  Uiso   1.00
O224   O     0.58465   0.17774   0.94051   0.00000  Uiso   1.00
N225   N     0.27690   0.01000   0.32211   0.00000  Uiso   1.00
N226   N     0.85931   0.90626   0.05632   0.00000  Uiso   1.00
N227   N     0.49124   0.06838   0.99301   0.00000  Uiso   1.00
N228   N     0.23618   0.16942   0.32260   0.00000  Uiso   1.00
N229   N     0.81859   0.06568   0.05681   0.00000  Uiso   1.00
N230   N     0.45052   0.22780   0.99350   0.00000  Uiso   1.00
C231   C     0.78722   0.01914   0.62379   0.00000  Uiso   1.00
C232   C     0.77948   0.97214   0.67856   0.00000  Uiso   1.00
C233   C     0.75031   0.02144   0.72435   0.00000  Uiso   1.00
C234   C     0.74807   0.96524   0.77051   0.00000  Uiso   1.00
C235   C     0.73215   0.90777   0.85552   0.00000  Uiso   1.00
C236   C     0.89458   0.00074   0.60532   0.00000  Uiso   1.00
C237   C     0.96218   0.07407   0.58951   0.00000  Uiso   1.00
C238   C     0.05682   0.04193   0.57402   0.00000  Uiso   1.00
C239   C     0.21958   0.02885   0.54527   0.00000  Uiso   1.00
C240   C     0.72042   0.95606   0.58788   0.00000  Uiso   1.00
C241   C     0.64158   0.99182   0.55740   0.00000  Uiso   1.00
C242   C     0.58960   0.92207   0.52720   0.00000  Uiso   1.00
C243   C     0.48193   0.83961   0.47138   0.00000  Uiso   1.00
C244   C     0.83511   0.83166   0.62436   0.00000  Uiso   1.00
C245   C     0.80550   0.87032   0.67887   0.00000  Uiso   1.00
C246   C     0.80330   0.81402   0.72498   0.00000  Uiso   1.00
C247   C     0.77412   0.86322   0.77083   0.00000  Uiso   1.00
C248   C     0.92060   0.89891   0.60563   0.00000  Uiso   1.00
C249   C     0.01516   0.86665   0.59015   0.00000  Uiso   1.00
C250   C     0.08289   0.93992   0.57433   0.00000  Uiso   1.00
C251   C     0.74643   0.85422   0.58819   0.00000  Uiso   1.00
C252   C     0.69457   0.78440   0.55803   0.00000  Uiso   1.00
C253   C     0.61567   0.82005   0.52751   0.00000  Uiso   1.00
H254   H     0.76697   0.09842   0.62355   0.00000  Uiso   1.00
H255   H     0.73019   0.10025   0.72409   0.00000  Uiso   1.00
H256   H     0.94202   0.15287   0.58927   0.00000  Uiso   1.00
H257   H     0.62147   0.07063   0.55717   0.00000  Uiso   1.00
H258   H     0.70092   0.05738   0.83571   0.00000  Uiso   1.00
H259   H     0.14757   0.16833   0.55142   0.00000  Uiso   1.00
H260   H     0.47163   0.99492   0.48371   0.00000  Uiso   1.00
H261   H     0.85537   0.75238   0.62460   0.00000  Uiso   1.00
H262   H     0.82343   0.73522   0.72521   0.00000  Uiso   1.00
H263   H     0.03527   0.78784   0.59039   0.00000  Uiso   1.00
H264   H     0.71472   0.70561   0.55828   0.00000  Uiso   1.00
H265   H     0.77661   0.76111   0.83661   0.00000  Uiso   1.00
H266   H     0.22325   0.87207   0.55232   0.00000  Uiso   1.00
H267   H     0.54731   0.69865   0.48462   0.00000  Uiso   1.00
O268   O     0.71620   0.90421   0.90233   0.00000  Uiso   1.00
O269   O     0.30217   0.04977   0.52934   0.00000  Uiso   1.00
O270   O     0.41535   0.82226   0.44051   0.00000  Uiso   1.00
N271   N     0.72310   0.99000   0.82211   0.00000  Uiso   1.00
N272   N     0.14069   0.09374   0.55632   0.00000  Uiso   1.00
N273   N     0.50876   0.93162   0.49301   0.00000  Uiso   1.00
N274   N     0.76382   0.83058   0.82260   0.00000  Uiso   1.00
N275   N     0.18141   0.93432   0.55681   0.00000  Uiso   1.00
N276   N     0.54948   0.77220   0.49350   0.00000  Uiso   1.00
C277   C     0.48086   0.28722   0.37379   0.00000  Uiso   1.00
C278   C     0.52786   0.27948   0.42856   0.00000  Uiso   1.00
C279   C     0.47856   0.25031   0.47435   0.00000  Uiso   1.00
C280   C     0.53476   0.24807   0.52051   0.00000  Uiso   1.00
C281   C     0.59223   0.23215   0.60552   0.00000  Uiso   1.00
C282   C     0.49926   0.39458   0.35532   0.00000  Uiso   1.00
C283   C     0.42593   0.46218   0.33951   0.00000  Uiso   1.00
C284   C     0.45807   0.55682   0.32402   0.00000  Uiso   1.00
C285   C     0.47115   0.71958   0.29527   0.00000  Uiso   1.00
C286   C     0.54394   0.22042   0.33788   0.00000  Uiso   1.00
C287   C     0.50818   0.14158   0.30740   0.00000  Uiso   1.00
C288   C     0.57793   0.08960   0.27720   0.00000  Uiso   1.00
C289   C     0.66039   0.98193   0.22138   0.00000  Uiso   1.00
C290   C     0.66834   0.33511   0.37436   0.00000  Uiso   1.00
C291   C     0.62968   0.30550   0.42887   0.00000  Uiso   1.00
C292   C     0.68598   0.30330   0.47498   0.00000  Uiso   1.00
C293   C     0.63678   0.27412   0.52083   0.00000  Uiso   1.00
C294   C     0.60109   0.42060   0.35563   0.00000  Uiso   1.00
C295   C     0.63335   0.51516   0.34015   0.00000  Uiso   1.00
C296   C     0.56008   0.58289   0.32433   0.00000  Uiso   1.00
C297   C     0.64578   0.24643   0.33819   0.00000  Uiso   1.00
C298   C     0.71560   0.19457   0.30803   0.00000  Uiso   1.00
C299   C     0.67995   0.11567   0.27751   0.00000  Uiso   1.00
H300   H     0.40158   0.26697   0.37355   0.00000  Uiso   1.00
H301   H     0.39975   0.23019   0.47409   0.00000  Uiso   1.00
H302   H     0.34713   0.44202   0.33927   0.00000  Uiso   1.00
H303   H     0.42937   0.12147   0.30717   0.00000  Uiso   1.00
H304   H     0.44262   0.20092   0.58571   0.00000  Uiso   1.00
H305   H     0.33167   0.64757   0.30142   0.00000  Uiso   1.00
H306   H     0.50508   0.97163   0.23371   0.00000  Uiso   1.00
H307   H     0.74762   0.35537   0.37460   0.00000  Uiso   1.00
H308   H     0.76478   0.32343   0.47521   0.00000  Uiso   1.00
H309   H     0.71216   0.53527   0.34039   0.00000  Uiso   1.00
H310   H     0.79439   0.21472   0.30828   0.00000  Uiso   1.00
H311   H     0.73889   0.27661   0.58661   0.00000  Uiso   1.00
H312   H     0.62793   0.72325   0.30232   0.00000  Uiso   1.00
H313   H     0.80135   0.04731   0.23462   0.00000  Uiso   1.00
O314   O     0.59579   0.21620   0.65233   0.00000  Uiso   1.00
O315   O     0.45023   0.80217   0.27934   0.00000  Uiso   1.00
O316   O     0.67774   0.91535   0.19051   0.00000  Uiso   1.00
N317   N     0.51000   0.22310   0.57211   0.00000  Uiso   1.00
N318   N     0.40626   0.64069   0.30632   0.00000  Uiso   1.00
N319   N     0.56838   0.00876   0.24301   0.00000  Uiso   1.00
N320   N     0.66942   0.26382   0.57260   0.00000  Uiso   1.00
N321   N     0.56568   0.68141   0.30681   0.00000  Uiso   1.00
N322   N     0.72780   0.04948   0.24350   0.00000  Uiso   1.00
C323   C     0.51914   0.71278   0.87379   0.00000  Uiso   1.00
C324   C     0.47214   0.72052   0.92856   0.00000  Uiso   1.00
C325   C     0.52144   0.74969   0.97435   0.00000  Uiso   1.00
C326   C     0.46524   0.75193   0.02051   0.00000  Uiso   1.00
C327   C     0.40777   0.76785   0.10552   0.00000  Uiso   1.00
C328   C     0.50074   0.60542   0.85532   0.00000  Uiso   1.00
C329   C     0.57407   0.53782   0.83951   0.00000  Uiso   1.00
C330   C     0.54193   0.44318   0.82402   0.00000  Uiso   1.00
C331   C     0.52885   0.28042   0.79527   0.00000  Uiso   1.00
C332   C     0.45606   0.77958   0.83788   0.00000  Uiso   1.00
C333   C     0.49182   0.85842   0.80740   0.00000  Uiso   1.00
C334   C     0.42207   0.91040   0.77720   0.00000  Uiso   1.00
C335   C     0.33961   0.01807   0.72138   0.00000  Uiso   1.00
C336   C     0.33166   0.66489   0.87436   0.00000  Uiso   1.00
C337   C     0.37032   0.69450   0.92887   0.00000  Uiso   1.00
C338   C     0.31402   0.69670   0.97498   0.00000  Uiso   1.00
C339   C     0.36322   0.72588   0.02083   0.00000  Uiso   1.00
C340   C     0.39891   0.57940   0.85563   0.00000  Uiso   1.00
C341   C     0.36665   0.48484   0.84015   0.00000  Uiso   1.00
C342   C     0.43992   0.41711   0.82433   0.00000  Uiso   1.00
C343   C     0.35422   0.75357   0.83819   0.00000  Uiso   1.00
C344   C     0.28440   0.80543   0.80803   0.00000  Uiso   1.00
C345   C     0.32005   0.88433   0.77751   0.00000  Uiso   1.00
H346   H     0.59842   0.73303   0.87355   0.00000  Uiso   1.00
H347   H     0.60025   0.76981   0.97409   0.00000  Uiso   1.00
H348   H     0.65287   0.55798   0.83927   0.00000  Uiso   1.00
H349   H     0.57063   0.87853   0.80717   0.00000  Uiso   1.00
H350   H     0.55738   0.79908   0.08571   0.00000  Uiso   1.00
H351   H     0.66833   0.35243   0.80142   0.00000  Uiso   1.00
H352   H     0.49492   0.02837   0.73371   0.00000  Uiso   1.00
H353   H     0.25238   0.64463   0.87460   0.00000  Uiso   1.00
H354   H     0.23522   0.67657   0.97521   0.00000  Uiso   1.00
H355   H     0.28784   0.46473   0.84039   0.00000  Uiso   1.00
H356   H     0.20561   0.78528   0.80828   0.00000  Uiso   1.00
H357   H     0.26111   0.72339   0.08661   0.00000  Uiso   1.00
H358   H     0.37207   0.27675   0.80232   0.00000  Uiso   1.00
H359   H     0.19865   0.95269   0.73462   0.00000  Uiso   1.00
O360   O     0.40421   0.78380   0.15233   0.00000  Uiso   1.00
O361   O     0.54977   0.19783   0.77934   0.00000  Uiso   1.00
O362   O     0.32226   0.08465   0.69051   0.00000  Uiso   1.00
N363   N     0.49000   0.77690   0.07211   0.00000  Uiso   1.00
N364   N     0.59374   0.35931   0.80632   0.00000  Uiso   1.00
N365   N     0.43162   0.99124   0.74301   0.00000  Uiso   1.00
N366   N     0.33058   0.73618   0.07260   0.00000  Uiso   1.00
N367   N     0.43432   0.31859   0.80681   0.00000  Uiso   1.00
N368   N     0.27220   0.95052   0.74350   0.00000  Uiso   1.00
