data_job_02163
_audit_creation_date              2018-12-19
_audit_creation_method            'Materials Studio'
_symmetry_space_group_name_H-M    'P1'
_symmetry_Int_Tables_number       1
_symmetry_cell_setting            triclinic
loop_
_symmetry_equiv_pos_as_xyz
  x,y,z
_cell_length_a                    11.2765
_cell_length_b                    20.3173
_cell_length_c                    18.6519
_cell_angle_alpha                 90.0000
_cell_angle_beta                  142.5018
_cell_angle_gamma                 90.0000
loop_
_atom_site_label
_atom_site_type_symbol
_atom_site_fract_x
_atom_site_fract_y
_atom_site_fract_z
_atom_site_U_iso_or_equiv
_atom_site_adp_type
_atom_site_occupancy
C1     C     0.57654   0.78536   0.10935   0.00000  Uiso   1.00
C2     C     0.48725   0.73923   0.12201   0.00000  Uiso   1.00
C3     C     0.57693   0.71787   0.22752   0.00000  Uiso   1.00
C4     C     0.47089   0.67575   0.22040   0.00000  Uiso   1.00
C5     C     0.36102   0.60714   0.25661   0.00000  Uiso   1.00
C6     C     0.56848   0.74864   0.03423   0.00000  Uiso   1.00
C7     C     0.72645   0.73520   0.06593   0.00000  Uiso   1.00
C8     C     0.68877   0.70102   0.98491   0.00000  Uiso   1.00
C9     C     0.70498   0.64706   0.88481   0.00000  Uiso   1.00
C10    C     0.43557   0.84299   0.03456   0.00000  Uiso   1.00
C11    C     0.48178   0.90888   0.06651   0.00000  Uiso   1.00
C12    C     0.33221   0.95413   0.98575   0.00000  Uiso   1.00
C13    C     0.14205   0.04666   0.88616   0.00000  Uiso   1.00
C14    C     0.22875   0.74857   0.90909   0.00000  Uiso   1.00
C15    C     0.29835   0.71924   0.01324   0.00000  Uiso   1.00
C16    C     0.19213   0.67716   0.00595   0.00000  Uiso   1.00
C17    C     0.28164   0.65573   0.11143   0.00000  Uiso   1.00
C18    C     0.37958   0.72866   0.92546   0.00000  Uiso   1.00
C19    C     0.34165   0.69449   0.84437   0.00000  Uiso   1.00
C20    C     0.49952   0.68100   0.87594   0.00000  Uiso   1.00
C21    C     0.24665   0.82300   0.92578   0.00000  Uiso   1.00
C22    C     0.09698   0.86816   0.84495   0.00000  Uiso   1.00
C23    C     0.14296   0.93411   0.87678   0.00000  Uiso   1.00
H24    H     0.72362   0.80092   0.19403   0.00000  Uiso   1.00
H25    H     0.72314   0.73334   0.31168   0.00000  Uiso   1.00
H26    H     0.87262   0.75068   0.15011   0.00000  Uiso   1.00
H27    H     0.62799   0.92432   0.15069   0.00000  Uiso   1.00
H28    H     0.63932   0.64958   0.39414   0.00000  Uiso   1.00
H29    H     0.95450   0.68616   0.05346   0.00000  Uiso   1.00
H30    H     0.43865   0.05233   0.05469   0.00000  Uiso   1.00
H31    H     0.08167   0.73300   0.82440   0.00000  Uiso   1.00
H32    H     0.04595   0.66170   0.92177   0.00000  Uiso   1.00
H33    H     0.19544   0.67904   0.76020   0.00000  Uiso   1.00
H34    H     0.95081   0.85268   0.76079   0.00000  Uiso   1.00
H35    H     0.08969   0.59143   0.07768   0.00000  Uiso   1.00
H36    H     0.40488   0.62801   0.73699   0.00000  Uiso   1.00
H37    H     0.88903   0.99418   0.73822   0.00000  Uiso   1.00
O38    O     0.35262   0.57481   0.30663   0.00000  Uiso   1.00
O39    O     0.76612   0.62281   0.85966   0.00000  Uiso   1.00
O40    O     0.08934   0.10321   0.86127   0.00000  Uiso   1.00
N41    N     0.51485   0.64569   0.30630   0.00000  Uiso   1.00
N42    N     0.80953   0.67988   0.98779   0.00000  Uiso   1.00
N43    N     0.32727   0.02222   0.98892   0.00000  Uiso   1.00
N44    N     0.21910   0.61440   0.13601   0.00000  Uiso   1.00
N45    N     0.51378   0.64859   0.81750   0.00000  Uiso   1.00
N46    N     0.03152   0.99093   0.81864   0.00000  Uiso   1.00
C47    C     0.42346   0.28536   0.39065   0.00000  Uiso   1.00
C48    C     0.51275   0.23923   0.37799   0.00000  Uiso   1.00
C49    C     0.42307   0.21787   0.27248   0.00000  Uiso   1.00
C50    C     0.52911   0.17575   0.27960   0.00000  Uiso   1.00
C51    C     0.63898   0.10714   0.24339   0.00000  Uiso   1.00
C52    C     0.43152   0.24864   0.46577   0.00000  Uiso   1.00
C53    C     0.27355   0.23520   0.43407   0.00000  Uiso   1.00
C54    C     0.31123   0.20102   0.51509   0.00000  Uiso   1.00
C55    C     0.29502   0.14706   0.61519   0.00000  Uiso   1.00
C56    C     0.56443   0.34299   0.46544   0.00000  Uiso   1.00
C57    C     0.51822   0.40888   0.43349   0.00000  Uiso   1.00
C58    C     0.66779   0.45413   0.51425   0.00000  Uiso   1.00
C59    C     0.85795   0.54666   0.61384   0.00000  Uiso   1.00
C60    C     0.77125   0.24857   0.59091   0.00000  Uiso   1.00
C61    C     0.70165   0.21924   0.48676   0.00000  Uiso   1.00
C62    C     0.80787   0.17716   0.49405   0.00000  Uiso   1.00
C63    C     0.71836   0.15573   0.38857   0.00000  Uiso   1.00
C64    C     0.62042   0.22866   0.57454   0.00000  Uiso   1.00
C65    C     0.65835   0.19449   0.65563   0.00000  Uiso   1.00
C66    C     0.50048   0.18100   0.62406   0.00000  Uiso   1.00
C67    C     0.75335   0.32300   0.57422   0.00000  Uiso   1.00
C68    C     0.90302   0.36816   0.65505   0.00000  Uiso   1.00
C69    C     0.85704   0.43411   0.62322   0.00000  Uiso   1.00
H70    H     0.27638   0.30092   0.30597   0.00000  Uiso   1.00
H71    H     0.27686   0.23334   0.18832   0.00000  Uiso   1.00
H72    H     0.12738   0.25068   0.34989   0.00000  Uiso   1.00
H73    H     0.37201   0.42432   0.34931   0.00000  Uiso   1.00
H74    H     0.36068   0.14958   0.10586   0.00000  Uiso   1.00
H75    H     0.04550   0.18616   0.44654   0.00000  Uiso   1.00
H76    H     0.56135   0.55233   0.44531   0.00000  Uiso   1.00
H77    H     0.91833   0.23300   0.67560   0.00000  Uiso   1.00
H78    H     0.95405   0.16170   0.57823   0.00000  Uiso   1.00
H79    H     0.80456   0.17904   0.73980   0.00000  Uiso   1.00
H80    H     0.04919   0.35268   0.73921   0.00000  Uiso   1.00
H81    H     0.91031   0.09143   0.42232   0.00000  Uiso   1.00
H82    H     0.59512   0.12801   0.76301   0.00000  Uiso   1.00
H83    H     0.11097   0.49418   0.76178   0.00000  Uiso   1.00
O84    O     0.64738   0.07481   0.19337   0.00000  Uiso   1.00
O85    O     0.23388   0.12281   0.64034   0.00000  Uiso   1.00
O86    O     0.91066   0.60321   0.63873   0.00000  Uiso   1.00
N87    N     0.48515   0.14569   0.19370   0.00000  Uiso   1.00
N88    N     0.19047   0.17988   0.51221   0.00000  Uiso   1.00
N89    N     0.67273   0.52222   0.51108   0.00000  Uiso   1.00
N90    N     0.78090   0.11440   0.36399   0.00000  Uiso   1.00
N91    N     0.48622   0.14859   0.68250   0.00000  Uiso   1.00
N92    N     0.96848   0.49093   0.68136   0.00000  Uiso   1.00
C93    C     0.42346   0.21464   0.89065   0.00000  Uiso   1.00
C94    C     0.51275   0.26077   0.87799   0.00000  Uiso   1.00
C95    C     0.42307   0.28213   0.77248   0.00000  Uiso   1.00
C96    C     0.52911   0.32425   0.77960   0.00000  Uiso   1.00
C97    C     0.63898   0.39286   0.74339   0.00000  Uiso   1.00
C98    C     0.43152   0.25136   0.96577   0.00000  Uiso   1.00
C99    C     0.27355   0.26480   0.93407   0.00000  Uiso   1.00
C100   C     0.31123   0.29898   0.01509   0.00000  Uiso   1.00
C101   C     0.29502   0.35294   0.11519   0.00000  Uiso   1.00
C102   C     0.56443   0.15701   0.96544   0.00000  Uiso   1.00
C103   C     0.51822   0.09112   0.93349   0.00000  Uiso   1.00
C104   C     0.66779   0.04587   0.01425   0.00000  Uiso   1.00
C105   C     0.85795   0.95334   0.11384   0.00000  Uiso   1.00
C106   C     0.77125   0.25143   0.09091   0.00000  Uiso   1.00
C107   C     0.70165   0.28076   0.98676   0.00000  Uiso   1.00
C108   C     0.80787   0.32284   0.99405   0.00000  Uiso   1.00
C109   C     0.71836   0.34427   0.88857   0.00000  Uiso   1.00
C110   C     0.62042   0.27134   0.07454   0.00000  Uiso   1.00
C111   C     0.65835   0.30551   0.15563   0.00000  Uiso   1.00
C112   C     0.50048   0.31900   0.12406   0.00000  Uiso   1.00
C113   C     0.75335   0.17700   0.07422   0.00000  Uiso   1.00
C114   C     0.90302   0.13184   0.15505   0.00000  Uiso   1.00
C115   C     0.85704   0.06589   0.12322   0.00000  Uiso   1.00
H116   H     0.27638   0.19908   0.80597   0.00000  Uiso   1.00
H117   H     0.27686   0.26666   0.68832   0.00000  Uiso   1.00
H118   H     0.12738   0.24932   0.84989   0.00000  Uiso   1.00
H119   H     0.37201   0.07568   0.84931   0.00000  Uiso   1.00
H120   H     0.36068   0.35042   0.60586   0.00000  Uiso   1.00
H121   H     0.04550   0.31384   0.94654   0.00000  Uiso   1.00
H122   H     0.56135   0.94767   0.94531   0.00000  Uiso   1.00
H123   H     0.91833   0.26700   0.17560   0.00000  Uiso   1.00
H124   H     0.95405   0.33830   0.07823   0.00000  Uiso   1.00
H125   H     0.80456   0.32096   0.23980   0.00000  Uiso   1.00
H126   H     0.04919   0.14732   0.23921   0.00000  Uiso   1.00
H127   H     0.91031   0.40857   0.92232   0.00000  Uiso   1.00
H128   H     0.59512   0.37199   0.26301   0.00000  Uiso   1.00
H129   H     0.11097   0.00582   0.26178   0.00000  Uiso   1.00
O130   O     0.64738   0.42519   0.69337   0.00000  Uiso   1.00
O131   O     0.23388   0.37719   0.14034   0.00000  Uiso   1.00
O132   O     0.91066   0.89679   0.13873   0.00000  Uiso   1.00
N133   N     0.48515   0.35431   0.69370   0.00000  Uiso   1.00
N134   N     0.19047   0.32012   0.01221   0.00000  Uiso   1.00
N135   N     0.67273   0.97778   0.01108   0.00000  Uiso   1.00
N136   N     0.78090   0.38560   0.86399   0.00000  Uiso   1.00
N137   N     0.48622   0.35141   0.18250   0.00000  Uiso   1.00
N138   N     0.96848   0.00907   0.18136   0.00000  Uiso   1.00
C139   C     0.57654   0.71464   0.60935   0.00000  Uiso   1.00
C140   C     0.48725   0.76077   0.62201   0.00000  Uiso   1.00
C141   C     0.57693   0.78213   0.72752   0.00000  Uiso   1.00
C142   C     0.47089   0.82425   0.72040   0.00000  Uiso   1.00
C143   C     0.36102   0.89286   0.75661   0.00000  Uiso   1.00
C144   C     0.56848   0.75136   0.53423   0.00000  Uiso   1.00
C145   C     0.72645   0.76480   0.56593   0.00000  Uiso   1.00
C146   C     0.68877   0.79898   0.48491   0.00000  Uiso   1.00
C147   C     0.70498   0.85294   0.38481   0.00000  Uiso   1.00
C148   C     0.43557   0.65701   0.53456   0.00000  Uiso   1.00
C149   C     0.48178   0.59112   0.56651   0.00000  Uiso   1.00
C150   C     0.33221   0.54587   0.48575   0.00000  Uiso   1.00
C151   C     0.14205   0.45334   0.38616   0.00000  Uiso   1.00
C152   C     0.22875   0.75143   0.40909   0.00000  Uiso   1.00
C153   C     0.29835   0.78076   0.51324   0.00000  Uiso   1.00
C154   C     0.19213   0.82284   0.50595   0.00000  Uiso   1.00
C155   C     0.28164   0.84427   0.61143   0.00000  Uiso   1.00
C156   C     0.37958   0.77134   0.42546   0.00000  Uiso   1.00
C157   C     0.34165   0.80551   0.34437   0.00000  Uiso   1.00
C158   C     0.49952   0.81900   0.37594   0.00000  Uiso   1.00
C159   C     0.24665   0.67700   0.42578   0.00000  Uiso   1.00
C160   C     0.09698   0.63184   0.34495   0.00000  Uiso   1.00
C161   C     0.14296   0.56589   0.37678   0.00000  Uiso   1.00
H162   H     0.72362   0.69908   0.69403   0.00000  Uiso   1.00
H163   H     0.72314   0.76666   0.81168   0.00000  Uiso   1.00
H164   H     0.87262   0.74932   0.65011   0.00000  Uiso   1.00
H165   H     0.62799   0.57568   0.65069   0.00000  Uiso   1.00
H166   H     0.63932   0.85042   0.89414   0.00000  Uiso   1.00
H167   H     0.95450   0.81384   0.55346   0.00000  Uiso   1.00
H168   H     0.43865   0.44767   0.55469   0.00000  Uiso   1.00
H169   H     0.08167   0.76700   0.32440   0.00000  Uiso   1.00
H170   H     0.04595   0.83830   0.42177   0.00000  Uiso   1.00
H171   H     0.19544   0.82096   0.26020   0.00000  Uiso   1.00
H172   H     0.95081   0.64732   0.26079   0.00000  Uiso   1.00
H173   H     0.08969   0.90857   0.57768   0.00000  Uiso   1.00
H174   H     0.40488   0.87199   0.23699   0.00000  Uiso   1.00
H175   H     0.88903   0.50582   0.23822   0.00000  Uiso   1.00
O176   O     0.35262   0.92519   0.80663   0.00000  Uiso   1.00
O177   O     0.76612   0.87719   0.35966   0.00000  Uiso   1.00
O178   O     0.08934   0.39679   0.36127   0.00000  Uiso   1.00
N179   N     0.51485   0.85431   0.80630   0.00000  Uiso   1.00
N180   N     0.80953   0.82012   0.48779   0.00000  Uiso   1.00
N181   N     0.32727   0.47778   0.48892   0.00000  Uiso   1.00
N182   N     0.21910   0.88560   0.63601   0.00000  Uiso   1.00
N183   N     0.51378   0.85141   0.31750   0.00000  Uiso   1.00
N184   N     0.03152   0.50907   0.31864   0.00000  Uiso   1.00
