data_job_03597
_audit_creation_date              2018-12-19
_audit_creation_method            'Materials Studio'
_symmetry_space_group_name_H-M    'P1'
_symmetry_Int_Tables_number       1
_symmetry_cell_setting            triclinic
loop_
_symmetry_equiv_pos_as_xyz
  x,y,z
_cell_length_a                    20.9518
_cell_length_b                    23.0920
_cell_length_c                    8.5293
_cell_angle_alpha                 90.0000
_cell_angle_beta                  104.0690
_cell_angle_gamma                 90.0000
loop_
_atom_site_label
_atom_site_type_symbol
_atom_site_fract_x
_atom_site_fract_y
_atom_site_fract_z
_atom_site_U_iso_or_equiv
_atom_site_adp_type
_atom_site_occupancy
C1     C     0.22952   0.51479   0.87778   0.00000  Uiso   1.00
C2     C     0.26459   0.50995   0.05624   0.00000  Uiso   1.00
C3     C     0.33223   0.50860   0.11866   0.00000  Uiso   1.00
C4     C     0.35461   0.50401   0.28532   0.00000  Uiso   1.00
C5     C     0.41572   0.49694   0.54712   0.00000  Uiso   1.00
C6     C     0.18366   0.46264   0.84059   0.00000  Uiso   1.00
C7     C     0.18325   0.42152   0.72170   0.00000  Uiso   1.00
C8     C     0.13749   0.37710   0.70682   0.00000  Uiso   1.00
C9     C     0.07293   0.29662   0.63375   0.00000  Uiso   1.00
C10    C     0.18510   0.56783   0.86327   0.00000  Uiso   1.00
C11    C     0.18589   0.61513   0.76341   0.00000  Uiso   1.00
C12    C     0.14134   0.65928   0.76759   0.00000  Uiso   1.00
C13    C     0.07902   0.74210   0.72974   0.00000  Uiso   1.00
C14    C     0.14898   0.50905   0.06274   0.00000  Uiso   1.00
C15    C     0.22085   0.50683   0.15669   0.00000  Uiso   1.00
C16    C     0.24313   0.50225   0.32330   0.00000  Uiso   1.00
C17    C     0.31079   0.50089   0.38597   0.00000  Uiso   1.00
C18    C     0.13992   0.45952   0.94105   0.00000  Uiso   1.00
C19    C     0.09415   0.41516   0.92633   0.00000  Uiso   1.00
C20    C     0.09367   0.37398   0.80746   0.00000  Uiso   1.00
C21    C     0.14136   0.56471   0.96374   0.00000  Uiso   1.00
C22    C     0.09679   0.60878   0.96806   0.00000  Uiso   1.00
C23    C     0.09752   0.65615   0.86823   0.00000  Uiso   1.00
H24    H     0.26357   0.51721   0.79956   0.00000  Uiso   1.00
H25    H     0.36606   0.51100   0.04087   0.00000  Uiso   1.00
H26    H     0.21710   0.42394   0.64396   0.00000  Uiso   1.00
H27    H     0.21975   0.61753   0.68568   0.00000  Uiso   1.00
H28    H     0.46041   0.50273   0.35271   0.00000  Uiso   1.00
H29    H     0.14630   0.31916   0.51576   0.00000  Uiso   1.00
H30    H     0.15188   0.72738   0.60373   0.00000  Uiso   1.00
H31    H     0.11492   0.50662   0.14096   0.00000  Uiso   1.00
H32    H     0.20926   0.49983   0.40102   0.00000  Uiso   1.00
H33    H     0.06030   0.41277   0.00410   0.00000  Uiso   1.00
H34    H     0.06295   0.60636   0.04582   0.00000  Uiso   1.00
H35    H     0.33315   0.49366   0.64502   0.00000  Uiso   1.00
H36    H     0.01903   0.31009   0.80805   0.00000  Uiso   1.00
H37    H     0.02462   0.71831   0.89603   0.00000  Uiso   1.00
O38    O     0.46152   0.49390   0.66377   0.00000  Uiso   1.00
O39    O     0.04941   0.25308   0.56570   0.00000  Uiso   1.00
O40    O     0.05674   0.78865   0.68112   0.00000  Uiso   1.00
N41    N     0.41751   0.50154   0.38582   0.00000  Uiso   1.00
N42    N     0.12384   0.32991   0.60334   0.00000  Uiso   1.00
N43    N     0.12905   0.71155   0.68555   0.00000  Uiso   1.00
N44    N     0.34903   0.49666   0.54311   0.00000  Uiso   1.00
N45    N     0.05536   0.32503   0.76062   0.00000  Uiso   1.00
N46    N     0.06057   0.70667   0.84283   0.00000  Uiso   1.00
C47    C     0.77048   0.01479   0.62222   0.00000  Uiso   1.00
C48    C     0.73541   0.00995   0.44376   0.00000  Uiso   1.00
C49    C     0.66777   0.00860   0.38134   0.00000  Uiso   1.00
C50    C     0.64539   0.00401   0.21468   0.00000  Uiso   1.00
C51    C     0.58428   0.99694   0.95288   0.00000  Uiso   1.00
C52    C     0.81634   0.96264   0.65941   0.00000  Uiso   1.00
C53    C     0.81675   0.92152   0.77830   0.00000  Uiso   1.00
C54    C     0.86251   0.87710   0.79318   0.00000  Uiso   1.00
C55    C     0.92707   0.79662   0.86625   0.00000  Uiso   1.00
C56    C     0.81490   0.06783   0.63673   0.00000  Uiso   1.00
C57    C     0.81411   0.11513   0.73659   0.00000  Uiso   1.00
C58    C     0.85866   0.15928   0.73241   0.00000  Uiso   1.00
C59    C     0.92098   0.24210   0.77026   0.00000  Uiso   1.00
C60    C     0.85102   0.00905   0.43726   0.00000  Uiso   1.00
C61    C     0.77915   0.00683   0.34331   0.00000  Uiso   1.00
C62    C     0.75687   0.00225   0.17670   0.00000  Uiso   1.00
C63    C     0.68921   0.00089   0.11403   0.00000  Uiso   1.00
C64    C     0.86008   0.95952   0.55895   0.00000  Uiso   1.00
C65    C     0.90585   0.91516   0.57367   0.00000  Uiso   1.00
C66    C     0.90633   0.87398   0.69254   0.00000  Uiso   1.00
C67    C     0.85864   0.06471   0.53626   0.00000  Uiso   1.00
C68    C     0.90321   0.10878   0.53194   0.00000  Uiso   1.00
C69    C     0.90248   0.15615   0.63177   0.00000  Uiso   1.00
H70    H     0.73643   0.01721   0.70044   0.00000  Uiso   1.00
H71    H     0.63394   0.01100   0.45913   0.00000  Uiso   1.00
H72    H     0.78290   0.92394   0.85604   0.00000  Uiso   1.00
H73    H     0.78025   0.11753   0.81432   0.00000  Uiso   1.00
H74    H     0.53959   0.00273   0.14729   0.00000  Uiso   1.00
H75    H     0.85370   0.81916   0.98424   0.00000  Uiso   1.00
H76    H     0.84812   0.22738   0.89627   0.00000  Uiso   1.00
H77    H     0.88508   0.00662   0.35904   0.00000  Uiso   1.00
H78    H     0.79074   0.99983   0.09898   0.00000  Uiso   1.00
H79    H     0.93970   0.91277   0.49590   0.00000  Uiso   1.00
H80    H     0.93705   0.10636   0.45418   0.00000  Uiso   1.00
H81    H     0.66685   0.99366   0.85498   0.00000  Uiso   1.00
H82    H     0.98097   0.81009   0.69195   0.00000  Uiso   1.00
H83    H     0.97538   0.21831   0.60397   0.00000  Uiso   1.00
O84    O     0.53848   0.99390   0.83623   0.00000  Uiso   1.00
O85    O     0.95059   0.75308   0.93430   0.00000  Uiso   1.00
O86    O     0.94326   0.28865   0.81888   0.00000  Uiso   1.00
N87    N     0.58249   0.00154   0.11418   0.00000  Uiso   1.00
N88    N     0.87616   0.82991   0.89666   0.00000  Uiso   1.00
N89    N     0.87095   0.21155   0.81445   0.00000  Uiso   1.00
N90    N     0.65097   0.99666   0.95689   0.00000  Uiso   1.00
N91    N     0.94464   0.82503   0.73938   0.00000  Uiso   1.00
N92    N     0.93943   0.20667   0.65717   0.00000  Uiso   1.00
C93    C     0.77048   0.48521   0.12222   0.00000  Uiso   1.00
C94    C     0.73541   0.49005   0.94376   0.00000  Uiso   1.00
C95    C     0.66777   0.49140   0.88134   0.00000  Uiso   1.00
C96    C     0.64539   0.49599   0.71468   0.00000  Uiso   1.00
C97    C     0.58428   0.50306   0.45288   0.00000  Uiso   1.00
C98    C     0.81634   0.53736   0.15941   0.00000  Uiso   1.00
C99    C     0.81675   0.57848   0.27830   0.00000  Uiso   1.00
C100   C     0.86251   0.62290   0.29318   0.00000  Uiso   1.00
C101   C     0.92707   0.70338   0.36625   0.00000  Uiso   1.00
C102   C     0.81490   0.43217   0.13673   0.00000  Uiso   1.00
C103   C     0.81411   0.38487   0.23659   0.00000  Uiso   1.00
C104   C     0.85866   0.34072   0.23241   0.00000  Uiso   1.00
C105   C     0.92098   0.25790   0.27026   0.00000  Uiso   1.00
C106   C     0.85102   0.49095   0.93726   0.00000  Uiso   1.00
C107   C     0.77915   0.49317   0.84331   0.00000  Uiso   1.00
C108   C     0.75687   0.49775   0.67670   0.00000  Uiso   1.00
C109   C     0.68921   0.49911   0.61403   0.00000  Uiso   1.00
C110   C     0.86008   0.54048   0.05895   0.00000  Uiso   1.00
C111   C     0.90585   0.58484   0.07367   0.00000  Uiso   1.00
C112   C     0.90633   0.62602   0.19254   0.00000  Uiso   1.00
C113   C     0.85864   0.43529   0.03626   0.00000  Uiso   1.00
C114   C     0.90321   0.39122   0.03194   0.00000  Uiso   1.00
C115   C     0.90248   0.34385   0.13177   0.00000  Uiso   1.00
H116   H     0.73643   0.48279   0.20044   0.00000  Uiso   1.00
H117   H     0.63394   0.48900   0.95913   0.00000  Uiso   1.00
H118   H     0.78290   0.57606   0.35604   0.00000  Uiso   1.00
H119   H     0.78025   0.38247   0.31432   0.00000  Uiso   1.00
H120   H     0.53959   0.49727   0.64729   0.00000  Uiso   1.00
H121   H     0.85370   0.68084   0.48424   0.00000  Uiso   1.00
H122   H     0.84812   0.27262   0.39627   0.00000  Uiso   1.00
H123   H     0.88508   0.49338   0.85904   0.00000  Uiso   1.00
H124   H     0.79074   0.50017   0.59898   0.00000  Uiso   1.00
H125   H     0.93970   0.58723   0.99590   0.00000  Uiso   1.00
H126   H     0.93705   0.39364   0.95418   0.00000  Uiso   1.00
H127   H     0.66685   0.50634   0.35498   0.00000  Uiso   1.00
H128   H     0.98097   0.68991   0.19195   0.00000  Uiso   1.00
H129   H     0.97538   0.28169   0.10397   0.00000  Uiso   1.00
O130   O     0.53848   0.50610   0.33623   0.00000  Uiso   1.00
O131   O     0.95059   0.74692   0.43430   0.00000  Uiso   1.00
O132   O     0.94326   0.21135   0.31888   0.00000  Uiso   1.00
N133   N     0.58249   0.49846   0.61418   0.00000  Uiso   1.00
N134   N     0.87616   0.67009   0.39666   0.00000  Uiso   1.00
N135   N     0.87095   0.28845   0.31445   0.00000  Uiso   1.00
N136   N     0.65097   0.50334   0.45689   0.00000  Uiso   1.00
N137   N     0.94464   0.67497   0.23938   0.00000  Uiso   1.00
N138   N     0.93943   0.29333   0.15717   0.00000  Uiso   1.00
C139   C     0.22952   0.98521   0.37778   0.00000  Uiso   1.00
C140   C     0.26459   0.99005   0.55624   0.00000  Uiso   1.00
C141   C     0.33223   0.99140   0.61866   0.00000  Uiso   1.00
C142   C     0.35461   0.99599   0.78532   0.00000  Uiso   1.00
C143   C     0.41572   0.00306   0.04712   0.00000  Uiso   1.00
C144   C     0.18366   0.03736   0.34059   0.00000  Uiso   1.00
C145   C     0.18325   0.07848   0.22170   0.00000  Uiso   1.00
C146   C     0.13749   0.12290   0.20682   0.00000  Uiso   1.00
C147   C     0.07293   0.20338   0.13375   0.00000  Uiso   1.00
C148   C     0.18510   0.93217   0.36327   0.00000  Uiso   1.00
C149   C     0.18589   0.88487   0.26341   0.00000  Uiso   1.00
C150   C     0.14134   0.84072   0.26759   0.00000  Uiso   1.00
C151   C     0.07902   0.75790   0.22974   0.00000  Uiso   1.00
C152   C     0.14898   0.99095   0.56274   0.00000  Uiso   1.00
C153   C     0.22085   0.99317   0.65669   0.00000  Uiso   1.00
C154   C     0.24313   0.99775   0.82330   0.00000  Uiso   1.00
C155   C     0.31079   0.99911   0.88597   0.00000  Uiso   1.00
C156   C     0.13992   0.04048   0.44105   0.00000  Uiso   1.00
C157   C     0.09415   0.08484   0.42633   0.00000  Uiso   1.00
C158   C     0.09367   0.12602   0.30746   0.00000  Uiso   1.00
C159   C     0.14136   0.93529   0.46374   0.00000  Uiso   1.00
C160   C     0.09679   0.89122   0.46806   0.00000  Uiso   1.00
C161   C     0.09752   0.84385   0.36823   0.00000  Uiso   1.00
H162   H     0.26357   0.98279   0.29956   0.00000  Uiso   1.00
H163   H     0.36606   0.98900   0.54087   0.00000  Uiso   1.00
H164   H     0.21710   0.07606   0.14396   0.00000  Uiso   1.00
H165   H     0.21975   0.88247   0.18568   0.00000  Uiso   1.00
H166   H     0.46041   0.99727   0.85271   0.00000  Uiso   1.00
H167   H     0.14630   0.18084   0.01576   0.00000  Uiso   1.00
H168   H     0.15188   0.77262   0.10373   0.00000  Uiso   1.00
H169   H     0.11492   0.99338   0.64096   0.00000  Uiso   1.00
H170   H     0.20926   0.00017   0.90102   0.00000  Uiso   1.00
H171   H     0.06030   0.08723   0.50410   0.00000  Uiso   1.00
H172   H     0.06295   0.89364   0.54582   0.00000  Uiso   1.00
H173   H     0.33315   0.00634   0.14502   0.00000  Uiso   1.00
H174   H     0.01903   0.18991   0.30805   0.00000  Uiso   1.00
H175   H     0.02462   0.78169   0.39603   0.00000  Uiso   1.00
O176   O     0.46152   0.00610   0.16377   0.00000  Uiso   1.00
O177   O     0.04941   0.24692   0.06570   0.00000  Uiso   1.00
O178   O     0.05674   0.71135   0.18112   0.00000  Uiso   1.00
N179   N     0.41751   0.99846   0.88582   0.00000  Uiso   1.00
N180   N     0.12384   0.17009   0.10334   0.00000  Uiso   1.00
N181   N     0.12905   0.78845   0.18555   0.00000  Uiso   1.00
N182   N     0.34903   0.00334   0.04311   0.00000  Uiso   1.00
N183   N     0.05536   0.17497   0.26062   0.00000  Uiso   1.00
N184   N     0.06057   0.79333   0.34283   0.00000  Uiso   1.00
