data_job_06255
_audit_creation_date              2018-12-19
_audit_creation_method            'Materials Studio'
_symmetry_space_group_name_H-M    'P1'
_symmetry_Int_Tables_number       1
_symmetry_cell_setting            triclinic
loop_
_symmetry_equiv_pos_as_xyz
  x,y,z
_cell_length_a                    17.4675
_cell_length_b                    16.9237
_cell_length_c                    16.7157
_cell_angle_alpha                 99.7498
_cell_angle_beta                  99.2882
_cell_angle_gamma                 99.6571
loop_
_atom_site_label
_atom_site_type_symbol
_atom_site_fract_x
_atom_site_fract_y
_atom_site_fract_z
_atom_site_U_iso_or_equiv
_atom_site_adp_type
_atom_site_occupancy
C1     C     0.53499   0.19015   0.67877   0.00000  Uiso   1.00
C2     C     0.56844   0.16097   0.75610   0.00000  Uiso   1.00
C3     C     0.52468   0.11506   0.80074   0.00000  Uiso   1.00
C4     C     0.56631   0.09452   0.86967   0.00000  Uiso   1.00
C5     C     0.60571   0.04551   0.98622   0.00000  Uiso   1.00
C6     C     0.56251   0.28292   0.69791   0.00000  Uiso   1.00
C7     C     0.51376   0.33955   0.69362   0.00000  Uiso   1.00
C8     C     0.55040   0.42166   0.71356   0.00000  Uiso   1.00
C9     C     0.58059   0.56198   0.73971   0.00000  Uiso   1.00
C10    C     0.57802   0.15750   0.61179   0.00000  Uiso   1.00
C11    C     0.54231   0.10869   0.53508   0.00000  Uiso   1.00
C12    C     0.59202   0.08522   0.48250   0.00000  Uiso   1.00
C13    C     0.64630   0.03081   0.37493   0.00000  Uiso   1.00
C14    C     0.68676   0.23528   0.72181   0.00000  Uiso   1.00
C15    C     0.65087   0.18549   0.77948   0.00000  Uiso   1.00
C16    C     0.69259   0.16500   0.84836   0.00000  Uiso   1.00
C17    C     0.64890   0.11907   0.89309   0.00000  Uiso   1.00
C18    C     0.64494   0.30744   0.72129   0.00000  Uiso   1.00
C19    C     0.68167   0.38948   0.74123   0.00000  Uiso   1.00
C20    C     0.63299   0.44622   0.73698   0.00000  Uiso   1.00
C21    C     0.66045   0.18201   0.63517   0.00000  Uiso   1.00
C22    C     0.71023   0.15862   0.58270   0.00000  Uiso   1.00
C23    C     0.67460   0.10978   0.50592   0.00000  Uiso   1.00
H24    H     0.47081   0.17107   0.66057   0.00000  Uiso   1.00
H25    H     0.46088   0.09611   0.78264   0.00000  Uiso   1.00
H26    H     0.44997   0.32056   0.67552   0.00000  Uiso   1.00
H27    H     0.47852   0.08973   0.51701   0.00000  Uiso   1.00
H28    H     0.48623   0.02384   0.92829   0.00000  Uiso   1.00
H29    H     0.46321   0.49710   0.70241   0.00000  Uiso   1.00
H30    H     0.52342   0.01036   0.36815   0.00000  Uiso   1.00
H31    H     0.75094   0.25437   0.74001   0.00000  Uiso   1.00
H32    H     0.75638   0.18398   0.86643   0.00000  Uiso   1.00
H33    H     0.74546   0.40843   0.75932   0.00000  Uiso   1.00
H34    H     0.77402   0.17760   0.60080   0.00000  Uiso   1.00
H35    H     0.72606   0.09516   0.99631   0.00000  Uiso   1.00
H36    H     0.70305   0.56842   0.77042   0.00000  Uiso   1.00
H37    H     0.76326   0.08168   0.43616   0.00000  Uiso   1.00
O38    O     0.60467   0.01172   0.04405   0.00000  Uiso   1.00
O39    O     0.57447   0.63261   0.74768   0.00000  Uiso   1.00
O40    O     0.65347   0.99402   0.30915   0.00000  Uiso   1.00
N41    N     0.54193   0.05027   0.92694   0.00000  Uiso   1.00
N42    N     0.52041   0.49274   0.71577   0.00000  Uiso   1.00
N43    N     0.57670   0.03770   0.40325   0.00000  Uiso   1.00
N44    N     0.67098   0.08865   0.96354   0.00000  Uiso   1.00
N45    N     0.64946   0.53112   0.75236   0.00000  Uiso   1.00
N46    N     0.70575   0.07608   0.43985   0.00000  Uiso   1.00
C47    C     0.67442   0.52896   0.18764   0.00000  Uiso   1.00
C48    C     0.74855   0.56295   0.15731   0.00000  Uiso   1.00
C49    C     0.79036   0.51729   0.10996   0.00000  Uiso   1.00
C50    C     0.85663   0.55981   0.08854   0.00000  Uiso   1.00
C51    C     0.96818   0.59963   0.03767   0.00000  Uiso   1.00
C52    C     0.69330   0.55716   0.28152   0.00000  Uiso   1.00
C53    C     0.68865   0.50662   0.33859   0.00000  Uiso   1.00
C54    C     0.70840   0.54428   0.42173   0.00000  Uiso   1.00
C55    C     0.73412   0.57510   0.56369   0.00000  Uiso   1.00
C56    C     0.61110   0.57418   0.15574   0.00000  Uiso   1.00
C57    C     0.53732   0.53797   0.10707   0.00000  Uiso   1.00
C58    C     0.48785   0.58996   0.08431   0.00000  Uiso   1.00
C59    C     0.38593   0.64723   0.03097   0.00000  Uiso   1.00
C60    C     0.71775   0.68568   0.23380   0.00000  Uiso   1.00
C61    C     0.77208   0.64807   0.18239   0.00000  Uiso   1.00
C62    C     0.83830   0.69068   0.16103   0.00000  Uiso   1.00
C63    C     0.88021   0.64509   0.11365   0.00000  Uiso   1.00
C64    C     0.71684   0.64228   0.30659   0.00000  Uiso   1.00
C65    C     0.73659   0.68001   0.38966   0.00000  Uiso   1.00
C66    C     0.73197   0.62955   0.44685   0.00000  Uiso   1.00
C67    C     0.63463   0.65931   0.18080   0.00000  Uiso   1.00
C68    C     0.58526   0.71136   0.15813   0.00000  Uiso   1.00
C69    C     0.51142   0.67524   0.10943   0.00000  Uiso   1.00
H70    H     0.65609   0.46269   0.16813   0.00000  Uiso   1.00
H71    H     0.77213   0.45141   0.09058   0.00000  Uiso   1.00
H72    H     0.67043   0.44075   0.31917   0.00000  Uiso   1.00
H73    H     0.51912   0.47210   0.08768   0.00000  Uiso   1.00
H74    H     0.91118   0.47644   0.01568   0.00000  Uiso   1.00
H75    H     0.69670   0.45397   0.49768   0.00000  Uiso   1.00
H76    H     0.37765   0.52006   0.00953   0.00000  Uiso   1.00
H77    H     0.73607   0.75196   0.25332   0.00000  Uiso   1.00
H78    H     0.85650   0.75655   0.18044   0.00000  Uiso   1.00
H79    H     0.75480   0.74589   0.40904   0.00000  Uiso   1.00
H80    H     0.60349   0.77723   0.17754   0.00000  Uiso   1.00
H81    H     0.97966   0.72410   0.08862   0.00000  Uiso   1.00
H82    H     0.76518   0.70163   0.57063   0.00000  Uiso   1.00
H83    H     0.44613   0.76772   0.08247   0.00000  Uiso   1.00
O84    O     0.02322   0.59807   0.00269   0.00000  Uiso   1.00
O85    O     0.74181   0.56859   0.63506   0.00000  Uiso   1.00
O86    O     0.32322   0.65530   0.99461   0.00000  Uiso   1.00
N87    N     0.91076   0.53410   0.04283   0.00000  Uiso   1.00
N88    N     0.71025   0.51309   0.49348   0.00000  Uiso   1.00
N89    N     0.41195   0.57488   0.03712   0.00000  Uiso   1.00
N90    N     0.94761   0.66737   0.08208   0.00000  Uiso   1.00
N91    N     0.74710   0.64635   0.53273   0.00000  Uiso   1.00
N92    N     0.44880   0.70814   0.07636   0.00000  Uiso   1.00
C93    C     0.18804   0.67591   0.52794   0.00000  Uiso   1.00
C94    C     0.16028   0.75291   0.56325   0.00000  Uiso   1.00
C95    C     0.11562   0.79671   0.51790   0.00000  Uiso   1.00
C96    C     0.09625   0.86547   0.56168   0.00000  Uiso   1.00
C97    C     0.04946   0.98140   0.60340   0.00000  Uiso   1.00
C98    C     0.27788   0.69457   0.55540   0.00000  Uiso   1.00
C99    C     0.33210   0.68931   0.50346   0.00000  Uiso   1.00
C100   C     0.41174   0.70895   0.54065   0.00000  Uiso   1.00
C101   C     0.54753   0.73426   0.57019   0.00000  Uiso   1.00
C102   C     0.15682   0.61056   0.57373   0.00000  Uiso   1.00
C103   C     0.10926   0.53464   0.53720   0.00000  Uiso   1.00
C104   C     0.08699   0.48354   0.58981   0.00000  Uiso   1.00
C105   C     0.03481   0.37840   0.64781   0.00000  Uiso   1.00
C106   C     0.23307   0.72013   0.68633   0.00000  Uiso   1.00
C107   C     0.18474   0.77693   0.64928   0.00000  Uiso   1.00
C108   C     0.16544   0.84564   0.69314   0.00000  Uiso   1.00
C109   C     0.12075   0.88953   0.64787   0.00000  Uiso   1.00
C110   C     0.30234   0.71860   0.64143   0.00000  Uiso   1.00
C111   C     0.38192   0.73824   0.67870   0.00000  Uiso   1.00
C112   C     0.43624   0.73302   0.62683   0.00000  Uiso   1.00
C113   C     0.18128   0.63458   0.65976   0.00000  Uiso   1.00
C114   C     0.15908   0.58358   0.71243   0.00000  Uiso   1.00
C115   C     0.11150   0.50760   0.67599   0.00000  Uiso   1.00
H116   H     0.16900   0.65720   0.46097   0.00000  Uiso   1.00
H117   H     0.09671   0.77810   0.45132   0.00000  Uiso   1.00
H118   H     0.31315   0.67071   0.43689   0.00000  Uiso   1.00
H119   H     0.09035   0.51607   0.47062   0.00000  Uiso   1.00
H120   H     0.02736   0.92274   0.47857   0.00000  Uiso   1.00
H121   H     0.48376   0.69628   0.44814   0.00000  Uiso   1.00
H122   H     0.01393   0.37019   0.51926   0.00000  Uiso   1.00
H123   H     0.25211   0.73884   0.75331   0.00000  Uiso   1.00
H124   H     0.18437   0.86422   0.75971   0.00000  Uiso   1.00
H125   H     0.40083   0.75683   0.74528   0.00000  Uiso   1.00
H126   H     0.17802   0.60219   0.77901   0.00000  Uiso   1.00
H127   H     0.09852   0.99264   0.72887   0.00000  Uiso   1.00
H128   H     0.55492   0.76618   0.69843   0.00000  Uiso   1.00
H129   H     0.08509   0.44009   0.76956   0.00000  Uiso   1.00
O130   O     0.01691   0.03871   0.60265   0.00000  Uiso   1.00
O131   O     0.61567   0.74159   0.56272   0.00000  Uiso   1.00
O132   O     0.99927   0.31377   0.65603   0.00000  Uiso   1.00
N133   N     0.05339   0.92198   0.53660   0.00000  Uiso   1.00
N134   N     0.48009   0.71026   0.50815   0.00000  Uiso   1.00
N135   N     0.04086   0.40539   0.57464   0.00000  Uiso   1.00
N136   N     0.09168   0.95959   0.67128   0.00000  Uiso   1.00
N137   N     0.51838   0.74788   0.64283   0.00000  Uiso   1.00
N138   N     0.07915   0.44300   0.70932   0.00000  Uiso   1.00
C139   C     0.46501   0.80985   0.32123   0.00000  Uiso   1.00
C140   C     0.43156   0.83903   0.24390   0.00000  Uiso   1.00
C141   C     0.47532   0.88494   0.19926   0.00000  Uiso   1.00
C142   C     0.43369   0.90548   0.13033   0.00000  Uiso   1.00
C143   C     0.39429   0.95449   0.01378   0.00000  Uiso   1.00
C144   C     0.43749   0.71708   0.30209   0.00000  Uiso   1.00
C145   C     0.48624   0.66045   0.30638   0.00000  Uiso   1.00
C146   C     0.44960   0.57834   0.28644   0.00000  Uiso   1.00
C147   C     0.41940   0.43802   0.26029   0.00000  Uiso   1.00
C148   C     0.42198   0.84250   0.38821   0.00000  Uiso   1.00
C149   C     0.45769   0.89131   0.46492   0.00000  Uiso   1.00
C150   C     0.40798   0.91478   0.51750   0.00000  Uiso   1.00
C151   C     0.35370   0.96919   0.62507   0.00000  Uiso   1.00
C152   C     0.31324   0.76472   0.27820   0.00000  Uiso   1.00
C153   C     0.34913   0.81451   0.22052   0.00000  Uiso   1.00
C154   C     0.30741   0.83500   0.15164   0.00000  Uiso   1.00
C155   C     0.35110   0.88093   0.10691   0.00000  Uiso   1.00
C156   C     0.35506   0.69256   0.27871   0.00000  Uiso   1.00
C157   C     0.31833   0.61052   0.25877   0.00000  Uiso   1.00
C158   C     0.36701   0.55378   0.26302   0.00000  Uiso   1.00
C159   C     0.33955   0.81799   0.36483   0.00000  Uiso   1.00
C160   C     0.28977   0.84138   0.41730   0.00000  Uiso   1.00
C161   C     0.32540   0.89022   0.49408   0.00000  Uiso   1.00
H162   H     0.52919   0.82893   0.33943   0.00000  Uiso   1.00
H163   H     0.53912   0.90389   0.21736   0.00000  Uiso   1.00
H164   H     0.55003   0.67944   0.32448   0.00000  Uiso   1.00
H165   H     0.52148   0.91027   0.48299   0.00000  Uiso   1.00
H166   H     0.51377   0.97616   0.07171   0.00000  Uiso   1.00
H167   H     0.53679   0.50290   0.29759   0.00000  Uiso   1.00
H168   H     0.47658   0.98964   0.63185   0.00000  Uiso   1.00
H169   H     0.24906   0.74563   0.25999   0.00000  Uiso   1.00
H170   H     0.24362   0.81602   0.13357   0.00000  Uiso   1.00
H171   H     0.25454   0.59157   0.24068   0.00000  Uiso   1.00
H172   H     0.22598   0.82240   0.39920   0.00000  Uiso   1.00
H173   H     0.27394   0.90484   0.00369   0.00000  Uiso   1.00
H174   H     0.29695   0.43158   0.22958   0.00000  Uiso   1.00
H175   H     0.23674   0.91832   0.56384   0.00000  Uiso   1.00
O176   O     0.39533   0.98828   0.95595   0.00000  Uiso   1.00
O177   O     0.42553   0.36739   0.25232   0.00000  Uiso   1.00
O178   O     0.34653   0.00598   0.69085   0.00000  Uiso   1.00
N179   N     0.45807   0.94973   0.07306   0.00000  Uiso   1.00
N180   N     0.47959   0.50726   0.28423   0.00000  Uiso   1.00
N181   N     0.42330   0.96230   0.59675   0.00000  Uiso   1.00
N182   N     0.32902   0.91135   0.03646   0.00000  Uiso   1.00
N183   N     0.35054   0.46888   0.24764   0.00000  Uiso   1.00
N184   N     0.29425   0.92392   0.56015   0.00000  Uiso   1.00
C185   C     0.32558   0.47104   0.81236   0.00000  Uiso   1.00
C186   C     0.25145   0.43705   0.84269   0.00000  Uiso   1.00
C187   C     0.20964   0.48271   0.89004   0.00000  Uiso   1.00
C188   C     0.14337   0.44019   0.91146   0.00000  Uiso   1.00
C189   C     0.03182   0.40037   0.96233   0.00000  Uiso   1.00
C190   C     0.30670   0.44284   0.71848   0.00000  Uiso   1.00
C191   C     0.31135   0.49338   0.66141   0.00000  Uiso   1.00
C192   C     0.29160   0.45572   0.57827   0.00000  Uiso   1.00
C193   C     0.26588   0.42490   0.43631   0.00000  Uiso   1.00
C194   C     0.38890   0.42582   0.84426   0.00000  Uiso   1.00
C195   C     0.46268   0.46203   0.89293   0.00000  Uiso   1.00
C196   C     0.51215   0.41004   0.91569   0.00000  Uiso   1.00
C197   C     0.61407   0.35277   0.96903   0.00000  Uiso   1.00
C198   C     0.28225   0.31432   0.76620   0.00000  Uiso   1.00
C199   C     0.22792   0.35193   0.81761   0.00000  Uiso   1.00
C200   C     0.16170   0.30932   0.83897   0.00000  Uiso   1.00
C201   C     0.11979   0.35491   0.88635   0.00000  Uiso   1.00
C202   C     0.28316   0.35772   0.69341   0.00000  Uiso   1.00
C203   C     0.26341   0.31999   0.61034   0.00000  Uiso   1.00
C204   C     0.26803   0.37045   0.55315   0.00000  Uiso   1.00
C205   C     0.36537   0.34069   0.81920   0.00000  Uiso   1.00
C206   C     0.41474   0.28864   0.84187   0.00000  Uiso   1.00
C207   C     0.48858   0.32476   0.89057   0.00000  Uiso   1.00
H208   H     0.34391   0.53731   0.83187   0.00000  Uiso   1.00
H209   H     0.22787   0.54859   0.90942   0.00000  Uiso   1.00
H210   H     0.32957   0.55925   0.68083   0.00000  Uiso   1.00
H211   H     0.48088   0.52790   0.91232   0.00000  Uiso   1.00
H212   H     0.08882   0.52356   0.98432   0.00000  Uiso   1.00
H213   H     0.30330   0.54603   0.50232   0.00000  Uiso   1.00
H214   H     0.62235   0.47994   0.99047   0.00000  Uiso   1.00
H215   H     0.26393   0.24804   0.74668   0.00000  Uiso   1.00
H216   H     0.14350   0.24345   0.81956   0.00000  Uiso   1.00
H217   H     0.24520   0.25411   0.59096   0.00000  Uiso   1.00
H218   H     0.39651   0.22277   0.82246   0.00000  Uiso   1.00
H219   H     0.02034   0.27590   0.91138   0.00000  Uiso   1.00
H220   H     0.23482   0.29837   0.42937   0.00000  Uiso   1.00
H221   H     0.55387   0.23228   0.91753   0.00000  Uiso   1.00
O222   O     0.97678   0.40193   0.99731   0.00000  Uiso   1.00
O223   O     0.25819   0.43141   0.36494   0.00000  Uiso   1.00
O224   O     0.67678   0.34470   0.00539   0.00000  Uiso   1.00
N225   N     0.08924   0.46590   0.95717   0.00000  Uiso   1.00
N226   N     0.28975   0.48691   0.50652   0.00000  Uiso   1.00
N227   N     0.58805   0.42512   0.96288   0.00000  Uiso   1.00
N228   N     0.05239   0.33263   0.91792   0.00000  Uiso   1.00
N229   N     0.25290   0.35365   0.46727   0.00000  Uiso   1.00
N230   N     0.55120   0.29186   0.92364   0.00000  Uiso   1.00
C231   C     0.81196   0.32409   0.47206   0.00000  Uiso   1.00
C232   C     0.83972   0.24709   0.43675   0.00000  Uiso   1.00
C233   C     0.88438   0.20329   0.48210   0.00000  Uiso   1.00
C234   C     0.90375   0.13453   0.43832   0.00000  Uiso   1.00
C235   C     0.95054   0.01860   0.39660   0.00000  Uiso   1.00
C236   C     0.72212   0.30543   0.44460   0.00000  Uiso   1.00
C237   C     0.66790   0.31069   0.49654   0.00000  Uiso   1.00
C238   C     0.58826   0.29105   0.45935   0.00000  Uiso   1.00
C239   C     0.45247   0.26574   0.42981   0.00000  Uiso   1.00
C240   C     0.84318   0.38944   0.42627   0.00000  Uiso   1.00
C241   C     0.89074   0.46536   0.46280   0.00000  Uiso   1.00
C242   C     0.91301   0.51646   0.41019   0.00000  Uiso   1.00
C243   C     0.96519   0.62160   0.35219   0.00000  Uiso   1.00
C244   C     0.76693   0.27986   0.31367   0.00000  Uiso   1.00
C245   C     0.81526   0.22307   0.35072   0.00000  Uiso   1.00
C246   C     0.83456   0.15436   0.30686   0.00000  Uiso   1.00
C247   C     0.87925   0.11047   0.35213   0.00000  Uiso   1.00
C248   C     0.69766   0.28140   0.35857   0.00000  Uiso   1.00
C249   C     0.61808   0.26176   0.32130   0.00000  Uiso   1.00
C250   C     0.56376   0.26698   0.37317   0.00000  Uiso   1.00
C251   C     0.81872   0.36542   0.34024   0.00000  Uiso   1.00
C252   C     0.84092   0.41642   0.28757   0.00000  Uiso   1.00
C253   C     0.88850   0.49239   0.32401   0.00000  Uiso   1.00
H254   H     0.83100   0.34280   0.53903   0.00000  Uiso   1.00
H255   H     0.90329   0.22190   0.54868   0.00000  Uiso   1.00
H256   H     0.68685   0.32929   0.56311   0.00000  Uiso   1.00
H257   H     0.90965   0.48393   0.52938   0.00000  Uiso   1.00
H258   H     0.97264   0.07726   0.52143   0.00000  Uiso   1.00
H259   H     0.51624   0.30372   0.55187   0.00000  Uiso   1.00
H260   H     0.98607   0.62981   0.48074   0.00000  Uiso   1.00
H261   H     0.74789   0.26116   0.24669   0.00000  Uiso   1.00
H262   H     0.81563   0.13578   0.24029   0.00000  Uiso   1.00
H263   H     0.59917   0.24317   0.25472   0.00000  Uiso   1.00
H264   H     0.82198   0.39781   0.22099   0.00000  Uiso   1.00
H265   H     0.90148   0.00736   0.27113   0.00000  Uiso   1.00
H266   H     0.44508   0.23382   0.30157   0.00000  Uiso   1.00
H267   H     0.91491   0.55991   0.23044   0.00000  Uiso   1.00
O268   O     0.98309   0.96129   0.39735   0.00000  Uiso   1.00
O269   O     0.38433   0.25841   0.43728   0.00000  Uiso   1.00
O270   O     0.00073   0.68623   0.34397   0.00000  Uiso   1.00
N271   N     0.94661   0.07802   0.46340   0.00000  Uiso   1.00
N272   N     0.51991   0.28974   0.49185   0.00000  Uiso   1.00
N273   N     0.95914   0.59461   0.42536   0.00000  Uiso   1.00
N274   N     0.90832   0.04041   0.32872   0.00000  Uiso   1.00
N275   N     0.48162   0.25212   0.35717   0.00000  Uiso   1.00
N276   N     0.92085   0.55700   0.29068   0.00000  Uiso   1.00
