data_job_00178
_audit_creation_date              2018-12-19
_audit_creation_method            'Materials Studio'
_symmetry_space_group_name_H-M    'P1'
_symmetry_Int_Tables_number       1
_symmetry_cell_setting            triclinic
loop_
_symmetry_equiv_pos_as_xyz
  x,y,z
_cell_length_a                    18.2997
_cell_length_b                    15.4385
_cell_length_c                    18.7382
_cell_angle_alpha                 90.0000
_cell_angle_beta                  126.5184
_cell_angle_gamma                 90.0000
loop_
_atom_site_label
_atom_site_type_symbol
_atom_site_fract_x
_atom_site_fract_y
_atom_site_fract_z
_atom_site_U_iso_or_equiv
_atom_site_adp_type
_atom_site_occupancy
C1     C     0.79933   0.99213   0.78795   0.00000  Uiso   1.00
C2     C     0.79958   0.96213   0.86563   0.00000  Uiso   1.00
C3     C     0.86911   0.97565   0.95485   0.00000  Uiso   1.00
C4     C     0.85633   0.94312   0.01577   0.00000  Uiso   1.00
C5     C     0.86882   0.90325   0.14056   0.00000  Uiso   1.00
C6     C     0.78412   0.91101   0.73424   0.00000  Uiso   1.00
C7     C     0.84065   0.88156   0.71299   0.00000  Uiso   1.00
C8     C     0.81485   0.80599   0.66329   0.00000  Uiso   1.00
C9     C     0.80331   0.68680   0.58404   0.00000  Uiso   1.00
C10    C     0.71401   0.04718   0.72939   0.00000  Uiso   1.00
C11    C     0.71158   0.13222   0.70403   0.00000  Uiso   1.00
C12    C     0.62674   0.17129   0.65022   0.00000  Uiso   1.00
C13    C     0.50634   0.26353   0.56344   0.00000  Uiso   1.00
C14    C     0.65298   0.91032   0.73748   0.00000  Uiso   1.00
C15    C     0.72008   0.91769   0.83821   0.00000  Uiso   1.00
C16    C     0.70719   0.88514   0.89901   0.00000  Uiso   1.00
C17    C     0.77669   0.89860   0.98831   0.00000  Uiso   1.00
C18    C     0.70463   0.86657   0.70683   0.00000  Uiso   1.00
C19    C     0.67873   0.79104   0.65714   0.00000  Uiso   1.00
C20    C     0.73521   0.76147   0.63582   0.00000  Uiso   1.00
C21    C     0.63451   0.00275   0.70197   0.00000  Uiso   1.00
C22    C     0.54966   0.04170   0.64819   0.00000  Uiso   1.00
C23    C     0.54711   0.12678   0.62276   0.00000  Uiso   1.00
H24    H     0.86122   0.02672   0.80929   0.00000  Uiso   1.00
H25    H     0.93062   0.01003   0.97605   0.00000  Uiso   1.00
H26    H     0.90216   0.91596   0.73421   0.00000  Uiso   1.00
H27    H     0.77311   0.16658   0.72526   0.00000  Uiso   1.00
H28    H     0.97253   0.97191   0.14883   0.00000  Uiso   1.00
H29    H     0.91250   0.77356   0.63888   0.00000  Uiso   1.00
H30    H     0.64037   0.30205   0.62000   0.00000  Uiso   1.00
H31    H     0.59109   0.87572   0.71613   0.00000  Uiso   1.00
H32    H     0.64567   0.85075   0.87777   0.00000  Uiso   1.00
H33    H     0.61721   0.75667   0.63593   0.00000  Uiso   1.00
H34    H     0.48816   0.00729   0.62698   0.00000  Uiso   1.00
H35    H     0.74125   0.84262   0.06907   0.00000  Uiso   1.00
H36    H     0.68122   0.64428   0.55911   0.00000  Uiso   1.00
H37    H     0.40909   0.17276   0.54024   0.00000  Uiso   1.00
O38    O     0.89768   0.89353   0.21696   0.00000  Uiso   1.00
O39    O     0.81892   0.63333   0.54791   0.00000  Uiso   1.00
O40    O     0.46189   0.32668   0.52315   0.00000  Uiso   1.00
N41    N     0.91060   0.94492   0.10787   0.00000  Uiso   1.00
N42    N     0.85449   0.75947   0.63111   0.00000  Uiso   1.00
N43    N     0.60006   0.25355   0.61344   0.00000  Uiso   1.00
N44    N     0.78615   0.87536   0.06496   0.00000  Uiso   1.00
N45    N     0.73004   0.68991   0.58819   0.00000  Uiso   1.00
N46    N     0.47561   0.18399   0.57052   0.00000  Uiso   1.00
C47    C     0.29933   0.49213   0.78795   0.00000  Uiso   1.00
C48    C     0.29958   0.46213   0.86563   0.00000  Uiso   1.00
C49    C     0.36911   0.47565   0.95485   0.00000  Uiso   1.00
C50    C     0.35633   0.44312   0.01577   0.00000  Uiso   1.00
C51    C     0.36882   0.40325   0.14056   0.00000  Uiso   1.00
C52    C     0.28412   0.41101   0.73424   0.00000  Uiso   1.00
C53    C     0.34065   0.38156   0.71299   0.00000  Uiso   1.00
C54    C     0.31485   0.30599   0.66329   0.00000  Uiso   1.00
C55    C     0.30331   0.18680   0.58404   0.00000  Uiso   1.00
C56    C     0.21401   0.54718   0.72939   0.00000  Uiso   1.00
C57    C     0.21158   0.63222   0.70403   0.00000  Uiso   1.00
C58    C     0.12674   0.67129   0.65022   0.00000  Uiso   1.00
C59    C     0.00634   0.76353   0.56344   0.00000  Uiso   1.00
C60    C     0.15298   0.41032   0.73748   0.00000  Uiso   1.00
C61    C     0.22008   0.41769   0.83821   0.00000  Uiso   1.00
C62    C     0.20719   0.38514   0.89901   0.00000  Uiso   1.00
C63    C     0.27669   0.39860   0.98831   0.00000  Uiso   1.00
C64    C     0.20463   0.36657   0.70683   0.00000  Uiso   1.00
C65    C     0.17873   0.29104   0.65714   0.00000  Uiso   1.00
C66    C     0.23521   0.26147   0.63582   0.00000  Uiso   1.00
C67    C     0.13451   0.50275   0.70197   0.00000  Uiso   1.00
C68    C     0.04966   0.54170   0.64819   0.00000  Uiso   1.00
C69    C     0.04711   0.62678   0.62276   0.00000  Uiso   1.00
H70    H     0.36122   0.52672   0.80929   0.00000  Uiso   1.00
H71    H     0.43062   0.51003   0.97605   0.00000  Uiso   1.00
H72    H     0.40216   0.41596   0.73421   0.00000  Uiso   1.00
H73    H     0.27311   0.66658   0.72526   0.00000  Uiso   1.00
H74    H     0.47253   0.47191   0.14883   0.00000  Uiso   1.00
H75    H     0.41250   0.27356   0.63888   0.00000  Uiso   1.00
H76    H     0.14037   0.80205   0.62000   0.00000  Uiso   1.00
H77    H     0.09109   0.37572   0.71613   0.00000  Uiso   1.00
H78    H     0.14567   0.35075   0.87777   0.00000  Uiso   1.00
H79    H     0.11721   0.25667   0.63593   0.00000  Uiso   1.00
H80    H     0.98816   0.50729   0.62698   0.00000  Uiso   1.00
H81    H     0.24125   0.34262   0.06907   0.00000  Uiso   1.00
H82    H     0.18122   0.14428   0.55911   0.00000  Uiso   1.00
H83    H     0.90909   0.67276   0.54024   0.00000  Uiso   1.00
O84    O     0.39768   0.39353   0.21696   0.00000  Uiso   1.00
O85    O     0.31892   0.13333   0.54791   0.00000  Uiso   1.00
O86    O     0.96189   0.82668   0.52315   0.00000  Uiso   1.00
N87    N     0.41060   0.44492   0.10787   0.00000  Uiso   1.00
N88    N     0.35449   0.25947   0.63111   0.00000  Uiso   1.00
N89    N     0.10006   0.75355   0.61344   0.00000  Uiso   1.00
N90    N     0.28615   0.37536   0.06496   0.00000  Uiso   1.00
N91    N     0.23004   0.18991   0.58819   0.00000  Uiso   1.00
N92    N     0.97561   0.68399   0.57052   0.00000  Uiso   1.00
C93    C     0.20067   0.99213   0.71205   0.00000  Uiso   1.00
C94    C     0.20042   0.96213   0.63437   0.00000  Uiso   1.00
C95    C     0.13089   0.97565   0.54515   0.00000  Uiso   1.00
C96    C     0.14367   0.94312   0.48423   0.00000  Uiso   1.00
C97    C     0.13118   0.90325   0.35944   0.00000  Uiso   1.00
C98    C     0.21588   0.91101   0.76576   0.00000  Uiso   1.00
C99    C     0.15935   0.88156   0.78701   0.00000  Uiso   1.00
C100   C     0.18515   0.80599   0.83671   0.00000  Uiso   1.00
C101   C     0.19669   0.68680   0.91596   0.00000  Uiso   1.00
C102   C     0.28599   0.04718   0.77061   0.00000  Uiso   1.00
C103   C     0.28842   0.13222   0.79597   0.00000  Uiso   1.00
C104   C     0.37326   0.17129   0.84978   0.00000  Uiso   1.00
C105   C     0.49366   0.26353   0.93656   0.00000  Uiso   1.00
C106   C     0.34702   0.91032   0.76252   0.00000  Uiso   1.00
C107   C     0.27992   0.91769   0.66179   0.00000  Uiso   1.00
C108   C     0.29281   0.88514   0.60099   0.00000  Uiso   1.00
C109   C     0.22331   0.89860   0.51169   0.00000  Uiso   1.00
C110   C     0.29537   0.86657   0.79317   0.00000  Uiso   1.00
C111   C     0.32127   0.79104   0.84286   0.00000  Uiso   1.00
C112   C     0.26479   0.76147   0.86418   0.00000  Uiso   1.00
C113   C     0.36549   0.00275   0.79803   0.00000  Uiso   1.00
C114   C     0.45034   0.04170   0.85181   0.00000  Uiso   1.00
C115   C     0.45289   0.12678   0.87724   0.00000  Uiso   1.00
H116   H     0.13878   0.02672   0.69071   0.00000  Uiso   1.00
H117   H     0.06938   0.01003   0.52395   0.00000  Uiso   1.00
H118   H     0.09784   0.91596   0.76579   0.00000  Uiso   1.00
H119   H     0.22689   0.16658   0.77474   0.00000  Uiso   1.00
H120   H     0.02747   0.97191   0.35117   0.00000  Uiso   1.00
H121   H     0.08750   0.77356   0.86112   0.00000  Uiso   1.00
H122   H     0.35963   0.30205   0.88000   0.00000  Uiso   1.00
H123   H     0.40891   0.87572   0.78387   0.00000  Uiso   1.00
H124   H     0.35433   0.85075   0.62223   0.00000  Uiso   1.00
H125   H     0.38279   0.75667   0.86407   0.00000  Uiso   1.00
H126   H     0.51184   0.00729   0.87302   0.00000  Uiso   1.00
H127   H     0.25875   0.84262   0.43093   0.00000  Uiso   1.00
H128   H     0.31878   0.64428   0.94089   0.00000  Uiso   1.00
H129   H     0.59091   0.17276   0.95976   0.00000  Uiso   1.00
O130   O     0.10232   0.89353   0.28304   0.00000  Uiso   1.00
O131   O     0.18108   0.63333   0.95209   0.00000  Uiso   1.00
O132   O     0.53811   0.32668   0.97685   0.00000  Uiso   1.00
N133   N     0.08940   0.94492   0.39213   0.00000  Uiso   1.00
N134   N     0.14551   0.75947   0.86889   0.00000  Uiso   1.00
N135   N     0.39994   0.25355   0.88656   0.00000  Uiso   1.00
N136   N     0.21385   0.87536   0.43504   0.00000  Uiso   1.00
N137   N     0.26996   0.68991   0.91181   0.00000  Uiso   1.00
N138   N     0.52439   0.18399   0.92948   0.00000  Uiso   1.00
C139   C     0.70067   0.49213   0.71205   0.00000  Uiso   1.00
C140   C     0.70042   0.46213   0.63437   0.00000  Uiso   1.00
C141   C     0.63089   0.47565   0.54515   0.00000  Uiso   1.00
C142   C     0.64367   0.44312   0.48423   0.00000  Uiso   1.00
C143   C     0.63118   0.40325   0.35944   0.00000  Uiso   1.00
C144   C     0.71588   0.41101   0.76576   0.00000  Uiso   1.00
C145   C     0.65935   0.38156   0.78701   0.00000  Uiso   1.00
C146   C     0.68515   0.30599   0.83671   0.00000  Uiso   1.00
C147   C     0.69669   0.18680   0.91596   0.00000  Uiso   1.00
C148   C     0.78599   0.54718   0.77061   0.00000  Uiso   1.00
C149   C     0.78842   0.63222   0.79597   0.00000  Uiso   1.00
C150   C     0.87326   0.67129   0.84978   0.00000  Uiso   1.00
C151   C     0.99366   0.76353   0.93656   0.00000  Uiso   1.00
C152   C     0.84702   0.41032   0.76252   0.00000  Uiso   1.00
C153   C     0.77992   0.41769   0.66179   0.00000  Uiso   1.00
C154   C     0.79281   0.38514   0.60099   0.00000  Uiso   1.00
C155   C     0.72331   0.39860   0.51169   0.00000  Uiso   1.00
C156   C     0.79537   0.36657   0.79317   0.00000  Uiso   1.00
C157   C     0.82127   0.29104   0.84286   0.00000  Uiso   1.00
C158   C     0.76479   0.26147   0.86418   0.00000  Uiso   1.00
C159   C     0.86549   0.50275   0.79803   0.00000  Uiso   1.00
C160   C     0.95034   0.54170   0.85181   0.00000  Uiso   1.00
C161   C     0.95289   0.62678   0.87724   0.00000  Uiso   1.00
H162   H     0.63878   0.52672   0.69071   0.00000  Uiso   1.00
H163   H     0.56938   0.51003   0.52395   0.00000  Uiso   1.00
H164   H     0.59784   0.41596   0.76579   0.00000  Uiso   1.00
H165   H     0.72689   0.66658   0.77474   0.00000  Uiso   1.00
H166   H     0.52747   0.47191   0.35117   0.00000  Uiso   1.00
H167   H     0.58750   0.27356   0.86112   0.00000  Uiso   1.00
H168   H     0.85963   0.80205   0.88000   0.00000  Uiso   1.00
H169   H     0.90891   0.37572   0.78387   0.00000  Uiso   1.00
H170   H     0.85433   0.35075   0.62223   0.00000  Uiso   1.00
H171   H     0.88279   0.25667   0.86407   0.00000  Uiso   1.00
H172   H     0.01184   0.50729   0.87302   0.00000  Uiso   1.00
H173   H     0.75875   0.34262   0.43093   0.00000  Uiso   1.00
H174   H     0.81878   0.14428   0.94089   0.00000  Uiso   1.00
H175   H     0.09091   0.67276   0.95976   0.00000  Uiso   1.00
O176   O     0.60232   0.39353   0.28304   0.00000  Uiso   1.00
O177   O     0.68108   0.13333   0.95209   0.00000  Uiso   1.00
O178   O     0.03811   0.82668   0.97685   0.00000  Uiso   1.00
N179   N     0.58940   0.44492   0.39213   0.00000  Uiso   1.00
N180   N     0.64551   0.25947   0.86889   0.00000  Uiso   1.00
N181   N     0.89994   0.75355   0.88656   0.00000  Uiso   1.00
N182   N     0.71385   0.37536   0.43504   0.00000  Uiso   1.00
N183   N     0.76996   0.18991   0.91181   0.00000  Uiso   1.00
N184   N     0.02439   0.68399   0.92948   0.00000  Uiso   1.00
C185   C     0.20067   0.00787   0.21205   0.00000  Uiso   1.00
C186   C     0.20042   0.03787   0.13437   0.00000  Uiso   1.00
C187   C     0.13089   0.02435   0.04515   0.00000  Uiso   1.00
C188   C     0.14367   0.05688   0.98423   0.00000  Uiso   1.00
C189   C     0.13118   0.09675   0.85944   0.00000  Uiso   1.00
C190   C     0.21588   0.08899   0.26576   0.00000  Uiso   1.00
C191   C     0.15935   0.11844   0.28701   0.00000  Uiso   1.00
C192   C     0.18515   0.19401   0.33671   0.00000  Uiso   1.00
C193   C     0.19669   0.31320   0.41596   0.00000  Uiso   1.00
C194   C     0.28599   0.95282   0.27061   0.00000  Uiso   1.00
C195   C     0.28842   0.86778   0.29597   0.00000  Uiso   1.00
C196   C     0.37326   0.82871   0.34978   0.00000  Uiso   1.00
C197   C     0.49366   0.73647   0.43656   0.00000  Uiso   1.00
C198   C     0.34702   0.08968   0.26252   0.00000  Uiso   1.00
C199   C     0.27992   0.08231   0.16179   0.00000  Uiso   1.00
C200   C     0.29281   0.11486   0.10099   0.00000  Uiso   1.00
C201   C     0.22331   0.10140   0.01169   0.00000  Uiso   1.00
C202   C     0.29537   0.13343   0.29317   0.00000  Uiso   1.00
C203   C     0.32127   0.20896   0.34286   0.00000  Uiso   1.00
C204   C     0.26479   0.23853   0.36418   0.00000  Uiso   1.00
C205   C     0.36549   0.99725   0.29803   0.00000  Uiso   1.00
C206   C     0.45034   0.95830   0.35181   0.00000  Uiso   1.00
C207   C     0.45289   0.87322   0.37724   0.00000  Uiso   1.00
H208   H     0.13878   0.97328   0.19071   0.00000  Uiso   1.00
H209   H     0.06938   0.98997   0.02395   0.00000  Uiso   1.00
H210   H     0.09784   0.08404   0.26579   0.00000  Uiso   1.00
H211   H     0.22689   0.83342   0.27474   0.00000  Uiso   1.00
H212   H     0.02747   0.02809   0.85117   0.00000  Uiso   1.00
H213   H     0.08750   0.22644   0.36112   0.00000  Uiso   1.00
H214   H     0.35963   0.69795   0.38000   0.00000  Uiso   1.00
H215   H     0.40891   0.12428   0.28387   0.00000  Uiso   1.00
H216   H     0.35433   0.14925   0.12223   0.00000  Uiso   1.00
H217   H     0.38279   0.24333   0.36407   0.00000  Uiso   1.00
H218   H     0.51184   0.99271   0.37302   0.00000  Uiso   1.00
H219   H     0.25875   0.15738   0.93093   0.00000  Uiso   1.00
H220   H     0.31878   0.35572   0.44089   0.00000  Uiso   1.00
H221   H     0.59091   0.82724   0.45976   0.00000  Uiso   1.00
O222   O     0.10232   0.10647   0.78304   0.00000  Uiso   1.00
O223   O     0.18108   0.36667   0.45209   0.00000  Uiso   1.00
O224   O     0.53811   0.67332   0.47685   0.00000  Uiso   1.00
N225   N     0.08940   0.05508   0.89213   0.00000  Uiso   1.00
N226   N     0.14551   0.24053   0.36889   0.00000  Uiso   1.00
N227   N     0.39994   0.74645   0.38656   0.00000  Uiso   1.00
N228   N     0.21385   0.12464   0.93504   0.00000  Uiso   1.00
N229   N     0.26996   0.31009   0.41181   0.00000  Uiso   1.00
N230   N     0.52439   0.81601   0.42948   0.00000  Uiso   1.00
C231   C     0.70067   0.50787   0.21205   0.00000  Uiso   1.00
C232   C     0.70042   0.53787   0.13437   0.00000  Uiso   1.00
C233   C     0.63089   0.52435   0.04515   0.00000  Uiso   1.00
C234   C     0.64367   0.55688   0.98423   0.00000  Uiso   1.00
C235   C     0.63118   0.59675   0.85944   0.00000  Uiso   1.00
C236   C     0.71588   0.58899   0.26576   0.00000  Uiso   1.00
C237   C     0.65935   0.61844   0.28701   0.00000  Uiso   1.00
C238   C     0.68515   0.69401   0.33671   0.00000  Uiso   1.00
C239   C     0.69669   0.81320   0.41596   0.00000  Uiso   1.00
C240   C     0.78599   0.45282   0.27061   0.00000  Uiso   1.00
C241   C     0.78842   0.36778   0.29597   0.00000  Uiso   1.00
C242   C     0.87326   0.32871   0.34978   0.00000  Uiso   1.00
C243   C     0.99366   0.23647   0.43656   0.00000  Uiso   1.00
C244   C     0.84702   0.58968   0.26252   0.00000  Uiso   1.00
C245   C     0.77992   0.58231   0.16179   0.00000  Uiso   1.00
C246   C     0.79281   0.61486   0.10099   0.00000  Uiso   1.00
C247   C     0.72331   0.60140   0.01169   0.00000  Uiso   1.00
C248   C     0.79537   0.63343   0.29317   0.00000  Uiso   1.00
C249   C     0.82127   0.70896   0.34286   0.00000  Uiso   1.00
C250   C     0.76479   0.73853   0.36418   0.00000  Uiso   1.00
C251   C     0.86549   0.49725   0.29803   0.00000  Uiso   1.00
C252   C     0.95034   0.45830   0.35181   0.00000  Uiso   1.00
C253   C     0.95289   0.37322   0.37724   0.00000  Uiso   1.00
H254   H     0.63878   0.47328   0.19071   0.00000  Uiso   1.00
H255   H     0.56938   0.48997   0.02395   0.00000  Uiso   1.00
H256   H     0.59784   0.58404   0.26579   0.00000  Uiso   1.00
H257   H     0.72689   0.33342   0.27474   0.00000  Uiso   1.00
H258   H     0.52747   0.52809   0.85117   0.00000  Uiso   1.00
H259   H     0.58750   0.72644   0.36112   0.00000  Uiso   1.00
H260   H     0.85963   0.19795   0.38000   0.00000  Uiso   1.00
H261   H     0.90891   0.62428   0.28387   0.00000  Uiso   1.00
H262   H     0.85433   0.64925   0.12223   0.00000  Uiso   1.00
H263   H     0.88279   0.74333   0.36407   0.00000  Uiso   1.00
H264   H     0.01184   0.49271   0.37302   0.00000  Uiso   1.00
H265   H     0.75875   0.65738   0.93093   0.00000  Uiso   1.00
H266   H     0.81878   0.85572   0.44089   0.00000  Uiso   1.00
H267   H     0.09091   0.32724   0.45976   0.00000  Uiso   1.00
O268   O     0.60232   0.60647   0.78304   0.00000  Uiso   1.00
O269   O     0.68108   0.86667   0.45209   0.00000  Uiso   1.00
O270   O     0.03811   0.17332   0.47685   0.00000  Uiso   1.00
N271   N     0.58940   0.55508   0.89213   0.00000  Uiso   1.00
N272   N     0.64551   0.74053   0.36889   0.00000  Uiso   1.00
N273   N     0.89994   0.24645   0.38656   0.00000  Uiso   1.00
N274   N     0.71385   0.62464   0.93504   0.00000  Uiso   1.00
N275   N     0.76996   0.81009   0.41181   0.00000  Uiso   1.00
N276   N     0.02439   0.31601   0.42948   0.00000  Uiso   1.00
C277   C     0.79933   0.00787   0.28795   0.00000  Uiso   1.00
C278   C     0.79958   0.03787   0.36563   0.00000  Uiso   1.00
C279   C     0.86911   0.02435   0.45485   0.00000  Uiso   1.00
C280   C     0.85633   0.05688   0.51577   0.00000  Uiso   1.00
C281   C     0.86882   0.09675   0.64056   0.00000  Uiso   1.00
C282   C     0.78412   0.08899   0.23424   0.00000  Uiso   1.00
C283   C     0.84065   0.11844   0.21299   0.00000  Uiso   1.00
C284   C     0.81485   0.19401   0.16329   0.00000  Uiso   1.00
C285   C     0.80331   0.31320   0.08404   0.00000  Uiso   1.00
C286   C     0.71401   0.95282   0.22939   0.00000  Uiso   1.00
C287   C     0.71158   0.86778   0.20403   0.00000  Uiso   1.00
C288   C     0.62674   0.82871   0.15022   0.00000  Uiso   1.00
C289   C     0.50634   0.73647   0.06344   0.00000  Uiso   1.00
C290   C     0.65298   0.08968   0.23748   0.00000  Uiso   1.00
C291   C     0.72008   0.08231   0.33821   0.00000  Uiso   1.00
C292   C     0.70719   0.11486   0.39901   0.00000  Uiso   1.00
C293   C     0.77669   0.10140   0.48831   0.00000  Uiso   1.00
C294   C     0.70463   0.13343   0.20683   0.00000  Uiso   1.00
C295   C     0.67873   0.20896   0.15714   0.00000  Uiso   1.00
C296   C     0.73521   0.23853   0.13582   0.00000  Uiso   1.00
C297   C     0.63451   0.99725   0.20197   0.00000  Uiso   1.00
C298   C     0.54966   0.95830   0.14819   0.00000  Uiso   1.00
C299   C     0.54711   0.87322   0.12276   0.00000  Uiso   1.00
H300   H     0.86122   0.97328   0.30929   0.00000  Uiso   1.00
H301   H     0.93062   0.98997   0.47605   0.00000  Uiso   1.00
H302   H     0.90216   0.08404   0.23421   0.00000  Uiso   1.00
H303   H     0.77311   0.83342   0.22526   0.00000  Uiso   1.00
H304   H     0.97253   0.02809   0.64883   0.00000  Uiso   1.00
H305   H     0.91250   0.22644   0.13888   0.00000  Uiso   1.00
H306   H     0.64037   0.69795   0.12000   0.00000  Uiso   1.00
H307   H     0.59109   0.12428   0.21613   0.00000  Uiso   1.00
H308   H     0.64567   0.14925   0.37777   0.00000  Uiso   1.00
H309   H     0.61721   0.24333   0.13593   0.00000  Uiso   1.00
H310   H     0.48816   0.99271   0.12698   0.00000  Uiso   1.00
H311   H     0.74125   0.15738   0.56907   0.00000  Uiso   1.00
H312   H     0.68122   0.35572   0.05911   0.00000  Uiso   1.00
H313   H     0.40909   0.82724   0.04024   0.00000  Uiso   1.00
O314   O     0.89768   0.10647   0.71696   0.00000  Uiso   1.00
O315   O     0.81892   0.36667   0.04791   0.00000  Uiso   1.00
O316   O     0.46189   0.67332   0.02315   0.00000  Uiso   1.00
N317   N     0.91060   0.05508   0.60787   0.00000  Uiso   1.00
N318   N     0.85449   0.24053   0.13111   0.00000  Uiso   1.00
N319   N     0.60006   0.74645   0.11344   0.00000  Uiso   1.00
N320   N     0.78615   0.12464   0.56496   0.00000  Uiso   1.00
N321   N     0.73004   0.31009   0.08819   0.00000  Uiso   1.00
N322   N     0.47561   0.81601   0.07052   0.00000  Uiso   1.00
C323   C     0.29933   0.50787   0.28795   0.00000  Uiso   1.00
C324   C     0.29958   0.53787   0.36563   0.00000  Uiso   1.00
C325   C     0.36911   0.52435   0.45485   0.00000  Uiso   1.00
C326   C     0.35633   0.55688   0.51577   0.00000  Uiso   1.00
C327   C     0.36882   0.59675   0.64056   0.00000  Uiso   1.00
C328   C     0.28412   0.58899   0.23424   0.00000  Uiso   1.00
C329   C     0.34065   0.61844   0.21299   0.00000  Uiso   1.00
C330   C     0.31485   0.69401   0.16329   0.00000  Uiso   1.00
C331   C     0.30331   0.81320   0.08404   0.00000  Uiso   1.00
C332   C     0.21401   0.45282   0.22939   0.00000  Uiso   1.00
C333   C     0.21158   0.36778   0.20403   0.00000  Uiso   1.00
C334   C     0.12674   0.32871   0.15022   0.00000  Uiso   1.00
C335   C     0.00634   0.23647   0.06344   0.00000  Uiso   1.00
C336   C     0.15298   0.58968   0.23748   0.00000  Uiso   1.00
C337   C     0.22008   0.58231   0.33821   0.00000  Uiso   1.00
C338   C     0.20719   0.61486   0.39901   0.00000  Uiso   1.00
C339   C     0.27669   0.60140   0.48831   0.00000  Uiso   1.00
C340   C     0.20463   0.63343   0.20683   0.00000  Uiso   1.00
C341   C     0.17873   0.70896   0.15714   0.00000  Uiso   1.00
C342   C     0.23521   0.73853   0.13582   0.00000  Uiso   1.00
C343   C     0.13451   0.49725   0.20197   0.00000  Uiso   1.00
C344   C     0.04966   0.45830   0.14819   0.00000  Uiso   1.00
C345   C     0.04711   0.37322   0.12276   0.00000  Uiso   1.00
H346   H     0.36122   0.47328   0.30929   0.00000  Uiso   1.00
H347   H     0.43062   0.48997   0.47605   0.00000  Uiso   1.00
H348   H     0.40216   0.58404   0.23421   0.00000  Uiso   1.00
H349   H     0.27311   0.33342   0.22526   0.00000  Uiso   1.00
H350   H     0.47253   0.52809   0.64883   0.00000  Uiso   1.00
H351   H     0.41250   0.72644   0.13888   0.00000  Uiso   1.00
H352   H     0.14037   0.19795   0.12000   0.00000  Uiso   1.00
H353   H     0.09109   0.62428   0.21613   0.00000  Uiso   1.00
H354   H     0.14567   0.64925   0.37777   0.00000  Uiso   1.00
H355   H     0.11721   0.74333   0.13593   0.00000  Uiso   1.00
H356   H     0.98816   0.49271   0.12698   0.00000  Uiso   1.00
H357   H     0.24125   0.65738   0.56907   0.00000  Uiso   1.00
H358   H     0.18122   0.85572   0.05911   0.00000  Uiso   1.00
H359   H     0.90909   0.32724   0.04024   0.00000  Uiso   1.00
O360   O     0.39768   0.60647   0.71696   0.00000  Uiso   1.00
O361   O     0.31892   0.86667   0.04791   0.00000  Uiso   1.00
O362   O     0.96189   0.17332   0.02315   0.00000  Uiso   1.00
N363   N     0.41060   0.55508   0.60787   0.00000  Uiso   1.00
N364   N     0.35449   0.74053   0.13111   0.00000  Uiso   1.00
N365   N     0.10006   0.24645   0.11344   0.00000  Uiso   1.00
N366   N     0.28615   0.62464   0.56496   0.00000  Uiso   1.00
N367   N     0.23004   0.81009   0.08819   0.00000  Uiso   1.00
N368   N     0.97561   0.31601   0.07052   0.00000  Uiso   1.00
