data_job_02709
_audit_creation_date              2018-12-19
_audit_creation_method            'Materials Studio'
_symmetry_space_group_name_H-M    'P1'
_symmetry_Int_Tables_number       1
_symmetry_cell_setting            triclinic
loop_
_symmetry_equiv_pos_as_xyz
  x,y,z
_cell_length_a                    20.0922
_cell_length_b                    11.7606
_cell_length_c                    20.4780
_cell_angle_alpha                 90.0000
_cell_angle_beta                  90.0000
_cell_angle_gamma                 90.0000
loop_
_atom_site_label
_atom_site_type_symbol
_atom_site_fract_x
_atom_site_fract_y
_atom_site_fract_z
_atom_site_U_iso_or_equiv
_atom_site_adp_type
_atom_site_occupancy
C1     C     0.65712   0.66142   0.01810   0.00000  Uiso   1.00
C2     C     0.63828   0.75671   0.97110   0.00000  Uiso   1.00
C3     C     0.63459   0.74747   0.90364   0.00000  Uiso   1.00
C4     C     0.61643   0.84444   0.86931   0.00000  Uiso   1.00
C5     C     0.58925   0.97679   0.79147   0.00000  Uiso   1.00
C6     C     0.59942   0.65116   0.06611   0.00000  Uiso   1.00
C7     C     0.56306   0.55318   0.07853   0.00000  Uiso   1.00
C8     C     0.51220   0.56129   0.12419   0.00000  Uiso   1.00
C9     C     0.42473   0.52976   0.19387   0.00000  Uiso   1.00
C10    C     0.71607   0.70566   0.05753   0.00000  Uiso   1.00
C11    C     0.77780   0.65349   0.06275   0.00000  Uiso   1.00
C12    C     0.82514   0.70747   0.10120   0.00000  Uiso   1.00
C13    C     0.91879   0.76056   0.15756   0.00000  Uiso   1.00
C14    C     0.63144   0.85005   0.07711   0.00000  Uiso   1.00
C15    C     0.62432   0.85916   0.00316   0.00000  Uiso   1.00
C16    C     0.60617   0.95617   0.96892   0.00000  Uiso   1.00
C17    C     0.60245   0.94708   0.90142   0.00000  Uiso   1.00
C18    C     0.58546   0.75361   0.09816   0.00000  Uiso   1.00
C19    C     0.53465   0.76187   0.14381   0.00000  Uiso   1.00
C20    C     0.49822   0.66393   0.15630   0.00000  Uiso   1.00
C21    C     0.70212   0.80812   0.08958   0.00000  Uiso   1.00
C22    C     0.74938   0.86219   0.12803   0.00000  Uiso   1.00
C23    C     0.81116   0.81011   0.13331   0.00000  Uiso   1.00
H24    H     0.66798   0.58166   0.99315   0.00000  Uiso   1.00
H25    H     0.64538   0.66817   0.87885   0.00000  Uiso   1.00
H26    H     0.57388   0.47390   0.05372   0.00000  Uiso   1.00
H27    H     0.78857   0.57420   0.03794   0.00000  Uiso   1.00
H28    H     0.61414   0.80925   0.76627   0.00000  Uiso   1.00
H29    H     0.46339   0.39962   0.13501   0.00000  Uiso   1.00
H30    H     0.91612   0.61112   0.10173   0.00000  Uiso   1.00
H31    H     0.62057   0.92982   0.10206   0.00000  Uiso   1.00
H32    H     0.59537   0.03544   0.99374   0.00000  Uiso   1.00
H33    H     0.52386   0.84117   0.16861   0.00000  Uiso   1.00
H34    H     0.73856   0.94147   0.15283   0.00000  Uiso   1.00
H35    H     0.57355   0.10734   0.85952   0.00000  Uiso   1.00
H36    H     0.42280   0.69771   0.22825   0.00000  Uiso   1.00
H37    H     0.87553   0.90921   0.19498   0.00000  Uiso   1.00
O38    O     0.57810   0.02149   0.73967   0.00000  Uiso   1.00
O39    O     0.38033   0.48406   0.22345   0.00000  Uiso   1.00
O40    O     0.97430   0.76155   0.17978   0.00000  Uiso   1.00
N41    N     0.60806   0.86492   0.80308   0.00000  Uiso   1.00
N42    N     0.46711   0.48194   0.14782   0.00000  Uiso   1.00
N43    N     0.89037   0.67966   0.11672   0.00000  Uiso   1.00
N44    N     0.58622   0.02532   0.85326   0.00000  Uiso   1.00
N45    N     0.44527   0.64234   0.19799   0.00000  Uiso   1.00
N46    N     0.86853   0.84006   0.16690   0.00000  Uiso   1.00
C47    C     0.84288   0.83858   0.51810   0.00000  Uiso   1.00
C48    C     0.86172   0.74329   0.47110   0.00000  Uiso   1.00
C49    C     0.86541   0.75253   0.40364   0.00000  Uiso   1.00
C50    C     0.88357   0.65556   0.36931   0.00000  Uiso   1.00
C51    C     0.91075   0.52321   0.29147   0.00000  Uiso   1.00
C52    C     0.90058   0.84884   0.56611   0.00000  Uiso   1.00
C53    C     0.93694   0.94682   0.57853   0.00000  Uiso   1.00
C54    C     0.98780   0.93871   0.62419   0.00000  Uiso   1.00
C55    C     0.07527   0.97024   0.69387   0.00000  Uiso   1.00
C56    C     0.78393   0.79434   0.55753   0.00000  Uiso   1.00
C57    C     0.72220   0.84651   0.56275   0.00000  Uiso   1.00
C58    C     0.67486   0.79253   0.60120   0.00000  Uiso   1.00
C59    C     0.58121   0.73944   0.65756   0.00000  Uiso   1.00
C60    C     0.86856   0.64995   0.57711   0.00000  Uiso   1.00
C61    C     0.87568   0.64084   0.50316   0.00000  Uiso   1.00
C62    C     0.89383   0.54383   0.46892   0.00000  Uiso   1.00
C63    C     0.89755   0.55292   0.40142   0.00000  Uiso   1.00
C64    C     0.91454   0.74639   0.59816   0.00000  Uiso   1.00
C65    C     0.96535   0.73813   0.64381   0.00000  Uiso   1.00
C66    C     0.00178   0.83607   0.65630   0.00000  Uiso   1.00
C67    C     0.79788   0.69188   0.58958   0.00000  Uiso   1.00
C68    C     0.75062   0.63781   0.62803   0.00000  Uiso   1.00
C69    C     0.68884   0.68989   0.63331   0.00000  Uiso   1.00
H70    H     0.83202   0.91834   0.49315   0.00000  Uiso   1.00
H71    H     0.85462   0.83183   0.37885   0.00000  Uiso   1.00
H72    H     0.92612   0.02610   0.55372   0.00000  Uiso   1.00
H73    H     0.71143   0.92580   0.53794   0.00000  Uiso   1.00
H74    H     0.88586   0.69075   0.26627   0.00000  Uiso   1.00
H75    H     0.03661   0.10038   0.63501   0.00000  Uiso   1.00
H76    H     0.58388   0.88888   0.60173   0.00000  Uiso   1.00
H77    H     0.87943   0.57018   0.60206   0.00000  Uiso   1.00
H78    H     0.90463   0.46456   0.49374   0.00000  Uiso   1.00
H79    H     0.97614   0.65883   0.66861   0.00000  Uiso   1.00
H80    H     0.76144   0.55853   0.65283   0.00000  Uiso   1.00
H81    H     0.92645   0.39266   0.35952   0.00000  Uiso   1.00
H82    H     0.07720   0.80229   0.72825   0.00000  Uiso   1.00
H83    H     0.62447   0.59079   0.69498   0.00000  Uiso   1.00
O84    O     0.92190   0.47851   0.23967   0.00000  Uiso   1.00
O85    O     0.11967   0.01594   0.72345   0.00000  Uiso   1.00
O86    O     0.52570   0.73845   0.67978   0.00000  Uiso   1.00
N87    N     0.89194   0.63508   0.30308   0.00000  Uiso   1.00
N88    N     0.03289   0.01806   0.64782   0.00000  Uiso   1.00
N89    N     0.60963   0.82034   0.61672   0.00000  Uiso   1.00
N90    N     0.91378   0.47468   0.35326   0.00000  Uiso   1.00
N91    N     0.05473   0.85766   0.69799   0.00000  Uiso   1.00
N92    N     0.63147   0.65994   0.66690   0.00000  Uiso   1.00
C93    C     0.34288   0.66142   0.48190   0.00000  Uiso   1.00
C94    C     0.36172   0.75671   0.52890   0.00000  Uiso   1.00
C95    C     0.36541   0.74747   0.59636   0.00000  Uiso   1.00
C96    C     0.38357   0.84444   0.63069   0.00000  Uiso   1.00
C97    C     0.41075   0.97679   0.70853   0.00000  Uiso   1.00
C98    C     0.40058   0.65116   0.43389   0.00000  Uiso   1.00
C99    C     0.43694   0.55318   0.42147   0.00000  Uiso   1.00
C100   C     0.48780   0.56129   0.37581   0.00000  Uiso   1.00
C101   C     0.57527   0.52976   0.30613   0.00000  Uiso   1.00
C102   C     0.28393   0.70566   0.44247   0.00000  Uiso   1.00
C103   C     0.22220   0.65349   0.43725   0.00000  Uiso   1.00
C104   C     0.17486   0.70747   0.39880   0.00000  Uiso   1.00
C105   C     0.08121   0.76056   0.34244   0.00000  Uiso   1.00
C106   C     0.36856   0.85005   0.42289   0.00000  Uiso   1.00
C107   C     0.37568   0.85916   0.49684   0.00000  Uiso   1.00
C108   C     0.39383   0.95617   0.53108   0.00000  Uiso   1.00
C109   C     0.39755   0.94708   0.59858   0.00000  Uiso   1.00
C110   C     0.41454   0.75361   0.40184   0.00000  Uiso   1.00
C111   C     0.46535   0.76187   0.35619   0.00000  Uiso   1.00
C112   C     0.50178   0.66393   0.34370   0.00000  Uiso   1.00
C113   C     0.29788   0.80812   0.41042   0.00000  Uiso   1.00
C114   C     0.25062   0.86219   0.37197   0.00000  Uiso   1.00
C115   C     0.18884   0.81011   0.36669   0.00000  Uiso   1.00
H116   H     0.33202   0.58166   0.50685   0.00000  Uiso   1.00
H117   H     0.35462   0.66817   0.62115   0.00000  Uiso   1.00
H118   H     0.42612   0.47390   0.44628   0.00000  Uiso   1.00
H119   H     0.21143   0.57420   0.46206   0.00000  Uiso   1.00
H120   H     0.38586   0.80925   0.73373   0.00000  Uiso   1.00
H121   H     0.53661   0.39962   0.36499   0.00000  Uiso   1.00
H122   H     0.08388   0.61112   0.39827   0.00000  Uiso   1.00
H123   H     0.37943   0.92982   0.39794   0.00000  Uiso   1.00
H124   H     0.40463   0.03544   0.50626   0.00000  Uiso   1.00
H125   H     0.47614   0.84117   0.33139   0.00000  Uiso   1.00
H126   H     0.26144   0.94147   0.34717   0.00000  Uiso   1.00
H127   H     0.42645   0.10734   0.64048   0.00000  Uiso   1.00
H128   H     0.57720   0.69771   0.27175   0.00000  Uiso   1.00
H129   H     0.12447   0.90921   0.30502   0.00000  Uiso   1.00
O130   O     0.42190   0.02149   0.76033   0.00000  Uiso   1.00
O131   O     0.61967   0.48406   0.27655   0.00000  Uiso   1.00
O132   O     0.02570   0.76155   0.32022   0.00000  Uiso   1.00
N133   N     0.39194   0.86492   0.69692   0.00000  Uiso   1.00
N134   N     0.53289   0.48194   0.35218   0.00000  Uiso   1.00
N135   N     0.10963   0.67966   0.38328   0.00000  Uiso   1.00
N136   N     0.41378   0.02532   0.64674   0.00000  Uiso   1.00
N137   N     0.55473   0.64234   0.30201   0.00000  Uiso   1.00
N138   N     0.13147   0.84006   0.33310   0.00000  Uiso   1.00
C139   C     0.15712   0.83858   0.98190   0.00000  Uiso   1.00
C140   C     0.13828   0.74329   0.02890   0.00000  Uiso   1.00
C141   C     0.13459   0.75253   0.09636   0.00000  Uiso   1.00
C142   C     0.11643   0.65556   0.13069   0.00000  Uiso   1.00
C143   C     0.08925   0.52321   0.20853   0.00000  Uiso   1.00
C144   C     0.09942   0.84884   0.93389   0.00000  Uiso   1.00
C145   C     0.06306   0.94682   0.92147   0.00000  Uiso   1.00
C146   C     0.01220   0.93871   0.87581   0.00000  Uiso   1.00
C147   C     0.92473   0.97024   0.80613   0.00000  Uiso   1.00
C148   C     0.21607   0.79434   0.94247   0.00000  Uiso   1.00
C149   C     0.27780   0.84651   0.93725   0.00000  Uiso   1.00
C150   C     0.32514   0.79253   0.89880   0.00000  Uiso   1.00
C151   C     0.41879   0.73944   0.84244   0.00000  Uiso   1.00
C152   C     0.13144   0.64995   0.92289   0.00000  Uiso   1.00
C153   C     0.12432   0.64084   0.99684   0.00000  Uiso   1.00
C154   C     0.10617   0.54383   0.03108   0.00000  Uiso   1.00
C155   C     0.10245   0.55292   0.09858   0.00000  Uiso   1.00
C156   C     0.08546   0.74639   0.90184   0.00000  Uiso   1.00
C157   C     0.03465   0.73813   0.85619   0.00000  Uiso   1.00
C158   C     0.99822   0.83607   0.84370   0.00000  Uiso   1.00
C159   C     0.20212   0.69188   0.91042   0.00000  Uiso   1.00
C160   C     0.24938   0.63781   0.87197   0.00000  Uiso   1.00
C161   C     0.31116   0.68989   0.86669   0.00000  Uiso   1.00
H162   H     0.16798   0.91834   0.00685   0.00000  Uiso   1.00
H163   H     0.14538   0.83183   0.12115   0.00000  Uiso   1.00
H164   H     0.07388   0.02610   0.94628   0.00000  Uiso   1.00
H165   H     0.28857   0.92580   0.96206   0.00000  Uiso   1.00
H166   H     0.11414   0.69075   0.23373   0.00000  Uiso   1.00
H167   H     0.96339   0.10038   0.86499   0.00000  Uiso   1.00
H168   H     0.41612   0.88888   0.89827   0.00000  Uiso   1.00
H169   H     0.12057   0.57018   0.89794   0.00000  Uiso   1.00
H170   H     0.09537   0.46456   0.00626   0.00000  Uiso   1.00
H171   H     0.02386   0.65883   0.83139   0.00000  Uiso   1.00
H172   H     0.23856   0.55853   0.84717   0.00000  Uiso   1.00
H173   H     0.07355   0.39266   0.14048   0.00000  Uiso   1.00
H174   H     0.92280   0.80229   0.77175   0.00000  Uiso   1.00
H175   H     0.37553   0.59079   0.80502   0.00000  Uiso   1.00
O176   O     0.07810   0.47851   0.26033   0.00000  Uiso   1.00
O177   O     0.88033   0.01594   0.77655   0.00000  Uiso   1.00
O178   O     0.47430   0.73845   0.82022   0.00000  Uiso   1.00
N179   N     0.10806   0.63508   0.19692   0.00000  Uiso   1.00
N180   N     0.96711   0.01806   0.85218   0.00000  Uiso   1.00
N181   N     0.39037   0.82034   0.88328   0.00000  Uiso   1.00
N182   N     0.08622   0.47468   0.14674   0.00000  Uiso   1.00
N183   N     0.94527   0.85766   0.80201   0.00000  Uiso   1.00
N184   N     0.36853   0.65994   0.83310   0.00000  Uiso   1.00
C185   C     0.34288   0.33858   0.98190   0.00000  Uiso   1.00
C186   C     0.36172   0.24329   0.02890   0.00000  Uiso   1.00
C187   C     0.36541   0.25253   0.09636   0.00000  Uiso   1.00
C188   C     0.38357   0.15556   0.13069   0.00000  Uiso   1.00
C189   C     0.41075   0.02321   0.20853   0.00000  Uiso   1.00
C190   C     0.40058   0.34884   0.93389   0.00000  Uiso   1.00
C191   C     0.43694   0.44682   0.92147   0.00000  Uiso   1.00
C192   C     0.48780   0.43871   0.87581   0.00000  Uiso   1.00
C193   C     0.57527   0.47024   0.80613   0.00000  Uiso   1.00
C194   C     0.28393   0.29434   0.94247   0.00000  Uiso   1.00
C195   C     0.22220   0.34651   0.93725   0.00000  Uiso   1.00
C196   C     0.17486   0.29253   0.89880   0.00000  Uiso   1.00
C197   C     0.08121   0.23944   0.84244   0.00000  Uiso   1.00
C198   C     0.36856   0.14995   0.92289   0.00000  Uiso   1.00
C199   C     0.37568   0.14084   0.99684   0.00000  Uiso   1.00
C200   C     0.39383   0.04383   0.03108   0.00000  Uiso   1.00
C201   C     0.39755   0.05292   0.09858   0.00000  Uiso   1.00
C202   C     0.41454   0.24639   0.90184   0.00000  Uiso   1.00
C203   C     0.46535   0.23813   0.85619   0.00000  Uiso   1.00
C204   C     0.50178   0.33607   0.84370   0.00000  Uiso   1.00
C205   C     0.29788   0.19188   0.91042   0.00000  Uiso   1.00
C206   C     0.25062   0.13781   0.87197   0.00000  Uiso   1.00
C207   C     0.18884   0.18989   0.86669   0.00000  Uiso   1.00
H208   H     0.33202   0.41834   0.00685   0.00000  Uiso   1.00
H209   H     0.35462   0.33183   0.12115   0.00000  Uiso   1.00
H210   H     0.42612   0.52610   0.94628   0.00000  Uiso   1.00
H211   H     0.21143   0.42580   0.96206   0.00000  Uiso   1.00
H212   H     0.38586   0.19075   0.23373   0.00000  Uiso   1.00
H213   H     0.53661   0.60038   0.86499   0.00000  Uiso   1.00
H214   H     0.08388   0.38888   0.89827   0.00000  Uiso   1.00
H215   H     0.37943   0.07018   0.89794   0.00000  Uiso   1.00
H216   H     0.40463   0.96456   0.00626   0.00000  Uiso   1.00
H217   H     0.47614   0.15883   0.83139   0.00000  Uiso   1.00
H218   H     0.26144   0.05853   0.84717   0.00000  Uiso   1.00
H219   H     0.42645   0.89266   0.14048   0.00000  Uiso   1.00
H220   H     0.57720   0.30229   0.77175   0.00000  Uiso   1.00
H221   H     0.12447   0.09079   0.80502   0.00000  Uiso   1.00
O222   O     0.42190   0.97851   0.26033   0.00000  Uiso   1.00
O223   O     0.61967   0.51594   0.77655   0.00000  Uiso   1.00
O224   O     0.02570   0.23845   0.82022   0.00000  Uiso   1.00
N225   N     0.39194   0.13508   0.19692   0.00000  Uiso   1.00
N226   N     0.53289   0.51806   0.85218   0.00000  Uiso   1.00
N227   N     0.10963   0.32034   0.88328   0.00000  Uiso   1.00
N228   N     0.41378   0.97468   0.14674   0.00000  Uiso   1.00
N229   N     0.55473   0.35766   0.80201   0.00000  Uiso   1.00
N230   N     0.13147   0.15994   0.83310   0.00000  Uiso   1.00
C231   C     0.15712   0.16142   0.48190   0.00000  Uiso   1.00
C232   C     0.13828   0.25671   0.52890   0.00000  Uiso   1.00
C233   C     0.13459   0.24747   0.59636   0.00000  Uiso   1.00
C234   C     0.11643   0.34444   0.63069   0.00000  Uiso   1.00
C235   C     0.08925   0.47679   0.70853   0.00000  Uiso   1.00
C236   C     0.09942   0.15116   0.43389   0.00000  Uiso   1.00
C237   C     0.06306   0.05318   0.42147   0.00000  Uiso   1.00
C238   C     0.01220   0.06129   0.37581   0.00000  Uiso   1.00
C239   C     0.92473   0.02976   0.30613   0.00000  Uiso   1.00
C240   C     0.21607   0.20566   0.44247   0.00000  Uiso   1.00
C241   C     0.27780   0.15349   0.43725   0.00000  Uiso   1.00
C242   C     0.32514   0.20747   0.39880   0.00000  Uiso   1.00
C243   C     0.41879   0.26056   0.34244   0.00000  Uiso   1.00
C244   C     0.13144   0.35005   0.42289   0.00000  Uiso   1.00
C245   C     0.12432   0.35916   0.49684   0.00000  Uiso   1.00
C246   C     0.10617   0.45617   0.53108   0.00000  Uiso   1.00
C247   C     0.10245   0.44708   0.59858   0.00000  Uiso   1.00
C248   C     0.08546   0.25361   0.40184   0.00000  Uiso   1.00
C249   C     0.03465   0.26187   0.35619   0.00000  Uiso   1.00
C250   C     0.99822   0.16393   0.34370   0.00000  Uiso   1.00
C251   C     0.20212   0.30812   0.41042   0.00000  Uiso   1.00
C252   C     0.24938   0.36219   0.37197   0.00000  Uiso   1.00
C253   C     0.31116   0.31011   0.36669   0.00000  Uiso   1.00
H254   H     0.16798   0.08166   0.50685   0.00000  Uiso   1.00
H255   H     0.14538   0.16817   0.62115   0.00000  Uiso   1.00
H256   H     0.07388   0.97390   0.44628   0.00000  Uiso   1.00
H257   H     0.28857   0.07420   0.46206   0.00000  Uiso   1.00
H258   H     0.11414   0.30925   0.73373   0.00000  Uiso   1.00
H259   H     0.96339   0.89962   0.36499   0.00000  Uiso   1.00
H260   H     0.41612   0.11112   0.39827   0.00000  Uiso   1.00
H261   H     0.12057   0.42982   0.39794   0.00000  Uiso   1.00
H262   H     0.09537   0.53544   0.50626   0.00000  Uiso   1.00
H263   H     0.02386   0.34117   0.33139   0.00000  Uiso   1.00
H264   H     0.23856   0.44147   0.34717   0.00000  Uiso   1.00
H265   H     0.07355   0.60734   0.64048   0.00000  Uiso   1.00
H266   H     0.92280   0.19771   0.27175   0.00000  Uiso   1.00
H267   H     0.37553   0.40921   0.30502   0.00000  Uiso   1.00
O268   O     0.07810   0.52149   0.76033   0.00000  Uiso   1.00
O269   O     0.88033   0.98406   0.27655   0.00000  Uiso   1.00
O270   O     0.47430   0.26155   0.32022   0.00000  Uiso   1.00
N271   N     0.10806   0.36492   0.69692   0.00000  Uiso   1.00
N272   N     0.96711   0.98194   0.35218   0.00000  Uiso   1.00
N273   N     0.39037   0.17966   0.38328   0.00000  Uiso   1.00
N274   N     0.08622   0.52532   0.64674   0.00000  Uiso   1.00
N275   N     0.94527   0.14234   0.30201   0.00000  Uiso   1.00
N276   N     0.36853   0.34006   0.33310   0.00000  Uiso   1.00
C277   C     0.65712   0.33858   0.51810   0.00000  Uiso   1.00
C278   C     0.63828   0.24329   0.47110   0.00000  Uiso   1.00
C279   C     0.63459   0.25253   0.40364   0.00000  Uiso   1.00
C280   C     0.61643   0.15556   0.36931   0.00000  Uiso   1.00
C281   C     0.58925   0.02321   0.29147   0.00000  Uiso   1.00
C282   C     0.59942   0.34884   0.56611   0.00000  Uiso   1.00
C283   C     0.56306   0.44682   0.57853   0.00000  Uiso   1.00
C284   C     0.51220   0.43871   0.62419   0.00000  Uiso   1.00
C285   C     0.42473   0.47024   0.69387   0.00000  Uiso   1.00
C286   C     0.71607   0.29434   0.55753   0.00000  Uiso   1.00
C287   C     0.77780   0.34651   0.56275   0.00000  Uiso   1.00
C288   C     0.82514   0.29253   0.60120   0.00000  Uiso   1.00
C289   C     0.91879   0.23944   0.65756   0.00000  Uiso   1.00
C290   C     0.63144   0.14995   0.57711   0.00000  Uiso   1.00
C291   C     0.62432   0.14084   0.50316   0.00000  Uiso   1.00
C292   C     0.60617   0.04383   0.46892   0.00000  Uiso   1.00
C293   C     0.60245   0.05292   0.40142   0.00000  Uiso   1.00
C294   C     0.58546   0.24639   0.59816   0.00000  Uiso   1.00
C295   C     0.53465   0.23813   0.64381   0.00000  Uiso   1.00
C296   C     0.49822   0.33607   0.65630   0.00000  Uiso   1.00
C297   C     0.70212   0.19188   0.58958   0.00000  Uiso   1.00
C298   C     0.74938   0.13781   0.62803   0.00000  Uiso   1.00
C299   C     0.81116   0.18989   0.63331   0.00000  Uiso   1.00
H300   H     0.66798   0.41834   0.49315   0.00000  Uiso   1.00
H301   H     0.64538   0.33183   0.37885   0.00000  Uiso   1.00
H302   H     0.57388   0.52610   0.55372   0.00000  Uiso   1.00
H303   H     0.78857   0.42580   0.53794   0.00000  Uiso   1.00
H304   H     0.61414   0.19075   0.26627   0.00000  Uiso   1.00
H305   H     0.46339   0.60038   0.63501   0.00000  Uiso   1.00
H306   H     0.91612   0.38888   0.60173   0.00000  Uiso   1.00
H307   H     0.62057   0.07018   0.60206   0.00000  Uiso   1.00
H308   H     0.59537   0.96456   0.49374   0.00000  Uiso   1.00
H309   H     0.52386   0.15883   0.66861   0.00000  Uiso   1.00
H310   H     0.73856   0.05853   0.65283   0.00000  Uiso   1.00
H311   H     0.57355   0.89266   0.35952   0.00000  Uiso   1.00
H312   H     0.42280   0.30229   0.72825   0.00000  Uiso   1.00
H313   H     0.87553   0.09079   0.69498   0.00000  Uiso   1.00
O314   O     0.57810   0.97851   0.23967   0.00000  Uiso   1.00
O315   O     0.38033   0.51594   0.72345   0.00000  Uiso   1.00
O316   O     0.97430   0.23845   0.67978   0.00000  Uiso   1.00
N317   N     0.60806   0.13508   0.30308   0.00000  Uiso   1.00
N318   N     0.46711   0.51806   0.64782   0.00000  Uiso   1.00
N319   N     0.89037   0.32034   0.61672   0.00000  Uiso   1.00
N320   N     0.58622   0.97468   0.35326   0.00000  Uiso   1.00
N321   N     0.44527   0.35766   0.69799   0.00000  Uiso   1.00
N322   N     0.86853   0.15994   0.66690   0.00000  Uiso   1.00
C323   C     0.84288   0.16142   0.01810   0.00000  Uiso   1.00
C324   C     0.86172   0.25671   0.97110   0.00000  Uiso   1.00
C325   C     0.86541   0.24747   0.90364   0.00000  Uiso   1.00
C326   C     0.88357   0.34444   0.86931   0.00000  Uiso   1.00
C327   C     0.91075   0.47679   0.79147   0.00000  Uiso   1.00
C328   C     0.90058   0.15116   0.06611   0.00000  Uiso   1.00
C329   C     0.93694   0.05318   0.07853   0.00000  Uiso   1.00
C330   C     0.98780   0.06129   0.12419   0.00000  Uiso   1.00
C331   C     0.07527   0.02976   0.19387   0.00000  Uiso   1.00
C332   C     0.78393   0.20566   0.05753   0.00000  Uiso   1.00
C333   C     0.72220   0.15349   0.06275   0.00000  Uiso   1.00
C334   C     0.67486   0.20747   0.10120   0.00000  Uiso   1.00
C335   C     0.58121   0.26056   0.15756   0.00000  Uiso   1.00
C336   C     0.86856   0.35005   0.07711   0.00000  Uiso   1.00
C337   C     0.87568   0.35916   0.00316   0.00000  Uiso   1.00
C338   C     0.89383   0.45617   0.96892   0.00000  Uiso   1.00
C339   C     0.89755   0.44708   0.90142   0.00000  Uiso   1.00
C340   C     0.91454   0.25361   0.09816   0.00000  Uiso   1.00
C341   C     0.96535   0.26187   0.14381   0.00000  Uiso   1.00
C342   C     0.00178   0.16393   0.15630   0.00000  Uiso   1.00
C343   C     0.79788   0.30812   0.08958   0.00000  Uiso   1.00
C344   C     0.75062   0.36219   0.12803   0.00000  Uiso   1.00
C345   C     0.68884   0.31011   0.13331   0.00000  Uiso   1.00
H346   H     0.83202   0.08166   0.99315   0.00000  Uiso   1.00
H347   H     0.85462   0.16817   0.87885   0.00000  Uiso   1.00
H348   H     0.92612   0.97390   0.05372   0.00000  Uiso   1.00
H349   H     0.71143   0.07420   0.03794   0.00000  Uiso   1.00
H350   H     0.88586   0.30925   0.76627   0.00000  Uiso   1.00
H351   H     0.03661   0.89962   0.13501   0.00000  Uiso   1.00
H352   H     0.58388   0.11112   0.10173   0.00000  Uiso   1.00
H353   H     0.87943   0.42982   0.10206   0.00000  Uiso   1.00
H354   H     0.90463   0.53544   0.99374   0.00000  Uiso   1.00
H355   H     0.97614   0.34117   0.16861   0.00000  Uiso   1.00
H356   H     0.76144   0.44147   0.15283   0.00000  Uiso   1.00
H357   H     0.92645   0.60734   0.85952   0.00000  Uiso   1.00
H358   H     0.07720   0.19771   0.22825   0.00000  Uiso   1.00
H359   H     0.62447   0.40921   0.19498   0.00000  Uiso   1.00
O360   O     0.92190   0.52149   0.73967   0.00000  Uiso   1.00
O361   O     0.11967   0.98406   0.22345   0.00000  Uiso   1.00
O362   O     0.52570   0.26155   0.17978   0.00000  Uiso   1.00
N363   N     0.89194   0.36492   0.80308   0.00000  Uiso   1.00
N364   N     0.03289   0.98194   0.14782   0.00000  Uiso   1.00
N365   N     0.60963   0.17966   0.11672   0.00000  Uiso   1.00
N366   N     0.91378   0.52532   0.85326   0.00000  Uiso   1.00
N367   N     0.05473   0.14234   0.19799   0.00000  Uiso   1.00
N368   N     0.63147   0.34006   0.16690   0.00000  Uiso   1.00
