data_job_06449
_audit_creation_date              2018-12-19
_audit_creation_method            'Materials Studio'
_symmetry_space_group_name_H-M    'P1'
_symmetry_Int_Tables_number       1
_symmetry_cell_setting            triclinic
loop_
_symmetry_equiv_pos_as_xyz
  x,y,z
_cell_length_a                    14.1381
_cell_length_b                    20.2806
_cell_length_c                    20.3466
_cell_angle_alpha                 114.7660
_cell_angle_beta                  76.6024
_cell_angle_gamma                 76.9438
loop_
_atom_site_label
_atom_site_type_symbol
_atom_site_fract_x
_atom_site_fract_y
_atom_site_fract_z
_atom_site_U_iso_or_equiv
_atom_site_adp_type
_atom_site_occupancy
C1     C     0.15392   0.43265   0.71619   0.00000  Uiso   1.00
C2     C     0.16030   0.50383   0.70961   0.00000  Uiso   1.00
C3     C     0.24377   0.52904   0.70933   0.00000  Uiso   1.00
C4     C     0.23449   0.59547   0.70282   0.00000  Uiso   1.00
C5     C     0.25800   0.69998   0.69356   0.00000  Uiso   1.00
C6     C     0.05511   0.46251   0.78635   0.00000  Uiso   1.00
C7     C     0.05014   0.45296   0.85058   0.00000  Uiso   1.00
C8     C     0.95231   0.48460   0.90867   0.00000  Uiso   1.00
C9     C     0.81250   0.52490   0.01852   0.00000  Uiso   1.00
C10    C     0.13333   0.38174   0.64504   0.00000  Uiso   1.00
C11    C     0.19411   0.30427   0.59046   0.00000  Uiso   1.00
C12    C     0.16212   0.26790   0.52958   0.00000  Uiso   1.00
C13    C     0.14377   0.18280   0.42003   0.00000  Uiso   1.00
C14    C     0.98901   0.50581   0.70513   0.00000  Uiso   1.00
C15    C     0.07073   0.54357   0.70361   0.00000  Uiso   1.00
C16    C     0.06132   0.60998   0.69710   0.00000  Uiso   1.00
C17    C     0.14476   0.63528   0.69680   0.00000  Uiso   1.00
C18    C     0.96554   0.50225   0.78035   0.00000  Uiso   1.00
C19    C     0.86769   0.53390   0.83835   0.00000  Uiso   1.00
C20    C     0.86258   0.52441   0.90265   0.00000  Uiso   1.00
C21    C     0.04376   0.42148   0.63903   0.00000  Uiso   1.00
C22    C     0.01167   0.38522   0.57823   0.00000  Uiso   1.00
C23    C     0.07239   0.30771   0.52357   0.00000  Uiso   1.00
H24    H     0.22364   0.40171   0.72087   0.00000  Uiso   1.00
H25    H     0.31307   0.49828   0.71399   0.00000  Uiso   1.00
H26    H     0.11946   0.42220   0.85521   0.00000  Uiso   1.00
H27    H     0.26342   0.27354   0.59513   0.00000  Uiso   1.00
H28    H     0.37269   0.62287   0.70373   0.00000  Uiso   1.00
H29    H     0.96447   0.46244   0.00150   0.00000  Uiso   1.00
H30    H     0.26802   0.14896   0.45307   0.00000  Uiso   1.00
H31    H     0.91927   0.53675   0.70046   0.00000  Uiso   1.00
H32    H     0.99200   0.64072   0.69245   0.00000  Uiso   1.00
H33    H     0.79840   0.56464   0.83368   0.00000  Uiso   1.00
H34    H     0.94235   0.41599   0.57360   0.00000  Uiso   1.00
H35    H     0.11210   0.73849   0.68626   0.00000  Uiso   1.00
H36    H     0.70387   0.57805   0.98403   0.00000  Uiso   1.00
H37    H     0.00743   0.26458   0.43560   0.00000  Uiso   1.00
O38    O     0.29571   0.74666   0.69012   0.00000  Uiso   1.00
O39    O     0.76014   0.53616   0.08078   0.00000  Uiso   1.00
O40    O     0.15840   0.12489   0.36125   0.00000  Uiso   1.00
N41    N     0.30139   0.63581   0.70070   0.00000  Uiso   1.00
N42    N     0.91973   0.48582   0.97911   0.00000  Uiso   1.00
N43    N     0.20351   0.19274   0.46638   0.00000  Uiso   1.00
N44    N     0.16116   0.69802   0.69130   0.00000  Uiso   1.00
N45    N     0.77950   0.54803   0.96970   0.00000  Uiso   1.00
N46    N     0.06329   0.25495   0.45698   0.00000  Uiso   1.00
C47    C     0.86992   0.28433   0.71652   0.00000  Uiso   1.00
C48    C     0.86969   0.29085   0.79400   0.00000  Uiso   1.00
C49    C     0.95266   0.29168   0.81938   0.00000  Uiso   1.00
C50    C     0.93688   0.29802   0.89206   0.00000  Uiso   1.00
C51    C     0.95104   0.30728   0.00541   0.00000  Uiso   1.00
C52    C     0.84118   0.21361   0.67637   0.00000  Uiso   1.00
C53    C     0.90019   0.14950   0.60285   0.00000  Uiso   1.00
C54    C     0.86039   0.09082   0.57651   0.00000  Uiso   1.00
C55    C     0.83026   0.98020   0.50722   0.00000  Uiso   1.00
C56    C     0.77857   0.35524   0.73670   0.00000  Uiso   1.00
C57    C     0.78493   0.41022   0.71389   0.00000  Uiso   1.00
C58    C     0.69242   0.47078   0.73832   0.00000  Uiso   1.00
C59    C     0.56508   0.58007   0.76270   0.00000  Uiso   1.00
C60    C     0.69432   0.29412   0.80045   0.00000  Uiso   1.00
C61    C     0.77431   0.29616   0.83958   0.00000  Uiso   1.00
C62    C     0.75839   0.30251   0.91224   0.00000  Uiso   1.00
C63    C     0.84133   0.30335   0.93773   0.00000  Uiso   1.00
C64    C     0.74581   0.21892   0.72196   0.00000  Uiso   1.00
C65    C     0.70591   0.16033   0.69571   0.00000  Uiso   1.00
C66    C     0.76484   0.09615   0.62218   0.00000  Uiso   1.00
C67    C     0.68319   0.36056   0.78229   0.00000  Uiso   1.00
C68    C     0.59065   0.42105   0.80675   0.00000  Uiso   1.00
C69    C     0.59687   0.47611   0.78399   0.00000  Uiso   1.00
H70    H     0.94418   0.28019   0.68103   0.00000  Uiso   1.00
H71    H     0.02647   0.28755   0.78408   0.00000  Uiso   1.00
H72    H     0.97399   0.14540   0.56759   0.00000  Uiso   1.00
H73    H     0.85875   0.40608   0.67861   0.00000  Uiso   1.00
H74    H     0.07565   0.29803   0.91843   0.00000  Uiso   1.00
H75    H     0.96498   0.99832   0.46193   0.00000  Uiso   1.00
H76    H     0.72198   0.54801   0.69604   0.00000  Uiso   1.00
H77    H     0.62007   0.29826   0.83594   0.00000  Uiso   1.00
H78    H     0.68457   0.30662   0.94751   0.00000  Uiso   1.00
H79    H     0.63210   0.16447   0.73100   0.00000  Uiso   1.00
H80    H     0.51686   0.42515   0.84203   0.00000  Uiso   1.00
H81    H     0.79816   0.31351   0.05107   0.00000  Uiso   1.00
H82    H     0.68749   0.01379   0.59456   0.00000  Uiso   1.00
H83    H     0.44449   0.56349   0.82868   0.00000  Uiso   1.00
O84    O     0.98520   0.31092   0.05534   0.00000  Uiso   1.00
O85    O     0.83999   0.91771   0.45641   0.00000  Uiso   1.00
O86    O     0.52119   0.63890   0.76356   0.00000  Uiso   1.00
N87    N     0.00148   0.30054   0.93435   0.00000  Uiso   1.00
N88    N     0.89802   0.02032   0.50755   0.00000  Uiso   1.00
N89    N     0.67083   0.53423   0.72640   0.00000  Uiso   1.00
N90    N     0.85217   0.30887   0.00572   0.00000  Uiso   1.00
N91    N     0.74871   0.02864   0.57892   0.00000  Uiso   1.00
N92    N     0.52152   0.54256   0.79777   0.00000  Uiso   1.00
C93    C     0.58632   0.28403   0.56778   0.00000  Uiso   1.00
C94    C     0.66323   0.20672   0.49707   0.00000  Uiso   1.00
C95    C     0.77129   0.18197   0.47259   0.00000  Uiso   1.00
C96    C     0.82791   0.10934   0.40649   0.00000  Uiso   1.00
C97    C     0.95490   0.99633   0.30278   0.00000  Uiso   1.00
C98    C     0.51772   0.32398   0.53732   0.00000  Uiso   1.00
C99    C     0.50343   0.39782   0.54670   0.00000  Uiso   1.00
C100   C     0.43754   0.42391   0.51449   0.00000  Uiso   1.00
C101   C     0.33856   0.49297   0.47332   0.00000  Uiso   1.00
C102   C     0.51522   0.26317   0.61834   0.00000  Uiso   1.00
C103   C     0.49880   0.28590   0.69584   0.00000  Uiso   1.00
C104   C     0.43078   0.26080   0.73185   0.00000  Uiso   1.00
C105   C     0.32792   0.23545   0.81646   0.00000  Uiso   1.00
C106   C     0.49468   0.19906   0.49393   0.00000  Uiso   1.00
C107   C     0.61345   0.16057   0.45695   0.00000  Uiso   1.00
C108   C     0.66991   0.08796   0.39088   0.00000  Uiso   1.00
C109   C     0.77805   0.06310   0.36631   0.00000  Uiso   1.00
C110   C     0.46795   0.27783   0.49721   0.00000  Uiso   1.00
C111   C     0.40205   0.30381   0.46499   0.00000  Uiso   1.00
C112   C     0.38768   0.37767   0.47431   0.00000  Uiso   1.00
C113   C     0.46544   0.21701   0.57822   0.00000  Uiso   1.00
C114   C     0.39743   0.19189   0.61412   0.00000  Uiso   1.00
C115   C     0.38092   0.21457   0.69166   0.00000  Uiso   1.00
H116   H     0.62506   0.31997   0.59901   0.00000  Uiso   1.00
H117   H     0.80978   0.21771   0.50365   0.00000  Uiso   1.00
H118   H     0.54195   0.43353   0.57775   0.00000  Uiso   1.00
H119   H     0.53733   0.32162   0.72686   0.00000  Uiso   1.00
H120   H     0.99263   0.08399   0.38021   0.00000  Uiso   1.00
H121   H     0.42787   0.53907   0.53648   0.00000  Uiso   1.00
H122   H     0.41812   0.30309   0.85092   0.00000  Uiso   1.00
H123   H     0.45593   0.16313   0.46269   0.00000  Uiso   1.00
H124   H     0.63137   0.05226   0.35985   0.00000  Uiso   1.00
H125   H     0.36354   0.26808   0.43395   0.00000  Uiso   1.00
H126   H     0.35892   0.15617   0.58306   0.00000  Uiso   1.00
H127   H     0.84783   0.94971   0.26350   0.00000  Uiso   1.00
H128   H     0.28306   0.40479   0.41977   0.00000  Uiso   1.00
H129   H     0.27331   0.16881   0.73421   0.00000  Uiso   1.00
O130   O     0.03869   0.94676   0.25664   0.00000  Uiso   1.00
O131   O     0.29773   0.54381   0.46168   0.00000  Uiso   1.00
O132   O     0.28495   0.23421   0.87421   0.00000  Uiso   1.00
N133   N     0.93447   0.06760   0.36687   0.00000  Uiso   1.00
N134   N     0.40647   0.49307   0.51296   0.00000  Uiso   1.00
N135   N     0.39733   0.27246   0.80694   0.00000  Uiso   1.00
N136   N     0.85656   0.99534   0.30406   0.00000  Uiso   1.00
N137   N     0.32855   0.42081   0.45016   0.00000  Uiso   1.00
N138   N     0.31941   0.20020   0.74414   0.00000  Uiso   1.00
C139   C     0.36991   0.71666   0.28417   0.00000  Uiso   1.00
C140   C     0.36975   0.79439   0.29069   0.00000  Uiso   1.00
C141   C     0.45276   0.82005   0.29133   0.00000  Uiso   1.00
C142   C     0.43706   0.89292   0.29772   0.00000  Uiso   1.00
C143   C     0.45134   0.00667   0.30697   0.00000  Uiso   1.00
C144   C     0.34120   0.67635   0.21372   0.00000  Uiso   1.00
C145   C     0.40020   0.60276   0.14965   0.00000  Uiso   1.00
C146   C     0.36044   0.57626   0.09125   0.00000  Uiso   1.00
C147   C     0.33035   0.50672   0.98102   0.00000  Uiso   1.00
C148   C     0.27850   0.73666   0.35508   0.00000  Uiso   1.00
C149   C     0.28476   0.71376   0.40985   0.00000  Uiso   1.00
C150   C     0.19221   0.73803   0.47045   0.00000  Uiso   1.00
C151   C     0.06476   0.76214   0.57971   0.00000  Uiso   1.00
C152   C     0.19440   0.80044   0.29438   0.00000  Uiso   1.00
C153   C     0.27442   0.83989   0.29624   0.00000  Uiso   1.00
C154   C     0.25858   0.91274   0.30263   0.00000  Uiso   1.00
C155   C     0.34156   0.93851   0.30328   0.00000  Uiso   1.00
C156   C     0.24587   0.72185   0.21927   0.00000  Uiso   1.00
C157   C     0.20602   0.69544   0.16095   0.00000  Uiso   1.00
C158   C     0.26494   0.62184   0.09680   0.00000  Uiso   1.00
C159   C     0.18316   0.78216   0.36063   0.00000  Uiso   1.00
C160   C     0.09058   0.80646   0.42115   0.00000  Uiso   1.00
C161   C     0.09671   0.78361   0.47601   0.00000  Uiso   1.00
H162   H     0.44412   0.68123   0.27984   0.00000  Uiso   1.00
H163   H     0.52653   0.78482   0.28703   0.00000  Uiso   1.00
H164   H     0.47396   0.56756   0.14538   0.00000  Uiso   1.00
H165   H     0.35854   0.67855   0.40554   0.00000  Uiso   1.00
H166   H     0.57586   0.91972   0.29742   0.00000  Uiso   1.00
H167   H     0.46500   0.46160   0.99874   0.00000  Uiso   1.00
H168   H     0.22162   0.69565   0.54734   0.00000  Uiso   1.00
H169   H     0.12018   0.83586   0.29870   0.00000  Uiso   1.00
H170   H     0.18480   0.94794   0.30692   0.00000  Uiso   1.00
H171   H     0.13224   0.73067   0.16526   0.00000  Uiso   1.00
H172   H     0.01682   0.84167   0.42543   0.00000  Uiso   1.00
H173   H     0.29851   0.05211   0.31356   0.00000  Uiso   1.00
H174   H     0.18765   0.59399   0.01488   0.00000  Uiso   1.00
H175   H     0.94427   0.82804   0.56348   0.00000  Uiso   1.00
O176   O     0.48556   0.05684   0.31053   0.00000  Uiso   1.00
O177   O     0.34010   0.45580   0.91869   0.00000  Uiso   1.00
O178   O     0.02080   0.76287   0.63844   0.00000  Uiso   1.00
N179   N     0.50171   0.93550   0.30010   0.00000  Uiso   1.00
N180   N     0.39807   0.50719   0.02085   0.00000  Uiso   1.00
N181   N     0.17053   0.72599   0.53374   0.00000  Uiso   1.00
N182   N     0.35247   0.00674   0.30879   0.00000  Uiso   1.00
N183   N     0.24883   0.57843   0.02954   0.00000  Uiso   1.00
N184   N     0.02129   0.79723   0.54242   0.00000  Uiso   1.00
C185   C     0.08632   0.56794   0.28382   0.00000  Uiso   1.00
C186   C     0.16324   0.49722   0.20654   0.00000  Uiso   1.00
C187   C     0.27131   0.47293   0.18160   0.00000  Uiso   1.00
C188   C     0.32793   0.40679   0.10905   0.00000  Uiso   1.00
C189   C     0.45493   0.30309   0.99606   0.00000  Uiso   1.00
C190   C     0.01764   0.53720   0.32379   0.00000  Uiso   1.00
C191   C     0.00327   0.54655   0.39743   0.00000  Uiso   1.00
C192   C     0.93731   0.51407   0.42358   0.00000  Uiso   1.00
C193   C     0.83820   0.47249   0.49263   0.00000  Uiso   1.00
C194   C     0.01530   0.61850   0.26321   0.00000  Uiso   1.00
C195   C     0.99896   0.69621   0.28595   0.00000  Uiso   1.00
C196   C     0.93101   0.73218   0.26110   0.00000  Uiso   1.00
C197   C     0.82828   0.81683   0.23612   0.00000  Uiso   1.00
C198   C     0.99470   0.49367   0.19931   0.00000  Uiso   1.00
C199   C     0.11347   0.45688   0.16064   0.00000  Uiso   1.00
C200   C     0.16994   0.39075   0.08810   0.00000  Uiso   1.00
C201   C     0.27807   0.36637   0.06306   0.00000  Uiso   1.00
C202   C     0.96787   0.49686   0.27789   0.00000  Uiso   1.00
C203   C     0.90191   0.46437   0.30393   0.00000  Uiso   1.00
C204   C     0.88746   0.47365   0.37759   0.00000  Uiso   1.00
C205   C     0.96554   0.57816   0.21731   0.00000  Uiso   1.00
C206   C     0.89759   0.61402   0.19244   0.00000  Uiso   1.00
C207   C     0.88115   0.69177   0.21512   0.00000  Uiso   1.00
H208   H     0.12506   0.59935   0.31956   0.00000  Uiso   1.00
H209   H     0.30979   0.50417   0.21714   0.00000  Uiso   1.00
H210   H     0.04179   0.57777   0.43294   0.00000  Uiso   1.00
H211   H     0.03748   0.72741   0.32146   0.00000  Uiso   1.00
H212   H     0.49265   0.38083   0.08337   0.00000  Uiso   1.00
H213   H     0.92753   0.53606   0.53840   0.00000  Uiso   1.00
H214   H     0.91844   0.85159   0.30334   0.00000  Uiso   1.00
H215   H     0.95595   0.46226   0.16357   0.00000  Uiso   1.00
H216   H     0.13141   0.35955   0.05259   0.00000  Uiso   1.00
H217   H     0.86340   0.43315   0.26840   0.00000  Uiso   1.00
H218   H     0.85910   0.58278   0.15692   0.00000  Uiso   1.00
H219   H     0.34787   0.26344   0.94982   0.00000  Uiso   1.00
H220   H     0.78274   0.41868   0.40485   0.00000  Uiso   1.00
H221   H     0.77365   0.73421   0.16978   0.00000  Uiso   1.00
O222   O     0.53873   0.25703   0.94642   0.00000  Uiso   1.00
O223   O     0.79730   0.46070   0.54341   0.00000  Uiso   1.00
O224   O     0.78538   0.87466   0.23500   0.00000  Uiso   1.00
N225   N     0.43450   0.36730   0.06716   0.00000  Uiso   1.00
N226   N     0.90615   0.51243   0.49259   0.00000  Uiso   1.00
N227   N     0.89764   0.80743   0.27284   0.00000  Uiso   1.00
N228   N     0.35659   0.30414   0.99530   0.00000  Uiso   1.00
N229   N     0.82825   0.44926   0.42072   0.00000  Uiso   1.00
N230   N     0.81973   0.74427   0.20097   0.00000  Uiso   1.00
C231   C     0.65393   0.71640   0.43251   0.00000  Uiso   1.00
C232   C     0.66022   0.70979   0.50344   0.00000  Uiso   1.00
C233   C     0.74366   0.70970   0.52837   0.00000  Uiso   1.00
C234   C     0.73429   0.70312   0.59461   0.00000  Uiso   1.00
C235   C     0.75767   0.69384   0.69872   0.00000  Uiso   1.00
C236   C     0.55517   0.78654   0.46254   0.00000  Uiso   1.00
C237   C     0.55029   0.85098   0.45306   0.00000  Uiso   1.00
C238   C     0.45249   0.90900   0.48485   0.00000  Uiso   1.00
C239   C     0.31277   0.01886   0.52540   0.00000  Uiso   1.00
C240   C     0.63332   0.64500   0.38178   0.00000  Uiso   1.00
C241   C     0.69413   0.59042   0.30439   0.00000  Uiso   1.00
C242   C     0.66211   0.52928   0.26819   0.00000  Uiso   1.00
C243   C     0.64372   0.41936   0.18337   0.00000  Uiso   1.00
C244   C     0.48892   0.70489   0.50582   0.00000  Uiso   1.00
C245   C     0.57059   0.70354   0.54326   0.00000  Uiso   1.00
C246   C     0.56110   0.69695   0.60948   0.00000  Uiso   1.00
C247   C     0.64451   0.69685   0.63450   0.00000  Uiso   1.00
C248   C     0.46555   0.78029   0.50236   0.00000  Uiso   1.00
C249   C     0.36773   0.83823   0.53417   0.00000  Uiso   1.00
C250   C     0.36270   0.90274   0.52474   0.00000  Uiso   1.00
C251   C     0.54370   0.63874   0.42160   0.00000  Uiso   1.00
C252   C     0.51157   0.57768   0.38551   0.00000  Uiso   1.00
C253   C     0.57232   0.52302   0.30809   0.00000  Uiso   1.00
H254   H     0.72370   0.72128   0.40151   0.00000  Uiso   1.00
H255   H     0.81300   0.71455   0.49754   0.00000  Uiso   1.00
H256   H     0.61966   0.85580   0.42223   0.00000  Uiso   1.00
H257   H     0.76348   0.59528   0.27360   0.00000  Uiso   1.00
H258   H     0.87246   0.70435   0.62159   0.00000  Uiso   1.00
H259   H     0.46479   0.00218   0.46277   0.00000  Uiso   1.00
H260   H     0.76806   0.45283   0.14935   0.00000  Uiso   1.00
H261   H     0.41914   0.70002   0.53682   0.00000  Uiso   1.00
H262   H     0.49173   0.69211   0.64028   0.00000  Uiso   1.00
H263   H     0.29839   0.83337   0.56497   0.00000  Uiso   1.00
H264   H     0.44221   0.57285   0.41634   0.00000  Uiso   1.00
H265   H     0.61171   0.68615   0.73745   0.00000  Uiso   1.00
H266   H     0.20403   0.98397   0.57863   0.00000  Uiso   1.00
H267   H     0.50730   0.43462   0.26521   0.00000  Uiso   1.00
O268   O     0.79531   0.69046   0.74515   0.00000  Uiso   1.00
O269   O     0.26046   0.08118   0.53678   0.00000  Uiso   1.00
O270   O     0.65835   0.36046   0.12558   0.00000  Uiso   1.00
N271   N     0.80114   0.70114   0.63465   0.00000  Uiso   1.00
N272   N     0.41999   0.97959   0.48618   0.00000  Uiso   1.00
N273   N     0.70351   0.46601   0.19315   0.00000  Uiso   1.00
N274   N     0.66083   0.69134   0.69699   0.00000  Uiso   1.00
N275   N     0.27968   0.96979   0.54852   0.00000  Uiso   1.00
N276   N     0.56320   0.45621   0.25549   0.00000  Uiso   1.00
