data_job_02532
_audit_creation_date              2018-12-19
_audit_creation_method            'Materials Studio'
_symmetry_space_group_name_H-M    'P1'
_symmetry_Int_Tables_number       1
_symmetry_cell_setting            triclinic
loop_
_symmetry_equiv_pos_as_xyz
  x,y,z
_cell_length_a                    10.7283
_cell_length_b                    15.5582
_cell_length_c                    14.5006
_cell_angle_alpha                 90.0000
_cell_angle_beta                  90.0000
_cell_angle_gamma                 90.0000
loop_
_atom_site_label
_atom_site_type_symbol
_atom_site_fract_x
_atom_site_fract_y
_atom_site_fract_z
_atom_site_U_iso_or_equiv
_atom_site_adp_type
_atom_site_occupancy
C1     C     0.34641   0.93712   0.07879   0.00000  Uiso   1.00
C2     C     0.29042   0.90697   0.98771   0.00000  Uiso   1.00
C3     C     0.16843   0.92016   0.95920   0.00000  Uiso   1.00
C4     C     0.13533   0.88754   0.87351   0.00000  Uiso   1.00
C5     C     0.03531   0.84741   0.74047   0.00000  Uiso   1.00
C6     C     0.39785   0.85684   0.12561   0.00000  Uiso   1.00
C7     C     0.36618   0.82789   0.21306   0.00000  Uiso   1.00
C8     C     0.42353   0.75307   0.24346   0.00000  Uiso   1.00
C9     C     0.49036   0.63515   0.32455   0.00000  Uiso   1.00
C10    C     0.45934   0.99177   0.05352   0.00000  Uiso   1.00
C11    C     0.47941   0.07627   0.08037   0.00000  Uiso   1.00
C12    C     0.58855   0.11505   0.05010   0.00000  Uiso   1.00
C13    C     0.75086   0.20663   0.01927   0.00000  Uiso   1.00
C14    C     0.50457   0.85574   0.97731   0.00000  Uiso   1.00
C15    C     0.37633   0.86277   0.93259   0.00000  Uiso   1.00
C16    C     0.34341   0.83012   0.84691   0.00000  Uiso   1.00
C17    C     0.22139   0.84326   0.81828   0.00000  Uiso   1.00
C18    C     0.48375   0.81264   0.07049   0.00000  Uiso   1.00
C19    C     0.54117   0.73785   0.10077   0.00000  Uiso   1.00
C20    C     0.50959   0.70879   0.18824   0.00000  Uiso   1.00
C21    C     0.54525   0.94758   0.99840   0.00000  Uiso   1.00
C22    C     0.65439   0.98623   0.96808   0.00000  Uiso   1.00
C23    C     0.67461   0.07077   0.99488   0.00000  Uiso   1.00
H24    H     0.27953   0.97153   0.12171   0.00000  Uiso   1.00
H25    H     0.10197   0.95436   0.00188   0.00000  Uiso   1.00
H26    H     0.29971   0.86211   0.25570   0.00000  Uiso   1.00
H27    H     0.41291   0.11045   0.12303   0.00000  Uiso   1.00
H28    H     0.94298   0.91581   0.84473   0.00000  Uiso   1.00
H29    H     0.35996   0.72131   0.37994   0.00000  Uiso   1.00
H30    H     0.59867   0.24499   0.10018   0.00000  Uiso   1.00
H31    H     0.57145   0.82133   0.93439   0.00000  Uiso   1.00
H32    H     0.40991   0.79592   0.80427   0.00000  Uiso   1.00
H33    H     0.60764   0.70367   0.05810   0.00000  Uiso   1.00
H34    H     0.72085   0.95201   0.92543   0.00000  Uiso   1.00
H35    H     0.19291   0.78721   0.68434   0.00000  Uiso   1.00
H36    H     0.60989   0.59271   0.21956   0.00000  Uiso   1.00
H37    H     0.84860   0.11638   0.93980   0.00000  Uiso   1.00
O38    O     0.95640   0.83748   0.68233   0.00000  Uiso   1.00
O39    O     0.50347   0.58231   0.38451   0.00000  Uiso   1.00
O40    O     0.81665   0.26936   0.01748   0.00000  Uiso   1.00
N41    N     0.02398   0.88905   0.82483   0.00000  Uiso   1.00
N42    N     0.41381   0.70719   0.32521   0.00000  Uiso   1.00
N43    N     0.63701   0.19678   0.06369   0.00000  Uiso   1.00
N44    N     0.15847   0.81985   0.73853   0.00000  Uiso   1.00
N45    N     0.54830   0.63799   0.23891   0.00000  Uiso   1.00
N46    N     0.77149   0.12758   0.97738   0.00000  Uiso   1.00
C47    C     0.65359   0.06288   0.57879   0.00000  Uiso   1.00
C48    C     0.70958   0.09303   0.48771   0.00000  Uiso   1.00
C49    C     0.83157   0.07984   0.45920   0.00000  Uiso   1.00
C50    C     0.86467   0.11246   0.37351   0.00000  Uiso   1.00
C51    C     0.96469   0.15259   0.24047   0.00000  Uiso   1.00
C52    C     0.60215   0.14316   0.62561   0.00000  Uiso   1.00
C53    C     0.63382   0.17211   0.71306   0.00000  Uiso   1.00
C54    C     0.57647   0.24693   0.74346   0.00000  Uiso   1.00
C55    C     0.50964   0.36485   0.82455   0.00000  Uiso   1.00
C56    C     0.54066   0.00823   0.55352   0.00000  Uiso   1.00
C57    C     0.52059   0.92373   0.58037   0.00000  Uiso   1.00
C58    C     0.41145   0.88495   0.55010   0.00000  Uiso   1.00
C59    C     0.24914   0.79337   0.51927   0.00000  Uiso   1.00
C60    C     0.49543   0.14426   0.47731   0.00000  Uiso   1.00
C61    C     0.62367   0.13723   0.43259   0.00000  Uiso   1.00
C62    C     0.65659   0.16988   0.34691   0.00000  Uiso   1.00
C63    C     0.77861   0.15674   0.31828   0.00000  Uiso   1.00
C64    C     0.51625   0.18736   0.57049   0.00000  Uiso   1.00
C65    C     0.45883   0.26215   0.60077   0.00000  Uiso   1.00
C66    C     0.49041   0.29121   0.68824   0.00000  Uiso   1.00
C67    C     0.45475   0.05242   0.49840   0.00000  Uiso   1.00
C68    C     0.34561   0.01377   0.46808   0.00000  Uiso   1.00
C69    C     0.32539   0.92923   0.49488   0.00000  Uiso   1.00
H70    H     0.72047   0.02847   0.62171   0.00000  Uiso   1.00
H71    H     0.89803   0.04564   0.50188   0.00000  Uiso   1.00
H72    H     0.70029   0.13789   0.75570   0.00000  Uiso   1.00
H73    H     0.58709   0.88955   0.62303   0.00000  Uiso   1.00
H74    H     0.05702   0.08419   0.34473   0.00000  Uiso   1.00
H75    H     0.64004   0.27869   0.87994   0.00000  Uiso   1.00
H76    H     0.40133   0.75501   0.60018   0.00000  Uiso   1.00
H77    H     0.42855   0.17867   0.43439   0.00000  Uiso   1.00
H78    H     0.59009   0.20408   0.30427   0.00000  Uiso   1.00
H79    H     0.39236   0.29633   0.55810   0.00000  Uiso   1.00
H80    H     0.27915   0.04799   0.42543   0.00000  Uiso   1.00
H81    H     0.80709   0.21279   0.18434   0.00000  Uiso   1.00
H82    H     0.39011   0.40729   0.71956   0.00000  Uiso   1.00
H83    H     0.15140   0.88362   0.43980   0.00000  Uiso   1.00
O84    O     0.04360   0.16252   0.18233   0.00000  Uiso   1.00
O85    O     0.49653   0.41769   0.88451   0.00000  Uiso   1.00
O86    O     0.18335   0.73064   0.51748   0.00000  Uiso   1.00
N87    N     0.97602   0.11095   0.32483   0.00000  Uiso   1.00
N88    N     0.58619   0.29281   0.82521   0.00000  Uiso   1.00
N89    N     0.36299   0.80322   0.56369   0.00000  Uiso   1.00
N90    N     0.84153   0.18015   0.23853   0.00000  Uiso   1.00
N91    N     0.45170   0.36201   0.73891   0.00000  Uiso   1.00
N92    N     0.22851   0.87242   0.47738   0.00000  Uiso   1.00
C93    C     0.84641   0.56288   0.07879   0.00000  Uiso   1.00
C94    C     0.79042   0.59303   0.98771   0.00000  Uiso   1.00
C95    C     0.66843   0.57984   0.95920   0.00000  Uiso   1.00
C96    C     0.63533   0.61246   0.87351   0.00000  Uiso   1.00
C97    C     0.53531   0.65259   0.74047   0.00000  Uiso   1.00
C98    C     0.89785   0.64316   0.12561   0.00000  Uiso   1.00
C99    C     0.86618   0.67211   0.21306   0.00000  Uiso   1.00
C100   C     0.92353   0.74693   0.24346   0.00000  Uiso   1.00
C101   C     0.99036   0.86485   0.32455   0.00000  Uiso   1.00
C102   C     0.95934   0.50823   0.05352   0.00000  Uiso   1.00
C103   C     0.97941   0.42373   0.08037   0.00000  Uiso   1.00
C104   C     0.08855   0.38495   0.05010   0.00000  Uiso   1.00
C105   C     0.25086   0.29337   0.01927   0.00000  Uiso   1.00
C106   C     0.00457   0.64426   0.97731   0.00000  Uiso   1.00
C107   C     0.87633   0.63723   0.93259   0.00000  Uiso   1.00
C108   C     0.84341   0.66988   0.84691   0.00000  Uiso   1.00
C109   C     0.72139   0.65674   0.81828   0.00000  Uiso   1.00
C110   C     0.98375   0.68736   0.07049   0.00000  Uiso   1.00
C111   C     0.04117   0.76215   0.10077   0.00000  Uiso   1.00
C112   C     0.00959   0.79121   0.18824   0.00000  Uiso   1.00
C113   C     0.04525   0.55242   0.99840   0.00000  Uiso   1.00
C114   C     0.15439   0.51377   0.96808   0.00000  Uiso   1.00
C115   C     0.17461   0.42923   0.99488   0.00000  Uiso   1.00
H116   H     0.77953   0.52847   0.12171   0.00000  Uiso   1.00
H117   H     0.60197   0.54564   0.00188   0.00000  Uiso   1.00
H118   H     0.79971   0.63789   0.25570   0.00000  Uiso   1.00
H119   H     0.91291   0.38955   0.12303   0.00000  Uiso   1.00
H120   H     0.44298   0.58419   0.84473   0.00000  Uiso   1.00
H121   H     0.85996   0.77869   0.37994   0.00000  Uiso   1.00
H122   H     0.09867   0.25501   0.10018   0.00000  Uiso   1.00
H123   H     0.07145   0.67867   0.93439   0.00000  Uiso   1.00
H124   H     0.90991   0.70408   0.80427   0.00000  Uiso   1.00
H125   H     0.10764   0.79633   0.05810   0.00000  Uiso   1.00
H126   H     0.22085   0.54799   0.92543   0.00000  Uiso   1.00
H127   H     0.69291   0.71279   0.68434   0.00000  Uiso   1.00
H128   H     0.10989   0.90729   0.21956   0.00000  Uiso   1.00
H129   H     0.34860   0.38362   0.93980   0.00000  Uiso   1.00
O130   O     0.45640   0.66252   0.68233   0.00000  Uiso   1.00
O131   O     0.00347   0.91769   0.38451   0.00000  Uiso   1.00
O132   O     0.31665   0.23064   0.01748   0.00000  Uiso   1.00
N133   N     0.52398   0.61095   0.82483   0.00000  Uiso   1.00
N134   N     0.91381   0.79281   0.32521   0.00000  Uiso   1.00
N135   N     0.13701   0.30322   0.06369   0.00000  Uiso   1.00
N136   N     0.65847   0.68015   0.73853   0.00000  Uiso   1.00
N137   N     0.04830   0.86201   0.23891   0.00000  Uiso   1.00
N138   N     0.27149   0.37242   0.97738   0.00000  Uiso   1.00
C139   C     0.15359   0.43712   0.57879   0.00000  Uiso   1.00
C140   C     0.20958   0.40697   0.48771   0.00000  Uiso   1.00
C141   C     0.33157   0.42016   0.45920   0.00000  Uiso   1.00
C142   C     0.36467   0.38754   0.37351   0.00000  Uiso   1.00
C143   C     0.46469   0.34741   0.24047   0.00000  Uiso   1.00
C144   C     0.10215   0.35684   0.62561   0.00000  Uiso   1.00
C145   C     0.13382   0.32789   0.71306   0.00000  Uiso   1.00
C146   C     0.07647   0.25307   0.74346   0.00000  Uiso   1.00
C147   C     0.00964   0.13515   0.82455   0.00000  Uiso   1.00
C148   C     0.04066   0.49177   0.55352   0.00000  Uiso   1.00
C149   C     0.02059   0.57627   0.58037   0.00000  Uiso   1.00
C150   C     0.91145   0.61505   0.55010   0.00000  Uiso   1.00
C151   C     0.74914   0.70663   0.51927   0.00000  Uiso   1.00
C152   C     0.99543   0.35574   0.47731   0.00000  Uiso   1.00
C153   C     0.12367   0.36277   0.43259   0.00000  Uiso   1.00
C154   C     0.15659   0.33012   0.34691   0.00000  Uiso   1.00
C155   C     0.27861   0.34326   0.31828   0.00000  Uiso   1.00
C156   C     0.01625   0.31264   0.57049   0.00000  Uiso   1.00
C157   C     0.95883   0.23785   0.60077   0.00000  Uiso   1.00
C158   C     0.99041   0.20879   0.68824   0.00000  Uiso   1.00
C159   C     0.95475   0.44758   0.49840   0.00000  Uiso   1.00
C160   C     0.84561   0.48623   0.46808   0.00000  Uiso   1.00
C161   C     0.82539   0.57077   0.49488   0.00000  Uiso   1.00
H162   H     0.22047   0.47153   0.62171   0.00000  Uiso   1.00
H163   H     0.39803   0.45436   0.50188   0.00000  Uiso   1.00
H164   H     0.20029   0.36211   0.75570   0.00000  Uiso   1.00
H165   H     0.08709   0.61045   0.62303   0.00000  Uiso   1.00
H166   H     0.55702   0.41581   0.34473   0.00000  Uiso   1.00
H167   H     0.14004   0.22131   0.87994   0.00000  Uiso   1.00
H168   H     0.90133   0.74499   0.60018   0.00000  Uiso   1.00
H169   H     0.92855   0.32133   0.43439   0.00000  Uiso   1.00
H170   H     0.09009   0.29592   0.30427   0.00000  Uiso   1.00
H171   H     0.89236   0.20367   0.55810   0.00000  Uiso   1.00
H172   H     0.77915   0.45201   0.42543   0.00000  Uiso   1.00
H173   H     0.30709   0.28721   0.18434   0.00000  Uiso   1.00
H174   H     0.89011   0.09271   0.71956   0.00000  Uiso   1.00
H175   H     0.65140   0.61638   0.43980   0.00000  Uiso   1.00
O176   O     0.54360   0.33748   0.18233   0.00000  Uiso   1.00
O177   O     0.99653   0.08231   0.88451   0.00000  Uiso   1.00
O178   O     0.68335   0.76936   0.51748   0.00000  Uiso   1.00
N179   N     0.47602   0.38905   0.32483   0.00000  Uiso   1.00
N180   N     0.08619   0.20719   0.82521   0.00000  Uiso   1.00
N181   N     0.86299   0.69678   0.56369   0.00000  Uiso   1.00
N182   N     0.34153   0.31985   0.23853   0.00000  Uiso   1.00
N183   N     0.95170   0.13799   0.73891   0.00000  Uiso   1.00
N184   N     0.72851   0.62758   0.47738   0.00000  Uiso   1.00
