data_job_04195
_audit_creation_date              2018-12-19
_audit_creation_method            'Materials Studio'
_symmetry_space_group_name_H-M    'P1'
_symmetry_Int_Tables_number       1
_symmetry_cell_setting            triclinic
loop_
_symmetry_equiv_pos_as_xyz
  x,y,z
_cell_length_a                    30.4054
_cell_length_b                    12.4985
_cell_length_c                    29.5377
_cell_angle_alpha                 90.0000
_cell_angle_beta                  133.7413
_cell_angle_gamma                 90.0000
loop_
_atom_site_label
_atom_site_type_symbol
_atom_site_fract_x
_atom_site_fract_y
_atom_site_fract_z
_atom_site_U_iso_or_equiv
_atom_site_adp_type
_atom_site_occupancy
C1     C     0.79492   0.96065   0.43069   0.00000  Uiso   1.00
C2     C     0.85851   0.94609   0.49572   0.00000  Uiso   1.00
C3     C     0.87443   0.95957   0.55216   0.00000  Uiso   1.00
C4     C     0.93501   0.94252   0.60658   0.00000  Uiso   1.00
C5     C     0.02721   0.92445   0.70786   0.00000  Uiso   1.00
C6     C     0.80129   0.04334   0.39756   0.00000  Uiso   1.00
C7     C     0.76909   0.13859   0.37146   0.00000  Uiso   1.00
C8     C     0.78150   0.20339   0.34324   0.00000  Uiso   1.00
C9     C     0.78482   0.33627   0.29209   0.00000  Uiso   1.00
C10    C     0.77929   0.85533   0.39624   0.00000  Uiso   1.00
C11    C     0.72857   0.79250   0.36902   0.00000  Uiso   1.00
C12    C     0.72244   0.69902   0.33967   0.00000  Uiso   1.00
C13    C     0.69160   0.53998   0.28647   0.00000  Uiso   1.00
C14    C     0.87419   0.90637   0.42697   0.00000  Uiso   1.00
C15    C     0.90157   0.91661   0.49370   0.00000  Uiso   1.00
C16    C     0.96214   0.89952   0.54804   0.00000  Uiso   1.00
C17    C     0.97815   0.91298   0.60455   0.00000  Uiso   1.00
C18    C     0.84435   0.01387   0.39554   0.00000  Uiso   1.00
C19    C     0.85680   0.07854   0.36735   0.00000  Uiso   1.00
C20    C     0.82463   0.17386   0.34122   0.00000  Uiso   1.00
C21    C     0.82234   0.82585   0.39422   0.00000  Uiso   1.00
C22    C     0.81628   0.73245   0.36491   0.00000  Uiso   1.00
C23    C     0.76558   0.66949   0.33764   0.00000  Uiso   1.00
H24    H     0.76140   0.98361   0.43226   0.00000  Uiso   1.00
H25    H     0.84110   0.98240   0.55370   0.00000  Uiso   1.00
H26    H     0.73577   0.16137   0.37303   0.00000  Uiso   1.00
H27    H     0.69527   0.81534   0.37059   0.00000  Uiso   1.00
H28    H     0.94846   0.96810   0.68745   0.00000  Uiso   1.00
H29    H     0.72635   0.34546   0.30647   0.00000  Uiso   1.00
H30    H     0.64093   0.61578   0.30132   0.00000  Uiso   1.00
H31    H     0.90771   0.88342   0.42540   0.00000  Uiso   1.00
H32    H     0.99545   0.87671   0.54646   0.00000  Uiso   1.00
H33    H     0.89012   0.05570   0.36579   0.00000  Uiso   1.00
H34    H     0.84961   0.70966   0.36335   0.00000  Uiso   1.00
H35    H     0.07373   0.88233   0.68158   0.00000  Uiso   1.00
H36    H     0.85162   0.25969   0.30059   0.00000  Uiso   1.00
H37    H     0.76621   0.53001   0.29545   0.00000  Uiso   1.00
O38    O     0.06617   0.92264   0.76428   0.00000  Uiso   1.00
O39    O     0.77477   0.41772   0.26444   0.00000  Uiso   1.00
O40    O     0.66270   0.46039   0.25769   0.00000  Uiso   1.00
N41    N     0.96590   0.94881   0.66945   0.00000  Uiso   1.00
N42    N     0.75825   0.30163   0.31327   0.00000  Uiso   1.00
N43    N     0.67838   0.61946   0.30844   0.00000  Uiso   1.00
N44    N     0.03331   0.90266   0.66629   0.00000  Uiso   1.00
N45    N     0.82566   0.25548   0.31011   0.00000  Uiso   1.00
N46    N     0.74579   0.57330   0.30528   0.00000  Uiso   1.00
C47    C     0.29492   0.46065   0.43069   0.00000  Uiso   1.00
C48    C     0.35851   0.44609   0.49572   0.00000  Uiso   1.00
C49    C     0.37443   0.45957   0.55216   0.00000  Uiso   1.00
C50    C     0.43501   0.44252   0.60658   0.00000  Uiso   1.00
C51    C     0.52721   0.42445   0.70786   0.00000  Uiso   1.00
C52    C     0.30129   0.54334   0.39756   0.00000  Uiso   1.00
C53    C     0.26909   0.63859   0.37146   0.00000  Uiso   1.00
C54    C     0.28150   0.70339   0.34324   0.00000  Uiso   1.00
C55    C     0.28482   0.83627   0.29209   0.00000  Uiso   1.00
C56    C     0.27929   0.35533   0.39624   0.00000  Uiso   1.00
C57    C     0.22857   0.29250   0.36902   0.00000  Uiso   1.00
C58    C     0.22244   0.19902   0.33967   0.00000  Uiso   1.00
C59    C     0.19160   0.03998   0.28647   0.00000  Uiso   1.00
C60    C     0.37419   0.40637   0.42697   0.00000  Uiso   1.00
C61    C     0.40157   0.41661   0.49370   0.00000  Uiso   1.00
C62    C     0.46214   0.39952   0.54804   0.00000  Uiso   1.00
C63    C     0.47815   0.41298   0.60455   0.00000  Uiso   1.00
C64    C     0.34435   0.51387   0.39554   0.00000  Uiso   1.00
C65    C     0.35680   0.57854   0.36735   0.00000  Uiso   1.00
C66    C     0.32463   0.67386   0.34122   0.00000  Uiso   1.00
C67    C     0.32234   0.32585   0.39422   0.00000  Uiso   1.00
C68    C     0.31628   0.23245   0.36491   0.00000  Uiso   1.00
C69    C     0.26558   0.16949   0.33764   0.00000  Uiso   1.00
H70    H     0.26140   0.48361   0.43226   0.00000  Uiso   1.00
H71    H     0.34110   0.48240   0.55370   0.00000  Uiso   1.00
H72    H     0.23577   0.66137   0.37303   0.00000  Uiso   1.00
H73    H     0.19527   0.31534   0.37059   0.00000  Uiso   1.00
H74    H     0.44846   0.46810   0.68745   0.00000  Uiso   1.00
H75    H     0.22635   0.84546   0.30647   0.00000  Uiso   1.00
H76    H     0.14093   0.11578   0.30132   0.00000  Uiso   1.00
H77    H     0.40771   0.38342   0.42540   0.00000  Uiso   1.00
H78    H     0.49545   0.37671   0.54646   0.00000  Uiso   1.00
H79    H     0.39012   0.55570   0.36579   0.00000  Uiso   1.00
H80    H     0.34961   0.20966   0.36335   0.00000  Uiso   1.00
H81    H     0.57373   0.38233   0.68158   0.00000  Uiso   1.00
H82    H     0.35162   0.75969   0.30059   0.00000  Uiso   1.00
H83    H     0.26621   0.03001   0.29545   0.00000  Uiso   1.00
O84    O     0.56617   0.42264   0.76428   0.00000  Uiso   1.00
O85    O     0.27477   0.91772   0.26444   0.00000  Uiso   1.00
O86    O     0.16270   0.96039   0.25769   0.00000  Uiso   1.00
N87    N     0.46590   0.44881   0.66945   0.00000  Uiso   1.00
N88    N     0.25825   0.80163   0.31327   0.00000  Uiso   1.00
N89    N     0.17838   0.11946   0.30844   0.00000  Uiso   1.00
N90    N     0.53331   0.40266   0.66629   0.00000  Uiso   1.00
N91    N     0.32566   0.75548   0.31011   0.00000  Uiso   1.00
N92    N     0.24579   0.07330   0.30528   0.00000  Uiso   1.00
C93    C     0.20508   0.96065   0.06931   0.00000  Uiso   1.00
C94    C     0.14149   0.94609   0.00428   0.00000  Uiso   1.00
C95    C     0.12557   0.95957   0.94784   0.00000  Uiso   1.00
C96    C     0.06499   0.94252   0.89342   0.00000  Uiso   1.00
C97    C     0.97279   0.92445   0.79214   0.00000  Uiso   1.00
C98    C     0.19871   0.04334   0.10244   0.00000  Uiso   1.00
C99    C     0.23091   0.13859   0.12854   0.00000  Uiso   1.00
C100   C     0.21850   0.20339   0.15676   0.00000  Uiso   1.00
C101   C     0.21518   0.33627   0.20791   0.00000  Uiso   1.00
C102   C     0.22071   0.85533   0.10376   0.00000  Uiso   1.00
C103   C     0.27143   0.79250   0.13098   0.00000  Uiso   1.00
C104   C     0.27756   0.69902   0.16033   0.00000  Uiso   1.00
C105   C     0.30840   0.53998   0.21353   0.00000  Uiso   1.00
C106   C     0.12581   0.90637   0.07303   0.00000  Uiso   1.00
C107   C     0.09843   0.91661   0.00630   0.00000  Uiso   1.00
C108   C     0.03786   0.89952   0.95196   0.00000  Uiso   1.00
C109   C     0.02185   0.91298   0.89545   0.00000  Uiso   1.00
C110   C     0.15565   0.01387   0.10446   0.00000  Uiso   1.00
C111   C     0.14320   0.07854   0.13265   0.00000  Uiso   1.00
C112   C     0.17537   0.17386   0.15878   0.00000  Uiso   1.00
C113   C     0.17766   0.82585   0.10578   0.00000  Uiso   1.00
C114   C     0.18372   0.73245   0.13509   0.00000  Uiso   1.00
C115   C     0.23442   0.66949   0.16236   0.00000  Uiso   1.00
H116   H     0.23860   0.98361   0.06774   0.00000  Uiso   1.00
H117   H     0.15890   0.98240   0.94630   0.00000  Uiso   1.00
H118   H     0.26423   0.16137   0.12697   0.00000  Uiso   1.00
H119   H     0.30473   0.81534   0.12941   0.00000  Uiso   1.00
H120   H     0.05154   0.96810   0.81255   0.00000  Uiso   1.00
H121   H     0.27365   0.34546   0.19353   0.00000  Uiso   1.00
H122   H     0.35907   0.61578   0.19868   0.00000  Uiso   1.00
H123   H     0.09229   0.88342   0.07460   0.00000  Uiso   1.00
H124   H     0.00455   0.87671   0.95354   0.00000  Uiso   1.00
H125   H     0.10988   0.05570   0.13421   0.00000  Uiso   1.00
H126   H     0.15039   0.70966   0.13665   0.00000  Uiso   1.00
H127   H     0.92627   0.88233   0.81842   0.00000  Uiso   1.00
H128   H     0.14838   0.25969   0.19941   0.00000  Uiso   1.00
H129   H     0.23379   0.53001   0.20455   0.00000  Uiso   1.00
O130   O     0.93383   0.92264   0.73572   0.00000  Uiso   1.00
O131   O     0.22523   0.41772   0.23556   0.00000  Uiso   1.00
O132   O     0.33730   0.46039   0.24231   0.00000  Uiso   1.00
N133   N     0.03410   0.94881   0.83055   0.00000  Uiso   1.00
N134   N     0.24175   0.30163   0.18673   0.00000  Uiso   1.00
N135   N     0.32162   0.61946   0.19156   0.00000  Uiso   1.00
N136   N     0.96669   0.90266   0.83371   0.00000  Uiso   1.00
N137   N     0.17434   0.25548   0.18989   0.00000  Uiso   1.00
N138   N     0.25421   0.57330   0.19472   0.00000  Uiso   1.00
C139   C     0.70508   0.46065   0.06931   0.00000  Uiso   1.00
C140   C     0.64149   0.44609   0.00428   0.00000  Uiso   1.00
C141   C     0.62557   0.45957   0.94784   0.00000  Uiso   1.00
C142   C     0.56499   0.44252   0.89342   0.00000  Uiso   1.00
C143   C     0.47279   0.42445   0.79214   0.00000  Uiso   1.00
C144   C     0.69871   0.54334   0.10244   0.00000  Uiso   1.00
C145   C     0.73091   0.63859   0.12854   0.00000  Uiso   1.00
C146   C     0.71850   0.70339   0.15676   0.00000  Uiso   1.00
C147   C     0.71518   0.83627   0.20791   0.00000  Uiso   1.00
C148   C     0.72071   0.35533   0.10376   0.00000  Uiso   1.00
C149   C     0.77143   0.29250   0.13098   0.00000  Uiso   1.00
C150   C     0.77756   0.19902   0.16033   0.00000  Uiso   1.00
C151   C     0.80840   0.03998   0.21353   0.00000  Uiso   1.00
C152   C     0.62581   0.40637   0.07303   0.00000  Uiso   1.00
C153   C     0.59843   0.41661   0.00630   0.00000  Uiso   1.00
C154   C     0.53786   0.39952   0.95196   0.00000  Uiso   1.00
C155   C     0.52185   0.41298   0.89545   0.00000  Uiso   1.00
C156   C     0.65565   0.51387   0.10446   0.00000  Uiso   1.00
C157   C     0.64320   0.57854   0.13265   0.00000  Uiso   1.00
C158   C     0.67537   0.67386   0.15878   0.00000  Uiso   1.00
C159   C     0.67766   0.32585   0.10578   0.00000  Uiso   1.00
C160   C     0.68372   0.23245   0.13509   0.00000  Uiso   1.00
C161   C     0.73442   0.16949   0.16236   0.00000  Uiso   1.00
H162   H     0.73860   0.48361   0.06774   0.00000  Uiso   1.00
H163   H     0.65890   0.48240   0.94630   0.00000  Uiso   1.00
H164   H     0.76423   0.66137   0.12697   0.00000  Uiso   1.00
H165   H     0.80473   0.31534   0.12941   0.00000  Uiso   1.00
H166   H     0.55154   0.46810   0.81255   0.00000  Uiso   1.00
H167   H     0.77365   0.84546   0.19353   0.00000  Uiso   1.00
H168   H     0.85907   0.11578   0.19868   0.00000  Uiso   1.00
H169   H     0.59229   0.38342   0.07460   0.00000  Uiso   1.00
H170   H     0.50455   0.37671   0.95354   0.00000  Uiso   1.00
H171   H     0.60988   0.55570   0.13421   0.00000  Uiso   1.00
H172   H     0.65039   0.20966   0.13665   0.00000  Uiso   1.00
H173   H     0.42627   0.38233   0.81842   0.00000  Uiso   1.00
H174   H     0.64838   0.75969   0.19941   0.00000  Uiso   1.00
H175   H     0.73379   0.03001   0.20455   0.00000  Uiso   1.00
O176   O     0.43383   0.42264   0.73572   0.00000  Uiso   1.00
O177   O     0.72523   0.91772   0.23556   0.00000  Uiso   1.00
O178   O     0.83730   0.96039   0.24231   0.00000  Uiso   1.00
N179   N     0.53410   0.44881   0.83055   0.00000  Uiso   1.00
N180   N     0.74175   0.80163   0.18673   0.00000  Uiso   1.00
N181   N     0.82162   0.11946   0.19156   0.00000  Uiso   1.00
N182   N     0.46669   0.40266   0.83371   0.00000  Uiso   1.00
N183   N     0.67434   0.75548   0.18989   0.00000  Uiso   1.00
N184   N     0.75421   0.07330   0.19472   0.00000  Uiso   1.00
C185   C     0.20508   0.03935   0.56931   0.00000  Uiso   1.00
C186   C     0.14149   0.05391   0.50428   0.00000  Uiso   1.00
C187   C     0.12557   0.04043   0.44784   0.00000  Uiso   1.00
C188   C     0.06499   0.05748   0.39342   0.00000  Uiso   1.00
C189   C     0.97279   0.07555   0.29214   0.00000  Uiso   1.00
C190   C     0.19871   0.95666   0.60244   0.00000  Uiso   1.00
C191   C     0.23091   0.86141   0.62854   0.00000  Uiso   1.00
C192   C     0.21850   0.79661   0.65676   0.00000  Uiso   1.00
C193   C     0.21518   0.66373   0.70791   0.00000  Uiso   1.00
C194   C     0.22071   0.14467   0.60376   0.00000  Uiso   1.00
C195   C     0.27143   0.20750   0.63098   0.00000  Uiso   1.00
C196   C     0.27756   0.30098   0.66033   0.00000  Uiso   1.00
C197   C     0.30840   0.46002   0.71353   0.00000  Uiso   1.00
C198   C     0.12581   0.09363   0.57303   0.00000  Uiso   1.00
C199   C     0.09843   0.08339   0.50630   0.00000  Uiso   1.00
C200   C     0.03786   0.10048   0.45196   0.00000  Uiso   1.00
C201   C     0.02185   0.08702   0.39545   0.00000  Uiso   1.00
C202   C     0.15565   0.98613   0.60446   0.00000  Uiso   1.00
C203   C     0.14320   0.92146   0.63265   0.00000  Uiso   1.00
C204   C     0.17537   0.82614   0.65878   0.00000  Uiso   1.00
C205   C     0.17766   0.17415   0.60578   0.00000  Uiso   1.00
C206   C     0.18372   0.26755   0.63509   0.00000  Uiso   1.00
C207   C     0.23442   0.33051   0.66236   0.00000  Uiso   1.00
H208   H     0.23860   0.01639   0.56774   0.00000  Uiso   1.00
H209   H     0.15890   0.01760   0.44630   0.00000  Uiso   1.00
H210   H     0.26423   0.83863   0.62697   0.00000  Uiso   1.00
H211   H     0.30473   0.18466   0.62941   0.00000  Uiso   1.00
H212   H     0.05154   0.03190   0.31255   0.00000  Uiso   1.00
H213   H     0.27365   0.65454   0.69353   0.00000  Uiso   1.00
H214   H     0.35907   0.38422   0.69868   0.00000  Uiso   1.00
H215   H     0.09229   0.11658   0.57460   0.00000  Uiso   1.00
H216   H     0.00455   0.12329   0.45354   0.00000  Uiso   1.00
H217   H     0.10988   0.94430   0.63421   0.00000  Uiso   1.00
H218   H     0.15039   0.29034   0.63665   0.00000  Uiso   1.00
H219   H     0.92627   0.11767   0.31842   0.00000  Uiso   1.00
H220   H     0.14838   0.74031   0.69941   0.00000  Uiso   1.00
H221   H     0.23379   0.46999   0.70455   0.00000  Uiso   1.00
O222   O     0.93383   0.07736   0.23572   0.00000  Uiso   1.00
O223   O     0.22523   0.58228   0.73556   0.00000  Uiso   1.00
O224   O     0.33730   0.53961   0.74231   0.00000  Uiso   1.00
N225   N     0.03410   0.05119   0.33055   0.00000  Uiso   1.00
N226   N     0.24175   0.69837   0.68673   0.00000  Uiso   1.00
N227   N     0.32162   0.38054   0.69156   0.00000  Uiso   1.00
N228   N     0.96669   0.09734   0.33371   0.00000  Uiso   1.00
N229   N     0.17434   0.74452   0.68989   0.00000  Uiso   1.00
N230   N     0.25421   0.42670   0.69472   0.00000  Uiso   1.00
C231   C     0.70508   0.53935   0.56931   0.00000  Uiso   1.00
C232   C     0.64149   0.55391   0.50428   0.00000  Uiso   1.00
C233   C     0.62557   0.54043   0.44784   0.00000  Uiso   1.00
C234   C     0.56499   0.55748   0.39342   0.00000  Uiso   1.00
C235   C     0.47279   0.57555   0.29214   0.00000  Uiso   1.00
C236   C     0.69871   0.45666   0.60244   0.00000  Uiso   1.00
C237   C     0.73091   0.36141   0.62854   0.00000  Uiso   1.00
C238   C     0.71850   0.29661   0.65676   0.00000  Uiso   1.00
C239   C     0.71518   0.16373   0.70791   0.00000  Uiso   1.00
C240   C     0.72071   0.64467   0.60376   0.00000  Uiso   1.00
C241   C     0.77143   0.70750   0.63098   0.00000  Uiso   1.00
C242   C     0.77756   0.80098   0.66033   0.00000  Uiso   1.00
C243   C     0.80840   0.96002   0.71353   0.00000  Uiso   1.00
C244   C     0.62581   0.59363   0.57303   0.00000  Uiso   1.00
C245   C     0.59843   0.58339   0.50630   0.00000  Uiso   1.00
C246   C     0.53786   0.60048   0.45196   0.00000  Uiso   1.00
C247   C     0.52185   0.58702   0.39545   0.00000  Uiso   1.00
C248   C     0.65565   0.48613   0.60446   0.00000  Uiso   1.00
C249   C     0.64320   0.42146   0.63265   0.00000  Uiso   1.00
C250   C     0.67537   0.32614   0.65878   0.00000  Uiso   1.00
C251   C     0.67766   0.67415   0.60578   0.00000  Uiso   1.00
C252   C     0.68372   0.76755   0.63509   0.00000  Uiso   1.00
C253   C     0.73442   0.83051   0.66236   0.00000  Uiso   1.00
H254   H     0.73860   0.51639   0.56774   0.00000  Uiso   1.00
H255   H     0.65890   0.51760   0.44630   0.00000  Uiso   1.00
H256   H     0.76423   0.33863   0.62697   0.00000  Uiso   1.00
H257   H     0.80473   0.68466   0.62941   0.00000  Uiso   1.00
H258   H     0.55154   0.53190   0.31255   0.00000  Uiso   1.00
H259   H     0.77365   0.15454   0.69353   0.00000  Uiso   1.00
H260   H     0.85907   0.88422   0.69868   0.00000  Uiso   1.00
H261   H     0.59229   0.61658   0.57460   0.00000  Uiso   1.00
H262   H     0.50455   0.62329   0.45354   0.00000  Uiso   1.00
H263   H     0.60988   0.44430   0.63421   0.00000  Uiso   1.00
H264   H     0.65039   0.79034   0.63665   0.00000  Uiso   1.00
H265   H     0.42627   0.61767   0.31842   0.00000  Uiso   1.00
H266   H     0.64838   0.24031   0.69941   0.00000  Uiso   1.00
H267   H     0.73379   0.96999   0.70455   0.00000  Uiso   1.00
O268   O     0.43383   0.57736   0.23572   0.00000  Uiso   1.00
O269   O     0.72523   0.08228   0.73556   0.00000  Uiso   1.00
O270   O     0.83730   0.03961   0.74231   0.00000  Uiso   1.00
N271   N     0.53410   0.55119   0.33055   0.00000  Uiso   1.00
N272   N     0.74175   0.19837   0.68673   0.00000  Uiso   1.00
N273   N     0.82162   0.88054   0.69156   0.00000  Uiso   1.00
N274   N     0.46669   0.59734   0.33371   0.00000  Uiso   1.00
N275   N     0.67434   0.24452   0.68989   0.00000  Uiso   1.00
N276   N     0.75421   0.92670   0.69472   0.00000  Uiso   1.00
C277   C     0.79492   0.03935   0.93069   0.00000  Uiso   1.00
C278   C     0.85851   0.05391   0.99572   0.00000  Uiso   1.00
C279   C     0.87443   0.04043   0.05216   0.00000  Uiso   1.00
C280   C     0.93501   0.05748   0.10658   0.00000  Uiso   1.00
C281   C     0.02721   0.07555   0.20786   0.00000  Uiso   1.00
C282   C     0.80129   0.95666   0.89756   0.00000  Uiso   1.00
C283   C     0.76909   0.86141   0.87146   0.00000  Uiso   1.00
C284   C     0.78150   0.79661   0.84324   0.00000  Uiso   1.00
C285   C     0.78482   0.66373   0.79209   0.00000  Uiso   1.00
C286   C     0.77929   0.14467   0.89624   0.00000  Uiso   1.00
C287   C     0.72857   0.20750   0.86902   0.00000  Uiso   1.00
C288   C     0.72244   0.30098   0.83967   0.00000  Uiso   1.00
C289   C     0.69160   0.46002   0.78647   0.00000  Uiso   1.00
C290   C     0.87419   0.09363   0.92697   0.00000  Uiso   1.00
C291   C     0.90157   0.08339   0.99370   0.00000  Uiso   1.00
C292   C     0.96214   0.10048   0.04804   0.00000  Uiso   1.00
C293   C     0.97815   0.08702   0.10455   0.00000  Uiso   1.00
C294   C     0.84435   0.98613   0.89554   0.00000  Uiso   1.00
C295   C     0.85680   0.92146   0.86735   0.00000  Uiso   1.00
C296   C     0.82463   0.82614   0.84122   0.00000  Uiso   1.00
C297   C     0.82234   0.17415   0.89422   0.00000  Uiso   1.00
C298   C     0.81628   0.26755   0.86491   0.00000  Uiso   1.00
C299   C     0.76558   0.33051   0.83764   0.00000  Uiso   1.00
H300   H     0.76140   0.01639   0.93226   0.00000  Uiso   1.00
H301   H     0.84110   0.01760   0.05370   0.00000  Uiso   1.00
H302   H     0.73577   0.83863   0.87303   0.00000  Uiso   1.00
H303   H     0.69527   0.18466   0.87059   0.00000  Uiso   1.00
H304   H     0.94846   0.03190   0.18745   0.00000  Uiso   1.00
H305   H     0.72635   0.65454   0.80647   0.00000  Uiso   1.00
H306   H     0.64093   0.38422   0.80132   0.00000  Uiso   1.00
H307   H     0.90771   0.11658   0.92540   0.00000  Uiso   1.00
H308   H     0.99545   0.12329   0.04646   0.00000  Uiso   1.00
H309   H     0.89012   0.94430   0.86579   0.00000  Uiso   1.00
H310   H     0.84961   0.29034   0.86335   0.00000  Uiso   1.00
H311   H     0.07373   0.11767   0.18158   0.00000  Uiso   1.00
H312   H     0.85162   0.74031   0.80059   0.00000  Uiso   1.00
H313   H     0.76621   0.46999   0.79545   0.00000  Uiso   1.00
O314   O     0.06617   0.07736   0.26428   0.00000  Uiso   1.00
O315   O     0.77477   0.58228   0.76444   0.00000  Uiso   1.00
O316   O     0.66270   0.53961   0.75769   0.00000  Uiso   1.00
N317   N     0.96590   0.05119   0.16945   0.00000  Uiso   1.00
N318   N     0.75825   0.69837   0.81327   0.00000  Uiso   1.00
N319   N     0.67838   0.38054   0.80844   0.00000  Uiso   1.00
N320   N     0.03331   0.09734   0.16629   0.00000  Uiso   1.00
N321   N     0.82566   0.74452   0.81011   0.00000  Uiso   1.00
N322   N     0.74579   0.42670   0.80528   0.00000  Uiso   1.00
C323   C     0.29492   0.53935   0.93069   0.00000  Uiso   1.00
C324   C     0.35851   0.55391   0.99572   0.00000  Uiso   1.00
C325   C     0.37443   0.54043   0.05216   0.00000  Uiso   1.00
C326   C     0.43501   0.55748   0.10658   0.00000  Uiso   1.00
C327   C     0.52721   0.57555   0.20786   0.00000  Uiso   1.00
C328   C     0.30129   0.45666   0.89756   0.00000  Uiso   1.00
C329   C     0.26909   0.36141   0.87146   0.00000  Uiso   1.00
C330   C     0.28150   0.29661   0.84324   0.00000  Uiso   1.00
C331   C     0.28482   0.16373   0.79209   0.00000  Uiso   1.00
C332   C     0.27929   0.64467   0.89624   0.00000  Uiso   1.00
C333   C     0.22857   0.70750   0.86902   0.00000  Uiso   1.00
C334   C     0.22244   0.80098   0.83967   0.00000  Uiso   1.00
C335   C     0.19160   0.96002   0.78647   0.00000  Uiso   1.00
C336   C     0.37419   0.59363   0.92697   0.00000  Uiso   1.00
C337   C     0.40157   0.58339   0.99370   0.00000  Uiso   1.00
C338   C     0.46214   0.60048   0.04804   0.00000  Uiso   1.00
C339   C     0.47815   0.58702   0.10455   0.00000  Uiso   1.00
C340   C     0.34435   0.48613   0.89554   0.00000  Uiso   1.00
C341   C     0.35680   0.42146   0.86735   0.00000  Uiso   1.00
C342   C     0.32463   0.32614   0.84122   0.00000  Uiso   1.00
C343   C     0.32234   0.67415   0.89422   0.00000  Uiso   1.00
C344   C     0.31628   0.76755   0.86491   0.00000  Uiso   1.00
C345   C     0.26558   0.83051   0.83764   0.00000  Uiso   1.00
H346   H     0.26140   0.51639   0.93226   0.00000  Uiso   1.00
H347   H     0.34110   0.51760   0.05370   0.00000  Uiso   1.00
H348   H     0.23577   0.33863   0.87303   0.00000  Uiso   1.00
H349   H     0.19527   0.68466   0.87059   0.00000  Uiso   1.00
H350   H     0.44846   0.53190   0.18745   0.00000  Uiso   1.00
H351   H     0.22635   0.15454   0.80647   0.00000  Uiso   1.00
H352   H     0.14093   0.88422   0.80132   0.00000  Uiso   1.00
H353   H     0.40771   0.61658   0.92540   0.00000  Uiso   1.00
H354   H     0.49545   0.62329   0.04646   0.00000  Uiso   1.00
H355   H     0.39012   0.44430   0.86579   0.00000  Uiso   1.00
H356   H     0.34961   0.79034   0.86335   0.00000  Uiso   1.00
H357   H     0.57373   0.61767   0.18158   0.00000  Uiso   1.00
H358   H     0.35162   0.24031   0.80059   0.00000  Uiso   1.00
H359   H     0.26621   0.96999   0.79545   0.00000  Uiso   1.00
O360   O     0.56617   0.57736   0.26428   0.00000  Uiso   1.00
O361   O     0.27477   0.08228   0.76444   0.00000  Uiso   1.00
O362   O     0.16270   0.03961   0.75769   0.00000  Uiso   1.00
N363   N     0.46590   0.55119   0.16945   0.00000  Uiso   1.00
N364   N     0.25825   0.19837   0.81327   0.00000  Uiso   1.00
N365   N     0.17838   0.88054   0.80844   0.00000  Uiso   1.00
N366   N     0.53331   0.59734   0.16629   0.00000  Uiso   1.00
N367   N     0.32566   0.24452   0.81011   0.00000  Uiso   1.00
N368   N     0.24579   0.92670   0.80528   0.00000  Uiso   1.00
