data_job_02785
_audit_creation_date              2018-12-19
_audit_creation_method            'Materials Studio'
_symmetry_space_group_name_H-M    'P1'
_symmetry_Int_Tables_number       1
_symmetry_cell_setting            triclinic
loop_
_symmetry_equiv_pos_as_xyz
  x,y,z
_cell_length_a                    13.4546
_cell_length_b                    21.3750
_cell_length_c                    14.6244
_cell_angle_alpha                 90.0000
_cell_angle_beta                  73.3371
_cell_angle_gamma                 90.0000
loop_
_atom_site_label
_atom_site_type_symbol
_atom_site_fract_x
_atom_site_fract_y
_atom_site_fract_z
_atom_site_U_iso_or_equiv
_atom_site_adp_type
_atom_site_occupancy
C1     C     0.67029   0.73115   0.00883   0.00000  Uiso   1.00
C2     C     0.56814   0.69824   0.01450   0.00000  Uiso   1.00
C3     C     0.50277   0.67057   0.09537   0.00000  Uiso   1.00
C4     C     0.41293   0.64285   0.08586   0.00000  Uiso   1.00
C5     C     0.25792   0.59173   0.10792   0.00000  Uiso   1.00
C6     C     0.75267   0.69825   0.92975   0.00000  Uiso   1.00
C7     C     0.84245   0.67059   0.93938   0.00000  Uiso   1.00
C8     C     0.90796   0.64288   0.85853   0.00000  Uiso   1.00
C9     C     0.03947   0.59181   0.74901   0.00000  Uiso   1.00
C10    C     0.66041   0.79695   0.97212   0.00000  Uiso   1.00
C11    C     0.67264   0.85229   0.01736   0.00000  Uiso   1.00
C12    C     0.66049   0.90769   0.97217   0.00000  Uiso   1.00
C13    C     0.64875   0.00987   0.92843   0.00000  Uiso   1.00
C14    C     0.62700   0.73115   0.84813   0.00000  Uiso   1.00
C15    C     0.54463   0.69824   0.92721   0.00000  Uiso   1.00
C16    C     0.45487   0.67056   0.91757   0.00000  Uiso   1.00
C17    C     0.38937   0.64285   0.99842   0.00000  Uiso   1.00
C18    C     0.72916   0.69824   0.84247   0.00000  Uiso   1.00
C19    C     0.79455   0.67058   0.76159   0.00000  Uiso   1.00
C20    C     0.88440   0.64288   0.77109   0.00000  Uiso   1.00
C21    C     0.63689   0.79695   0.88484   0.00000  Uiso   1.00
C22    C     0.62473   0.85228   0.83956   0.00000  Uiso   1.00
C23    C     0.63694   0.90769   0.88472   0.00000  Uiso   1.00
H24    H     0.68861   0.73115   0.07679   0.00000  Uiso   1.00
H25    H     0.52100   0.67057   0.16290   0.00000  Uiso   1.00
H26    H     0.86063   0.67060   0.00694   0.00000  Uiso   1.00
H27    H     0.69084   0.85227   0.08490   0.00000  Uiso   1.00
H28    H     0.32482   0.60339   0.21988   0.00000  Uiso   1.00
H29    H     0.04097   0.60346   0.89101   0.00000  Uiso   1.00
H30    H     0.68294   0.98655   0.05541   0.00000  Uiso   1.00
H31    H     0.60869   0.73115   0.78017   0.00000  Uiso   1.00
H32    H     0.43669   0.67057   0.85002   0.00000  Uiso   1.00
H33    H     0.77633   0.67059   0.69405   0.00000  Uiso   1.00
H34    H     0.60654   0.85226   0.77202   0.00000  Uiso   1.00
H35    H     0.25639   0.60339   0.96593   0.00000  Uiso   1.00
H36    H     0.97256   0.60346   0.63705   0.00000  Uiso   1.00
H37    H     0.61451   0.98655   0.80146   0.00000  Uiso   1.00
O38    O     0.17892   0.56352   0.14419   0.00000  Uiso   1.00
O39    O     0.11850   0.56363   0.71272   0.00000  Uiso   1.00
O40    O     0.64875   0.06623   0.92842   0.00000  Uiso   1.00
N41    N     0.33231   0.61171   0.15053   0.00000  Uiso   1.00
N42    N     0.00187   0.61177   0.84306   0.00000  Uiso   1.00
N43    N     0.66716   0.96993   0.99675   0.00000  Uiso   1.00
N44    N     0.29549   0.61171   0.01388   0.00000  Uiso   1.00
N45    N     0.96505   0.61177   0.70641   0.00000  Uiso   1.00
N46    N     0.63034   0.96993   0.86010   0.00000  Uiso   1.00
C47    C     0.17029   0.23115   0.00883   0.00000  Uiso   1.00
C48    C     0.06814   0.19824   0.01450   0.00000  Uiso   1.00
C49    C     0.00277   0.17057   0.09537   0.00000  Uiso   1.00
C50    C     0.91293   0.14285   0.08586   0.00000  Uiso   1.00
C51    C     0.75792   0.09173   0.10792   0.00000  Uiso   1.00
C52    C     0.25267   0.19825   0.92975   0.00000  Uiso   1.00
C53    C     0.34245   0.17059   0.93938   0.00000  Uiso   1.00
C54    C     0.40796   0.14288   0.85853   0.00000  Uiso   1.00
C55    C     0.53947   0.09181   0.74901   0.00000  Uiso   1.00
C56    C     0.16041   0.29695   0.97212   0.00000  Uiso   1.00
C57    C     0.17264   0.35229   0.01736   0.00000  Uiso   1.00
C58    C     0.16049   0.40769   0.97217   0.00000  Uiso   1.00
C59    C     0.14875   0.50987   0.92843   0.00000  Uiso   1.00
C60    C     0.12700   0.23115   0.84813   0.00000  Uiso   1.00
C61    C     0.04463   0.19824   0.92721   0.00000  Uiso   1.00
C62    C     0.95487   0.17056   0.91757   0.00000  Uiso   1.00
C63    C     0.88937   0.14285   0.99842   0.00000  Uiso   1.00
C64    C     0.22916   0.19824   0.84247   0.00000  Uiso   1.00
C65    C     0.29455   0.17058   0.76159   0.00000  Uiso   1.00
C66    C     0.38440   0.14288   0.77109   0.00000  Uiso   1.00
C67    C     0.13689   0.29695   0.88484   0.00000  Uiso   1.00
C68    C     0.12473   0.35228   0.83956   0.00000  Uiso   1.00
C69    C     0.13694   0.40769   0.88472   0.00000  Uiso   1.00
H70    H     0.18861   0.23115   0.07679   0.00000  Uiso   1.00
H71    H     0.02100   0.17057   0.16290   0.00000  Uiso   1.00
H72    H     0.36063   0.17060   0.00694   0.00000  Uiso   1.00
H73    H     0.19084   0.35227   0.08490   0.00000  Uiso   1.00
H74    H     0.82482   0.10339   0.21988   0.00000  Uiso   1.00
H75    H     0.54097   0.10346   0.89101   0.00000  Uiso   1.00
H76    H     0.18294   0.48655   0.05541   0.00000  Uiso   1.00
H77    H     0.10869   0.23115   0.78017   0.00000  Uiso   1.00
H78    H     0.93669   0.17057   0.85002   0.00000  Uiso   1.00
H79    H     0.27633   0.17059   0.69405   0.00000  Uiso   1.00
H80    H     0.10654   0.35226   0.77202   0.00000  Uiso   1.00
H81    H     0.75639   0.10339   0.96593   0.00000  Uiso   1.00
H82    H     0.47256   0.10346   0.63705   0.00000  Uiso   1.00
H83    H     0.11451   0.48655   0.80146   0.00000  Uiso   1.00
O84    O     0.67892   0.06352   0.14419   0.00000  Uiso   1.00
O85    O     0.61850   0.06363   0.71272   0.00000  Uiso   1.00
O86    O     0.14875   0.56623   0.92842   0.00000  Uiso   1.00
N87    N     0.83231   0.11171   0.15053   0.00000  Uiso   1.00
N88    N     0.50187   0.11177   0.84306   0.00000  Uiso   1.00
N89    N     0.16716   0.46993   0.99675   0.00000  Uiso   1.00
N90    N     0.79549   0.11171   0.01388   0.00000  Uiso   1.00
N91    N     0.46505   0.11177   0.70641   0.00000  Uiso   1.00
N92    N     0.13034   0.46993   0.86010   0.00000  Uiso   1.00
C93    C     0.67029   0.26885   0.50883   0.00000  Uiso   1.00
C94    C     0.56814   0.30176   0.51450   0.00000  Uiso   1.00
C95    C     0.50277   0.32943   0.59537   0.00000  Uiso   1.00
C96    C     0.41293   0.35715   0.58586   0.00000  Uiso   1.00
C97    C     0.25792   0.40827   0.60792   0.00000  Uiso   1.00
C98    C     0.75267   0.30175   0.42975   0.00000  Uiso   1.00
C99    C     0.84245   0.32941   0.43938   0.00000  Uiso   1.00
C100   C     0.90796   0.35712   0.35853   0.00000  Uiso   1.00
C101   C     0.03947   0.40819   0.24901   0.00000  Uiso   1.00
C102   C     0.66041   0.20305   0.47212   0.00000  Uiso   1.00
C103   C     0.67264   0.14771   0.51736   0.00000  Uiso   1.00
C104   C     0.66049   0.09231   0.47217   0.00000  Uiso   1.00
C105   C     0.64875   0.99013   0.42843   0.00000  Uiso   1.00
C106   C     0.62700   0.26885   0.34813   0.00000  Uiso   1.00
C107   C     0.54463   0.30176   0.42721   0.00000  Uiso   1.00
C108   C     0.45487   0.32944   0.41757   0.00000  Uiso   1.00
C109   C     0.38937   0.35715   0.49842   0.00000  Uiso   1.00
C110   C     0.72916   0.30176   0.34247   0.00000  Uiso   1.00
C111   C     0.79455   0.32942   0.26159   0.00000  Uiso   1.00
C112   C     0.88440   0.35712   0.27109   0.00000  Uiso   1.00
C113   C     0.63689   0.20305   0.38484   0.00000  Uiso   1.00
C114   C     0.62473   0.14772   0.33956   0.00000  Uiso   1.00
C115   C     0.63694   0.09231   0.38472   0.00000  Uiso   1.00
H116   H     0.68861   0.26885   0.57679   0.00000  Uiso   1.00
H117   H     0.52100   0.32943   0.66290   0.00000  Uiso   1.00
H118   H     0.86063   0.32940   0.50694   0.00000  Uiso   1.00
H119   H     0.69084   0.14773   0.58490   0.00000  Uiso   1.00
H120   H     0.32482   0.39661   0.71988   0.00000  Uiso   1.00
H121   H     0.04097   0.39654   0.39101   0.00000  Uiso   1.00
H122   H     0.68294   0.01345   0.55541   0.00000  Uiso   1.00
H123   H     0.60869   0.26885   0.28017   0.00000  Uiso   1.00
H124   H     0.43669   0.32943   0.35002   0.00000  Uiso   1.00
H125   H     0.77633   0.32941   0.19405   0.00000  Uiso   1.00
H126   H     0.60654   0.14774   0.27202   0.00000  Uiso   1.00
H127   H     0.25639   0.39661   0.46593   0.00000  Uiso   1.00
H128   H     0.97256   0.39654   0.13705   0.00000  Uiso   1.00
H129   H     0.61451   0.01345   0.30146   0.00000  Uiso   1.00
O130   O     0.17892   0.43648   0.64419   0.00000  Uiso   1.00
O131   O     0.11850   0.43637   0.21272   0.00000  Uiso   1.00
O132   O     0.64875   0.93377   0.42842   0.00000  Uiso   1.00
N133   N     0.33231   0.38829   0.65053   0.00000  Uiso   1.00
N134   N     0.00187   0.38823   0.34306   0.00000  Uiso   1.00
N135   N     0.66716   0.03007   0.49675   0.00000  Uiso   1.00
N136   N     0.29549   0.38829   0.51388   0.00000  Uiso   1.00
N137   N     0.96505   0.38823   0.20641   0.00000  Uiso   1.00
N138   N     0.63034   0.03007   0.36010   0.00000  Uiso   1.00
C139   C     0.17029   0.76885   0.50883   0.00000  Uiso   1.00
C140   C     0.06814   0.80176   0.51450   0.00000  Uiso   1.00
C141   C     0.00277   0.82943   0.59537   0.00000  Uiso   1.00
C142   C     0.91293   0.85715   0.58586   0.00000  Uiso   1.00
C143   C     0.75792   0.90827   0.60792   0.00000  Uiso   1.00
C144   C     0.25267   0.80175   0.42975   0.00000  Uiso   1.00
C145   C     0.34245   0.82941   0.43938   0.00000  Uiso   1.00
C146   C     0.40796   0.85712   0.35853   0.00000  Uiso   1.00
C147   C     0.53947   0.90819   0.24901   0.00000  Uiso   1.00
C148   C     0.16041   0.70305   0.47212   0.00000  Uiso   1.00
C149   C     0.17264   0.64771   0.51736   0.00000  Uiso   1.00
C150   C     0.16049   0.59231   0.47217   0.00000  Uiso   1.00
C151   C     0.14875   0.49013   0.42843   0.00000  Uiso   1.00
C152   C     0.12700   0.76885   0.34813   0.00000  Uiso   1.00
C153   C     0.04463   0.80176   0.42721   0.00000  Uiso   1.00
C154   C     0.95487   0.82944   0.41757   0.00000  Uiso   1.00
C155   C     0.88937   0.85715   0.49842   0.00000  Uiso   1.00
C156   C     0.22916   0.80176   0.34247   0.00000  Uiso   1.00
C157   C     0.29455   0.82942   0.26159   0.00000  Uiso   1.00
C158   C     0.38440   0.85712   0.27109   0.00000  Uiso   1.00
C159   C     0.13689   0.70305   0.38484   0.00000  Uiso   1.00
C160   C     0.12473   0.64772   0.33956   0.00000  Uiso   1.00
C161   C     0.13694   0.59231   0.38472   0.00000  Uiso   1.00
H162   H     0.18861   0.76885   0.57679   0.00000  Uiso   1.00
H163   H     0.02100   0.82943   0.66290   0.00000  Uiso   1.00
H164   H     0.36063   0.82940   0.50694   0.00000  Uiso   1.00
H165   H     0.19084   0.64773   0.58490   0.00000  Uiso   1.00
H166   H     0.82482   0.89661   0.71988   0.00000  Uiso   1.00
H167   H     0.54097   0.89654   0.39101   0.00000  Uiso   1.00
H168   H     0.18294   0.51345   0.55541   0.00000  Uiso   1.00
H169   H     0.10869   0.76885   0.28017   0.00000  Uiso   1.00
H170   H     0.93669   0.82943   0.35002   0.00000  Uiso   1.00
H171   H     0.27633   0.82941   0.19405   0.00000  Uiso   1.00
H172   H     0.10654   0.64774   0.27202   0.00000  Uiso   1.00
H173   H     0.75639   0.89661   0.46593   0.00000  Uiso   1.00
H174   H     0.47256   0.89654   0.13705   0.00000  Uiso   1.00
H175   H     0.11451   0.51345   0.30146   0.00000  Uiso   1.00
O176   O     0.67892   0.93648   0.64419   0.00000  Uiso   1.00
O177   O     0.61850   0.93637   0.21272   0.00000  Uiso   1.00
O178   O     0.14875   0.43377   0.42842   0.00000  Uiso   1.00
N179   N     0.83231   0.88829   0.65053   0.00000  Uiso   1.00
N180   N     0.50187   0.88823   0.34306   0.00000  Uiso   1.00
N181   N     0.16716   0.53007   0.49675   0.00000  Uiso   1.00
N182   N     0.79549   0.88829   0.51388   0.00000  Uiso   1.00
N183   N     0.46505   0.88823   0.20641   0.00000  Uiso   1.00
N184   N     0.13034   0.53007   0.36010   0.00000  Uiso   1.00
