data_job_05204
_audit_creation_date              2018-12-19
_audit_creation_method            'Materials Studio'
_symmetry_space_group_name_H-M    'P1'
_symmetry_Int_Tables_number       1
_symmetry_cell_setting            triclinic
loop_
_symmetry_equiv_pos_as_xyz
  x,y,z
_cell_length_a                    21.9653
_cell_length_b                    18.7148
_cell_length_c                    12.6727
_cell_angle_alpha                 90.0000
_cell_angle_beta                  90.0000
_cell_angle_gamma                 90.0000
loop_
_atom_site_label
_atom_site_type_symbol
_atom_site_fract_x
_atom_site_fract_y
_atom_site_fract_z
_atom_site_U_iso_or_equiv
_atom_site_adp_type
_atom_site_occupancy
C1     C     0.81425   0.41434   0.08065   0.00000  Uiso   1.00
C2     C     0.83728   0.35738   0.15688   0.00000  Uiso   1.00
C3     C     0.86295   0.29239   0.12862   0.00000  Uiso   1.00
C4     C     0.88114   0.24763   0.21011   0.00000  Uiso   1.00
C5     C     0.91797   0.15619   0.31237   0.00000  Uiso   1.00
C6     C     0.74790   0.42767   0.11011   0.00000  Uiso   1.00
C7     C     0.69844   0.42179   0.04252   0.00000  Uiso   1.00
C8     C     0.64140   0.43621   0.08464   0.00000  Uiso   1.00
C9     C     0.53948   0.45395   0.11426   0.00000  Uiso   1.00
C10    C     0.84841   0.48271   0.10857   0.00000  Uiso   1.00
C11    C     0.88344   0.52311   0.03968   0.00000  Uiso   1.00
C12    C     0.91101   0.58389   0.08050   0.00000  Uiso   1.00
C13    C     0.96514   0.68707   0.10773   0.00000  Uiso   1.00
C14    C     0.80089   0.45044   0.27562   0.00000  Uiso   1.00
C15    C     0.83002   0.37699   0.26278   0.00000  Uiso   1.00
C16    C     0.84818   0.33232   0.34434   0.00000  Uiso   1.00
C17    C     0.87388   0.26728   0.31620   0.00000  Uiso   1.00
C18    C     0.74065   0.44728   0.21601   0.00000  Uiso   1.00
C19    C     0.68366   0.46172   0.25823   0.00000  Uiso   1.00
C20    C     0.63413   0.45585   0.19073   0.00000  Uiso   1.00
C21    C     0.84116   0.50232   0.21447   0.00000  Uiso   1.00
C22    C     0.86867   0.56305   0.25540   0.00000  Uiso   1.00
C23    C     0.90374   0.60353   0.18659   0.00000  Uiso   1.00
H24    H     0.81989   0.39908   0.99820   0.00000  Uiso   1.00
H25    H     0.86856   0.27723   0.04665   0.00000  Uiso   1.00
H26    H     0.70407   0.40662   0.96057   0.00000  Uiso   1.00
H27    H     0.88905   0.50792   0.95773   0.00000  Uiso   1.00
H28    H     0.91929   0.15077   0.14708   0.00000  Uiso   1.00
H29    H     0.57246   0.42362   0.96555   0.00000  Uiso   1.00
H30    H     0.96252   0.63724   0.95957   0.00000  Uiso   1.00
H31    H     0.79524   0.46571   0.35807   0.00000  Uiso   1.00
H32    H     0.84255   0.34751   0.42628   0.00000  Uiso   1.00
H33    H     0.67807   0.47690   0.34019   0.00000  Uiso   1.00
H34    H     0.86304   0.57820   0.33736   0.00000  Uiso   1.00
H35    H     0.89818   0.20782   0.45520   0.00000  Uiso   1.00
H36    H     0.55136   0.48066   0.27367   0.00000  Uiso   1.00
H37    H     0.94142   0.69428   0.26769   0.00000  Uiso   1.00
O38    O     0.94028   0.10033   0.33952   0.00000  Uiso   1.00
O39    O     0.48527   0.45830   0.10135   0.00000  Uiso   1.00
O40    O     0.99702   0.73857   0.09351   0.00000  Uiso   1.00
N41    N     0.90784   0.18043   0.21023   0.00000  Uiso   1.00
N42    N     0.58358   0.43551   0.04052   0.00000  Uiso   1.00
N43    N     0.94824   0.63524   0.03492   0.00000  Uiso   1.00
N44    N     0.89648   0.21112   0.37603   0.00000  Uiso   1.00
N45    N     0.57222   0.46620   0.20632   0.00000  Uiso   1.00
N46    N     0.93688   0.66593   0.20072   0.00000  Uiso   1.00
C47    C     0.68575   0.08566   0.58065   0.00000  Uiso   1.00
C48    C     0.66272   0.14262   0.65688   0.00000  Uiso   1.00
C49    C     0.63705   0.20761   0.62862   0.00000  Uiso   1.00
C50    C     0.61886   0.25237   0.71011   0.00000  Uiso   1.00
C51    C     0.58203   0.34381   0.81237   0.00000  Uiso   1.00
C52    C     0.75210   0.07233   0.61011   0.00000  Uiso   1.00
C53    C     0.80156   0.07821   0.54252   0.00000  Uiso   1.00
C54    C     0.85860   0.06379   0.58464   0.00000  Uiso   1.00
C55    C     0.96052   0.04605   0.61426   0.00000  Uiso   1.00
C56    C     0.65159   0.01729   0.60857   0.00000  Uiso   1.00
C57    C     0.61656   0.97689   0.53968   0.00000  Uiso   1.00
C58    C     0.58899   0.91611   0.58050   0.00000  Uiso   1.00
C59    C     0.53486   0.81293   0.60773   0.00000  Uiso   1.00
C60    C     0.69911   0.04956   0.77562   0.00000  Uiso   1.00
C61    C     0.66998   0.12301   0.76278   0.00000  Uiso   1.00
C62    C     0.65182   0.16768   0.84434   0.00000  Uiso   1.00
C63    C     0.62612   0.23272   0.81620   0.00000  Uiso   1.00
C64    C     0.75935   0.05272   0.71601   0.00000  Uiso   1.00
C65    C     0.81634   0.03828   0.75823   0.00000  Uiso   1.00
C66    C     0.86587   0.04415   0.69073   0.00000  Uiso   1.00
C67    C     0.65884   0.99768   0.71447   0.00000  Uiso   1.00
C68    C     0.63133   0.93695   0.75540   0.00000  Uiso   1.00
C69    C     0.59626   0.89647   0.68659   0.00000  Uiso   1.00
H70    H     0.68011   0.10092   0.49820   0.00000  Uiso   1.00
H71    H     0.63144   0.22277   0.54665   0.00000  Uiso   1.00
H72    H     0.79593   0.09338   0.46057   0.00000  Uiso   1.00
H73    H     0.61095   0.99208   0.45773   0.00000  Uiso   1.00
H74    H     0.58071   0.34923   0.64708   0.00000  Uiso   1.00
H75    H     0.92754   0.07638   0.46555   0.00000  Uiso   1.00
H76    H     0.53748   0.86276   0.45957   0.00000  Uiso   1.00
H77    H     0.70476   0.03429   0.85807   0.00000  Uiso   1.00
H78    H     0.65745   0.15249   0.92628   0.00000  Uiso   1.00
H79    H     0.82193   0.02310   0.84019   0.00000  Uiso   1.00
H80    H     0.63696   0.92180   0.83736   0.00000  Uiso   1.00
H81    H     0.60182   0.29218   0.95520   0.00000  Uiso   1.00
H82    H     0.94864   0.01934   0.77367   0.00000  Uiso   1.00
H83    H     0.55858   0.80572   0.76769   0.00000  Uiso   1.00
O84    O     0.55972   0.39967   0.83952   0.00000  Uiso   1.00
O85    O     0.01473   0.04170   0.60135   0.00000  Uiso   1.00
O86    O     0.50298   0.76143   0.59351   0.00000  Uiso   1.00
N87    N     0.59216   0.31957   0.71023   0.00000  Uiso   1.00
N88    N     0.91642   0.06449   0.54052   0.00000  Uiso   1.00
N89    N     0.55176   0.86476   0.53492   0.00000  Uiso   1.00
N90    N     0.60352   0.28888   0.87603   0.00000  Uiso   1.00
N91    N     0.92778   0.03380   0.70632   0.00000  Uiso   1.00
N92    N     0.56312   0.83407   0.70072   0.00000  Uiso   1.00
C93    C     0.18575   0.41434   0.41935   0.00000  Uiso   1.00
C94    C     0.16272   0.35738   0.34312   0.00000  Uiso   1.00
C95    C     0.13705   0.29239   0.37138   0.00000  Uiso   1.00
C96    C     0.11886   0.24763   0.28989   0.00000  Uiso   1.00
C97    C     0.08203   0.15619   0.18763   0.00000  Uiso   1.00
C98    C     0.25210   0.42767   0.38989   0.00000  Uiso   1.00
C99    C     0.30156   0.42179   0.45748   0.00000  Uiso   1.00
C100   C     0.35860   0.43621   0.41536   0.00000  Uiso   1.00
C101   C     0.46052   0.45395   0.38574   0.00000  Uiso   1.00
C102   C     0.15159   0.48271   0.39143   0.00000  Uiso   1.00
C103   C     0.11656   0.52311   0.46032   0.00000  Uiso   1.00
C104   C     0.08899   0.58389   0.41950   0.00000  Uiso   1.00
C105   C     0.03486   0.68707   0.39227   0.00000  Uiso   1.00
C106   C     0.19911   0.45044   0.22438   0.00000  Uiso   1.00
C107   C     0.16998   0.37699   0.23722   0.00000  Uiso   1.00
C108   C     0.15182   0.33232   0.15566   0.00000  Uiso   1.00
C109   C     0.12612   0.26728   0.18380   0.00000  Uiso   1.00
C110   C     0.25935   0.44728   0.28399   0.00000  Uiso   1.00
C111   C     0.31634   0.46172   0.24177   0.00000  Uiso   1.00
C112   C     0.36587   0.45585   0.30927   0.00000  Uiso   1.00
C113   C     0.15884   0.50232   0.28553   0.00000  Uiso   1.00
C114   C     0.13133   0.56305   0.24460   0.00000  Uiso   1.00
C115   C     0.09626   0.60353   0.31341   0.00000  Uiso   1.00
H116   H     0.18011   0.39908   0.50180   0.00000  Uiso   1.00
H117   H     0.13144   0.27723   0.45335   0.00000  Uiso   1.00
H118   H     0.29593   0.40662   0.53943   0.00000  Uiso   1.00
H119   H     0.11095   0.50792   0.54227   0.00000  Uiso   1.00
H120   H     0.08071   0.15077   0.35292   0.00000  Uiso   1.00
H121   H     0.42754   0.42362   0.53445   0.00000  Uiso   1.00
H122   H     0.03748   0.63724   0.54043   0.00000  Uiso   1.00
H123   H     0.20476   0.46571   0.14193   0.00000  Uiso   1.00
H124   H     0.15745   0.34751   0.07372   0.00000  Uiso   1.00
H125   H     0.32193   0.47690   0.15981   0.00000  Uiso   1.00
H126   H     0.13696   0.57820   0.16264   0.00000  Uiso   1.00
H127   H     0.10182   0.20782   0.04480   0.00000  Uiso   1.00
H128   H     0.44864   0.48066   0.22633   0.00000  Uiso   1.00
H129   H     0.05858   0.69428   0.23231   0.00000  Uiso   1.00
O130   O     0.05972   0.10033   0.16048   0.00000  Uiso   1.00
O131   O     0.51473   0.45830   0.39865   0.00000  Uiso   1.00
O132   O     0.00298   0.73857   0.40649   0.00000  Uiso   1.00
N133   N     0.09216   0.18043   0.28977   0.00000  Uiso   1.00
N134   N     0.41642   0.43551   0.45948   0.00000  Uiso   1.00
N135   N     0.05176   0.63524   0.46508   0.00000  Uiso   1.00
N136   N     0.10352   0.21112   0.12397   0.00000  Uiso   1.00
N137   N     0.42778   0.46620   0.29368   0.00000  Uiso   1.00
N138   N     0.06312   0.66593   0.29928   0.00000  Uiso   1.00
C139   C     0.31425   0.08566   0.91935   0.00000  Uiso   1.00
C140   C     0.33728   0.14262   0.84312   0.00000  Uiso   1.00
C141   C     0.36295   0.20761   0.87138   0.00000  Uiso   1.00
C142   C     0.38114   0.25237   0.78989   0.00000  Uiso   1.00
C143   C     0.41797   0.34381   0.68763   0.00000  Uiso   1.00
C144   C     0.24790   0.07233   0.88989   0.00000  Uiso   1.00
C145   C     0.19844   0.07821   0.95748   0.00000  Uiso   1.00
C146   C     0.14140   0.06379   0.91536   0.00000  Uiso   1.00
C147   C     0.03948   0.04605   0.88574   0.00000  Uiso   1.00
C148   C     0.34841   0.01729   0.89143   0.00000  Uiso   1.00
C149   C     0.38344   0.97689   0.96032   0.00000  Uiso   1.00
C150   C     0.41101   0.91611   0.91950   0.00000  Uiso   1.00
C151   C     0.46514   0.81293   0.89227   0.00000  Uiso   1.00
C152   C     0.30089   0.04956   0.72438   0.00000  Uiso   1.00
C153   C     0.33002   0.12301   0.73722   0.00000  Uiso   1.00
C154   C     0.34818   0.16768   0.65566   0.00000  Uiso   1.00
C155   C     0.37388   0.23272   0.68380   0.00000  Uiso   1.00
C156   C     0.24065   0.05272   0.78399   0.00000  Uiso   1.00
C157   C     0.18366   0.03828   0.74177   0.00000  Uiso   1.00
C158   C     0.13413   0.04415   0.80927   0.00000  Uiso   1.00
C159   C     0.34116   0.99768   0.78553   0.00000  Uiso   1.00
C160   C     0.36867   0.93695   0.74460   0.00000  Uiso   1.00
C161   C     0.40374   0.89647   0.81341   0.00000  Uiso   1.00
H162   H     0.31989   0.10092   0.00180   0.00000  Uiso   1.00
H163   H     0.36856   0.22277   0.95335   0.00000  Uiso   1.00
H164   H     0.20407   0.09338   0.03943   0.00000  Uiso   1.00
H165   H     0.38905   0.99208   0.04227   0.00000  Uiso   1.00
H166   H     0.41929   0.34923   0.85292   0.00000  Uiso   1.00
H167   H     0.07246   0.07638   0.03445   0.00000  Uiso   1.00
H168   H     0.46252   0.86276   0.04043   0.00000  Uiso   1.00
H169   H     0.29524   0.03429   0.64193   0.00000  Uiso   1.00
H170   H     0.34255   0.15249   0.57372   0.00000  Uiso   1.00
H171   H     0.17807   0.02310   0.65981   0.00000  Uiso   1.00
H172   H     0.36304   0.92180   0.66264   0.00000  Uiso   1.00
H173   H     0.39818   0.29218   0.54480   0.00000  Uiso   1.00
H174   H     0.05136   0.01934   0.72633   0.00000  Uiso   1.00
H175   H     0.44142   0.80572   0.73231   0.00000  Uiso   1.00
O176   O     0.44028   0.39967   0.66048   0.00000  Uiso   1.00
O177   O     0.98527   0.04170   0.89865   0.00000  Uiso   1.00
O178   O     0.49702   0.76143   0.90649   0.00000  Uiso   1.00
N179   N     0.40784   0.31957   0.78977   0.00000  Uiso   1.00
N180   N     0.08358   0.06449   0.95948   0.00000  Uiso   1.00
N181   N     0.44824   0.86476   0.96508   0.00000  Uiso   1.00
N182   N     0.39648   0.28888   0.62397   0.00000  Uiso   1.00
N183   N     0.07222   0.03380   0.79368   0.00000  Uiso   1.00
N184   N     0.43688   0.83407   0.79928   0.00000  Uiso   1.00
C185   C     0.18575   0.58566   0.91935   0.00000  Uiso   1.00
C186   C     0.16272   0.64262   0.84312   0.00000  Uiso   1.00
C187   C     0.13705   0.70761   0.87138   0.00000  Uiso   1.00
C188   C     0.11886   0.75237   0.78989   0.00000  Uiso   1.00
C189   C     0.08203   0.84381   0.68763   0.00000  Uiso   1.00
C190   C     0.25210   0.57233   0.88989   0.00000  Uiso   1.00
C191   C     0.30156   0.57821   0.95748   0.00000  Uiso   1.00
C192   C     0.35860   0.56379   0.91536   0.00000  Uiso   1.00
C193   C     0.46052   0.54605   0.88574   0.00000  Uiso   1.00
C194   C     0.15159   0.51729   0.89143   0.00000  Uiso   1.00
C195   C     0.11656   0.47689   0.96032   0.00000  Uiso   1.00
C196   C     0.08899   0.41611   0.91950   0.00000  Uiso   1.00
C197   C     0.03486   0.31293   0.89227   0.00000  Uiso   1.00
C198   C     0.19911   0.54956   0.72438   0.00000  Uiso   1.00
C199   C     0.16998   0.62301   0.73722   0.00000  Uiso   1.00
C200   C     0.15182   0.66768   0.65566   0.00000  Uiso   1.00
C201   C     0.12612   0.73272   0.68380   0.00000  Uiso   1.00
C202   C     0.25935   0.55272   0.78399   0.00000  Uiso   1.00
C203   C     0.31634   0.53828   0.74177   0.00000  Uiso   1.00
C204   C     0.36587   0.54415   0.80927   0.00000  Uiso   1.00
C205   C     0.15884   0.49768   0.78553   0.00000  Uiso   1.00
C206   C     0.13133   0.43695   0.74460   0.00000  Uiso   1.00
C207   C     0.09626   0.39647   0.81341   0.00000  Uiso   1.00
H208   H     0.18011   0.60092   0.00180   0.00000  Uiso   1.00
H209   H     0.13144   0.72277   0.95335   0.00000  Uiso   1.00
H210   H     0.29593   0.59338   0.03943   0.00000  Uiso   1.00
H211   H     0.11095   0.49208   0.04227   0.00000  Uiso   1.00
H212   H     0.08071   0.84923   0.85292   0.00000  Uiso   1.00
H213   H     0.42754   0.57638   0.03445   0.00000  Uiso   1.00
H214   H     0.03748   0.36276   0.04043   0.00000  Uiso   1.00
H215   H     0.20476   0.53429   0.64193   0.00000  Uiso   1.00
H216   H     0.15745   0.65249   0.57372   0.00000  Uiso   1.00
H217   H     0.32193   0.52310   0.65981   0.00000  Uiso   1.00
H218   H     0.13696   0.42180   0.66264   0.00000  Uiso   1.00
H219   H     0.10182   0.79218   0.54480   0.00000  Uiso   1.00
H220   H     0.44864   0.51934   0.72633   0.00000  Uiso   1.00
H221   H     0.05858   0.30572   0.73231   0.00000  Uiso   1.00
O222   O     0.05972   0.89967   0.66048   0.00000  Uiso   1.00
O223   O     0.51473   0.54170   0.89865   0.00000  Uiso   1.00
O224   O     0.00298   0.26143   0.90649   0.00000  Uiso   1.00
N225   N     0.09216   0.81957   0.78977   0.00000  Uiso   1.00
N226   N     0.41642   0.56449   0.95948   0.00000  Uiso   1.00
N227   N     0.05176   0.36476   0.96508   0.00000  Uiso   1.00
N228   N     0.10352   0.78888   0.62397   0.00000  Uiso   1.00
N229   N     0.42778   0.53380   0.79368   0.00000  Uiso   1.00
N230   N     0.06312   0.33407   0.79928   0.00000  Uiso   1.00
C231   C     0.31425   0.91434   0.41935   0.00000  Uiso   1.00
C232   C     0.33728   0.85738   0.34312   0.00000  Uiso   1.00
C233   C     0.36295   0.79239   0.37138   0.00000  Uiso   1.00
C234   C     0.38114   0.74763   0.28989   0.00000  Uiso   1.00
C235   C     0.41797   0.65619   0.18763   0.00000  Uiso   1.00
C236   C     0.24790   0.92767   0.38989   0.00000  Uiso   1.00
C237   C     0.19844   0.92179   0.45748   0.00000  Uiso   1.00
C238   C     0.14140   0.93621   0.41536   0.00000  Uiso   1.00
C239   C     0.03948   0.95395   0.38574   0.00000  Uiso   1.00
C240   C     0.34841   0.98271   0.39143   0.00000  Uiso   1.00
C241   C     0.38344   0.02311   0.46032   0.00000  Uiso   1.00
C242   C     0.41101   0.08389   0.41950   0.00000  Uiso   1.00
C243   C     0.46514   0.18707   0.39227   0.00000  Uiso   1.00
C244   C     0.30089   0.95044   0.22438   0.00000  Uiso   1.00
C245   C     0.33002   0.87699   0.23722   0.00000  Uiso   1.00
C246   C     0.34818   0.83232   0.15566   0.00000  Uiso   1.00
C247   C     0.37388   0.76728   0.18380   0.00000  Uiso   1.00
C248   C     0.24065   0.94728   0.28399   0.00000  Uiso   1.00
C249   C     0.18366   0.96172   0.24177   0.00000  Uiso   1.00
C250   C     0.13413   0.95585   0.30927   0.00000  Uiso   1.00
C251   C     0.34116   0.00232   0.28553   0.00000  Uiso   1.00
C252   C     0.36867   0.06305   0.24460   0.00000  Uiso   1.00
C253   C     0.40374   0.10353   0.31341   0.00000  Uiso   1.00
H254   H     0.31989   0.89908   0.50180   0.00000  Uiso   1.00
H255   H     0.36856   0.77723   0.45335   0.00000  Uiso   1.00
H256   H     0.20407   0.90662   0.53943   0.00000  Uiso   1.00
H257   H     0.38905   0.00792   0.54227   0.00000  Uiso   1.00
H258   H     0.41929   0.65077   0.35292   0.00000  Uiso   1.00
H259   H     0.07246   0.92362   0.53445   0.00000  Uiso   1.00
H260   H     0.46252   0.13724   0.54043   0.00000  Uiso   1.00
H261   H     0.29524   0.96571   0.14193   0.00000  Uiso   1.00
H262   H     0.34255   0.84751   0.07372   0.00000  Uiso   1.00
H263   H     0.17807   0.97690   0.15981   0.00000  Uiso   1.00
H264   H     0.36304   0.07820   0.16264   0.00000  Uiso   1.00
H265   H     0.39818   0.70782   0.04480   0.00000  Uiso   1.00
H266   H     0.05136   0.98066   0.22633   0.00000  Uiso   1.00
H267   H     0.44142   0.19428   0.23231   0.00000  Uiso   1.00
O268   O     0.44028   0.60033   0.16048   0.00000  Uiso   1.00
O269   O     0.98527   0.95830   0.39865   0.00000  Uiso   1.00
O270   O     0.49702   0.23857   0.40649   0.00000  Uiso   1.00
N271   N     0.40784   0.68043   0.28977   0.00000  Uiso   1.00
N272   N     0.08358   0.93551   0.45948   0.00000  Uiso   1.00
N273   N     0.44824   0.13524   0.46508   0.00000  Uiso   1.00
N274   N     0.39648   0.71112   0.12397   0.00000  Uiso   1.00
N275   N     0.07222   0.96620   0.29368   0.00000  Uiso   1.00
N276   N     0.43688   0.16593   0.29928   0.00000  Uiso   1.00
C277   C     0.81425   0.58566   0.58065   0.00000  Uiso   1.00
C278   C     0.83728   0.64262   0.65688   0.00000  Uiso   1.00
C279   C     0.86295   0.70761   0.62862   0.00000  Uiso   1.00
C280   C     0.88114   0.75237   0.71011   0.00000  Uiso   1.00
C281   C     0.91797   0.84381   0.81237   0.00000  Uiso   1.00
C282   C     0.74790   0.57233   0.61011   0.00000  Uiso   1.00
C283   C     0.69844   0.57821   0.54252   0.00000  Uiso   1.00
C284   C     0.64140   0.56379   0.58464   0.00000  Uiso   1.00
C285   C     0.53948   0.54605   0.61426   0.00000  Uiso   1.00
C286   C     0.84841   0.51729   0.60857   0.00000  Uiso   1.00
C287   C     0.88344   0.47689   0.53968   0.00000  Uiso   1.00
C288   C     0.91101   0.41611   0.58050   0.00000  Uiso   1.00
C289   C     0.96514   0.31293   0.60773   0.00000  Uiso   1.00
C290   C     0.80089   0.54956   0.77562   0.00000  Uiso   1.00
C291   C     0.83002   0.62301   0.76278   0.00000  Uiso   1.00
C292   C     0.84818   0.66768   0.84434   0.00000  Uiso   1.00
C293   C     0.87388   0.73272   0.81620   0.00000  Uiso   1.00
C294   C     0.74065   0.55272   0.71601   0.00000  Uiso   1.00
C295   C     0.68366   0.53828   0.75823   0.00000  Uiso   1.00
C296   C     0.63413   0.54415   0.69073   0.00000  Uiso   1.00
C297   C     0.84116   0.49768   0.71447   0.00000  Uiso   1.00
C298   C     0.86867   0.43695   0.75540   0.00000  Uiso   1.00
C299   C     0.90374   0.39647   0.68659   0.00000  Uiso   1.00
H300   H     0.81989   0.60092   0.49820   0.00000  Uiso   1.00
H301   H     0.86856   0.72277   0.54665   0.00000  Uiso   1.00
H302   H     0.70407   0.59338   0.46057   0.00000  Uiso   1.00
H303   H     0.88905   0.49208   0.45773   0.00000  Uiso   1.00
H304   H     0.91929   0.84923   0.64708   0.00000  Uiso   1.00
H305   H     0.57246   0.57638   0.46555   0.00000  Uiso   1.00
H306   H     0.96252   0.36276   0.45957   0.00000  Uiso   1.00
H307   H     0.79524   0.53429   0.85807   0.00000  Uiso   1.00
H308   H     0.84255   0.65249   0.92628   0.00000  Uiso   1.00
H309   H     0.67807   0.52310   0.84019   0.00000  Uiso   1.00
H310   H     0.86304   0.42180   0.83736   0.00000  Uiso   1.00
H311   H     0.89818   0.79218   0.95520   0.00000  Uiso   1.00
H312   H     0.55136   0.51934   0.77367   0.00000  Uiso   1.00
H313   H     0.94142   0.30572   0.76769   0.00000  Uiso   1.00
O314   O     0.94028   0.89967   0.83952   0.00000  Uiso   1.00
O315   O     0.48527   0.54170   0.60135   0.00000  Uiso   1.00
O316   O     0.99702   0.26143   0.59351   0.00000  Uiso   1.00
N317   N     0.90784   0.81957   0.71023   0.00000  Uiso   1.00
N318   N     0.58358   0.56449   0.54052   0.00000  Uiso   1.00
N319   N     0.94824   0.36476   0.53492   0.00000  Uiso   1.00
N320   N     0.89648   0.78888   0.87603   0.00000  Uiso   1.00
N321   N     0.57222   0.53380   0.70632   0.00000  Uiso   1.00
N322   N     0.93688   0.33407   0.70072   0.00000  Uiso   1.00
C323   C     0.68575   0.91434   0.08065   0.00000  Uiso   1.00
C324   C     0.66272   0.85738   0.15688   0.00000  Uiso   1.00
C325   C     0.63705   0.79239   0.12862   0.00000  Uiso   1.00
C326   C     0.61886   0.74763   0.21011   0.00000  Uiso   1.00
C327   C     0.58203   0.65619   0.31237   0.00000  Uiso   1.00
C328   C     0.75210   0.92767   0.11011   0.00000  Uiso   1.00
C329   C     0.80156   0.92179   0.04252   0.00000  Uiso   1.00
C330   C     0.85860   0.93621   0.08464   0.00000  Uiso   1.00
C331   C     0.96052   0.95395   0.11426   0.00000  Uiso   1.00
C332   C     0.65159   0.98271   0.10857   0.00000  Uiso   1.00
C333   C     0.61656   0.02311   0.03968   0.00000  Uiso   1.00
C334   C     0.58899   0.08389   0.08050   0.00000  Uiso   1.00
C335   C     0.53486   0.18707   0.10773   0.00000  Uiso   1.00
C336   C     0.69911   0.95044   0.27562   0.00000  Uiso   1.00
C337   C     0.66998   0.87699   0.26278   0.00000  Uiso   1.00
C338   C     0.65182   0.83232   0.34434   0.00000  Uiso   1.00
C339   C     0.62612   0.76728   0.31620   0.00000  Uiso   1.00
C340   C     0.75935   0.94728   0.21601   0.00000  Uiso   1.00
C341   C     0.81634   0.96172   0.25823   0.00000  Uiso   1.00
C342   C     0.86587   0.95585   0.19073   0.00000  Uiso   1.00
C343   C     0.65884   0.00232   0.21447   0.00000  Uiso   1.00
C344   C     0.63133   0.06305   0.25540   0.00000  Uiso   1.00
C345   C     0.59626   0.10353   0.18659   0.00000  Uiso   1.00
H346   H     0.68011   0.89908   0.99820   0.00000  Uiso   1.00
H347   H     0.63144   0.77723   0.04665   0.00000  Uiso   1.00
H348   H     0.79593   0.90662   0.96057   0.00000  Uiso   1.00
H349   H     0.61095   0.00792   0.95773   0.00000  Uiso   1.00
H350   H     0.58071   0.65077   0.14708   0.00000  Uiso   1.00
H351   H     0.92754   0.92362   0.96555   0.00000  Uiso   1.00
H352   H     0.53748   0.13724   0.95957   0.00000  Uiso   1.00
H353   H     0.70476   0.96571   0.35807   0.00000  Uiso   1.00
H354   H     0.65745   0.84751   0.42628   0.00000  Uiso   1.00
H355   H     0.82193   0.97690   0.34019   0.00000  Uiso   1.00
H356   H     0.63696   0.07820   0.33736   0.00000  Uiso   1.00
H357   H     0.60182   0.70782   0.45520   0.00000  Uiso   1.00
H358   H     0.94864   0.98066   0.27367   0.00000  Uiso   1.00
H359   H     0.55858   0.19428   0.26769   0.00000  Uiso   1.00
O360   O     0.55972   0.60033   0.33952   0.00000  Uiso   1.00
O361   O     0.01473   0.95830   0.10135   0.00000  Uiso   1.00
O362   O     0.50298   0.23857   0.09351   0.00000  Uiso   1.00
N363   N     0.59216   0.68043   0.21023   0.00000  Uiso   1.00
N364   N     0.91642   0.93551   0.04052   0.00000  Uiso   1.00
N365   N     0.55176   0.13524   0.03492   0.00000  Uiso   1.00
N366   N     0.60352   0.71112   0.37603   0.00000  Uiso   1.00
N367   N     0.92778   0.96620   0.20632   0.00000  Uiso   1.00
N368   N     0.56312   0.16593   0.20072   0.00000  Uiso   1.00
