data_job_05046
_audit_creation_date              2018-12-19
_audit_creation_method            'Materials Studio'
_symmetry_space_group_name_H-M    'P1'
_symmetry_Int_Tables_number       1
_symmetry_cell_setting            triclinic
loop_
_symmetry_equiv_pos_as_xyz
  x,y,z
_cell_length_a                    16.2921
_cell_length_b                    14.1863
_cell_length_c                    10.5612
_cell_angle_alpha                 90.0000
_cell_angle_beta                  111.4756
_cell_angle_gamma                 90.0000
loop_
_atom_site_label
_atom_site_type_symbol
_atom_site_fract_x
_atom_site_fract_y
_atom_site_fract_z
_atom_site_U_iso_or_equiv
_atom_site_adp_type
_atom_site_occupancy
C1     C     0.73893   0.43465   0.48876   0.00000  Uiso   1.00
C2     C     0.76484   0.51380   0.59372   0.00000  Uiso   1.00
C3     C     0.78213   0.50376   0.73182   0.00000  Uiso   1.00
C4     C     0.80477   0.58476   0.81084   0.00000  Uiso   1.00
C5     C     0.84417   0.69431   0.98251   0.00000  Uiso   1.00
C6     C     0.65168   0.46459   0.37996   0.00000  Uiso   1.00
C7     C     0.57382   0.41316   0.33832   0.00000  Uiso   1.00
C8     C     0.50121   0.45273   0.23739   0.00000  Uiso   1.00
C9     C     0.36494   0.48585   0.07712   0.00000  Uiso   1.00
C10    C     0.80675   0.43637   0.42047   0.00000  Uiso   1.00
C11    C     0.85927   0.36121   0.41284   0.00000  Uiso   1.00
C12    C     0.91720   0.37702   0.34598   0.00000  Uiso   1.00
C13    C     0.02172   0.36633   0.24860   0.00000  Uiso   1.00
C14    C     0.74840   0.59636   0.38353   0.00000  Uiso   1.00
C15    C     0.76998   0.60164   0.53656   0.00000  Uiso   1.00
C16    C     0.79261   0.68268   0.61540   0.00000  Uiso   1.00
C17    C     0.80992   0.67275   0.75359   0.00000  Uiso   1.00
C18    C     0.65682   0.55243   0.32281   0.00000  Uiso   1.00
C19    C     0.58430   0.59208   0.22190   0.00000  Uiso   1.00
C20    C     0.50636   0.54073   0.18013   0.00000  Uiso   1.00
C21    C     0.81190   0.52421   0.36331   0.00000  Uiso   1.00
C22    C     0.86975   0.54014   0.29643   0.00000  Uiso   1.00
C23    C     0.92235   0.46502   0.28872   0.00000  Uiso   1.00
H24    H     0.73492   0.36626   0.53324   0.00000  Uiso   1.00
H25    H     0.77813   0.43577   0.77601   0.00000  Uiso   1.00
H26    H     0.56986   0.34518   0.38256   0.00000  Uiso   1.00
H27    H     0.85527   0.29325   0.45708   0.00000  Uiso   1.00
H28    H     0.82827   0.55157   0.01994   0.00000  Uiso   1.00
H29    H     0.38914   0.36056   0.19031   0.00000  Uiso   1.00
H30    H     0.99098   0.25103   0.34744   0.00000  Uiso   1.00
H31    H     0.75240   0.66475   0.33903   0.00000  Uiso   1.00
H32    H     0.79658   0.75064   0.57114   0.00000  Uiso   1.00
H33    H     0.58831   0.66006   0.17769   0.00000  Uiso   1.00
H34    H     0.87372   0.60812   0.25222   0.00000  Uiso   1.00
H35    H     0.84324   0.80713   0.85366   0.00000  Uiso   1.00
H36    H     0.40411   0.61612   0.02402   0.00000  Uiso   1.00
H37    H     0.00595   0.50660   0.18117   0.00000  Uiso   1.00
O38    O     0.86447   0.73047   0.09298   0.00000  Uiso   1.00
O39    O     0.28836   0.47986   0.00453   0.00000  Uiso   1.00
O40    O     0.07795   0.33617   0.21070   0.00000  Uiso   1.00
N41    N     0.82575   0.59993   0.94896   0.00000  Uiso   1.00
N42    N     0.41519   0.42135   0.17331   0.00000  Uiso   1.00
N43    N     0.97783   0.31894   0.32019   0.00000  Uiso   1.00
N44    N     0.83381   0.73744   0.85948   0.00000  Uiso   1.00
N45    N     0.42324   0.55886   0.08384   0.00000  Uiso   1.00
N46    N     0.98589   0.45646   0.23072   0.00000  Uiso   1.00
C47    C     0.23893   0.93465   0.48876   0.00000  Uiso   1.00
C48    C     0.26484   0.01380   0.59372   0.00000  Uiso   1.00
C49    C     0.28213   0.00376   0.73182   0.00000  Uiso   1.00
C50    C     0.30477   0.08476   0.81084   0.00000  Uiso   1.00
C51    C     0.34417   0.19431   0.98251   0.00000  Uiso   1.00
C52    C     0.15168   0.96459   0.37996   0.00000  Uiso   1.00
C53    C     0.07382   0.91316   0.33832   0.00000  Uiso   1.00
C54    C     0.00121   0.95273   0.23739   0.00000  Uiso   1.00
C55    C     0.86494   0.98585   0.07712   0.00000  Uiso   1.00
C56    C     0.30675   0.93637   0.42047   0.00000  Uiso   1.00
C57    C     0.35927   0.86121   0.41284   0.00000  Uiso   1.00
C58    C     0.41720   0.87702   0.34598   0.00000  Uiso   1.00
C59    C     0.52172   0.86633   0.24860   0.00000  Uiso   1.00
C60    C     0.24840   0.09636   0.38353   0.00000  Uiso   1.00
C61    C     0.26998   0.10164   0.53656   0.00000  Uiso   1.00
C62    C     0.29261   0.18268   0.61540   0.00000  Uiso   1.00
C63    C     0.30992   0.17275   0.75359   0.00000  Uiso   1.00
C64    C     0.15682   0.05243   0.32281   0.00000  Uiso   1.00
C65    C     0.08430   0.09208   0.22190   0.00000  Uiso   1.00
C66    C     0.00636   0.04073   0.18013   0.00000  Uiso   1.00
C67    C     0.31190   0.02421   0.36331   0.00000  Uiso   1.00
C68    C     0.36975   0.04014   0.29643   0.00000  Uiso   1.00
C69    C     0.42235   0.96502   0.28872   0.00000  Uiso   1.00
H70    H     0.23492   0.86626   0.53324   0.00000  Uiso   1.00
H71    H     0.27813   0.93577   0.77601   0.00000  Uiso   1.00
H72    H     0.06986   0.84518   0.38256   0.00000  Uiso   1.00
H73    H     0.35527   0.79325   0.45708   0.00000  Uiso   1.00
H74    H     0.32827   0.05157   0.01994   0.00000  Uiso   1.00
H75    H     0.88914   0.86056   0.19031   0.00000  Uiso   1.00
H76    H     0.49098   0.75103   0.34744   0.00000  Uiso   1.00
H77    H     0.25240   0.16475   0.33903   0.00000  Uiso   1.00
H78    H     0.29658   0.25064   0.57114   0.00000  Uiso   1.00
H79    H     0.08831   0.16006   0.17769   0.00000  Uiso   1.00
H80    H     0.37372   0.10812   0.25222   0.00000  Uiso   1.00
H81    H     0.34324   0.30713   0.85366   0.00000  Uiso   1.00
H82    H     0.90411   0.11612   0.02402   0.00000  Uiso   1.00
H83    H     0.50595   0.00660   0.18117   0.00000  Uiso   1.00
O84    O     0.36447   0.23047   0.09298   0.00000  Uiso   1.00
O85    O     0.78836   0.97986   0.00453   0.00000  Uiso   1.00
O86    O     0.57795   0.83617   0.21070   0.00000  Uiso   1.00
N87    N     0.32575   0.09993   0.94896   0.00000  Uiso   1.00
N88    N     0.91519   0.92135   0.17331   0.00000  Uiso   1.00
N89    N     0.47783   0.81894   0.32019   0.00000  Uiso   1.00
N90    N     0.33381   0.23744   0.85948   0.00000  Uiso   1.00
N91    N     0.92324   0.05886   0.08384   0.00000  Uiso   1.00
N92    N     0.48589   0.95646   0.23072   0.00000  Uiso   1.00
C93    C     0.26107   0.43465   0.51124   0.00000  Uiso   1.00
C94    C     0.23516   0.51380   0.40628   0.00000  Uiso   1.00
C95    C     0.21787   0.50376   0.26818   0.00000  Uiso   1.00
C96    C     0.19523   0.58476   0.18916   0.00000  Uiso   1.00
C97    C     0.15583   0.69431   0.01749   0.00000  Uiso   1.00
C98    C     0.34832   0.46459   0.62004   0.00000  Uiso   1.00
C99    C     0.42618   0.41316   0.66168   0.00000  Uiso   1.00
C100   C     0.49879   0.45273   0.76261   0.00000  Uiso   1.00
C101   C     0.63506   0.48585   0.92288   0.00000  Uiso   1.00
C102   C     0.19325   0.43637   0.57953   0.00000  Uiso   1.00
C103   C     0.14073   0.36121   0.58716   0.00000  Uiso   1.00
C104   C     0.08280   0.37702   0.65402   0.00000  Uiso   1.00
C105   C     0.97828   0.36633   0.75140   0.00000  Uiso   1.00
C106   C     0.25160   0.59636   0.61647   0.00000  Uiso   1.00
C107   C     0.23002   0.60164   0.46344   0.00000  Uiso   1.00
C108   C     0.20739   0.68268   0.38460   0.00000  Uiso   1.00
C109   C     0.19008   0.67275   0.24641   0.00000  Uiso   1.00
C110   C     0.34318   0.55243   0.67719   0.00000  Uiso   1.00
C111   C     0.41570   0.59208   0.77810   0.00000  Uiso   1.00
C112   C     0.49364   0.54073   0.81987   0.00000  Uiso   1.00
C113   C     0.18810   0.52421   0.63669   0.00000  Uiso   1.00
C114   C     0.13025   0.54014   0.70357   0.00000  Uiso   1.00
C115   C     0.07765   0.46502   0.71128   0.00000  Uiso   1.00
H116   H     0.26508   0.36626   0.46676   0.00000  Uiso   1.00
H117   H     0.22187   0.43577   0.22399   0.00000  Uiso   1.00
H118   H     0.43014   0.34518   0.61744   0.00000  Uiso   1.00
H119   H     0.14473   0.29325   0.54292   0.00000  Uiso   1.00
H120   H     0.17173   0.55157   0.98006   0.00000  Uiso   1.00
H121   H     0.61086   0.36056   0.80969   0.00000  Uiso   1.00
H122   H     0.00902   0.25103   0.65256   0.00000  Uiso   1.00
H123   H     0.24760   0.66475   0.66097   0.00000  Uiso   1.00
H124   H     0.20342   0.75064   0.42886   0.00000  Uiso   1.00
H125   H     0.41169   0.66006   0.82231   0.00000  Uiso   1.00
H126   H     0.12628   0.60812   0.74778   0.00000  Uiso   1.00
H127   H     0.15676   0.80713   0.14634   0.00000  Uiso   1.00
H128   H     0.59589   0.61612   0.97598   0.00000  Uiso   1.00
H129   H     0.99405   0.50660   0.81883   0.00000  Uiso   1.00
O130   O     0.13553   0.73047   0.90702   0.00000  Uiso   1.00
O131   O     0.71164   0.47986   0.99547   0.00000  Uiso   1.00
O132   O     0.92205   0.33617   0.78930   0.00000  Uiso   1.00
N133   N     0.17425   0.59993   0.05104   0.00000  Uiso   1.00
N134   N     0.58481   0.42135   0.82669   0.00000  Uiso   1.00
N135   N     0.02217   0.31894   0.67981   0.00000  Uiso   1.00
N136   N     0.16619   0.73744   0.14052   0.00000  Uiso   1.00
N137   N     0.57676   0.55886   0.91616   0.00000  Uiso   1.00
N138   N     0.01411   0.45646   0.76928   0.00000  Uiso   1.00
C139   C     0.76107   0.93465   0.51124   0.00000  Uiso   1.00
C140   C     0.73516   0.01380   0.40628   0.00000  Uiso   1.00
C141   C     0.71787   0.00376   0.26818   0.00000  Uiso   1.00
C142   C     0.69523   0.08476   0.18916   0.00000  Uiso   1.00
C143   C     0.65583   0.19431   0.01749   0.00000  Uiso   1.00
C144   C     0.84832   0.96459   0.62004   0.00000  Uiso   1.00
C145   C     0.92618   0.91316   0.66168   0.00000  Uiso   1.00
C146   C     0.99879   0.95273   0.76261   0.00000  Uiso   1.00
C147   C     0.13506   0.98585   0.92288   0.00000  Uiso   1.00
C148   C     0.69325   0.93637   0.57953   0.00000  Uiso   1.00
C149   C     0.64073   0.86121   0.58716   0.00000  Uiso   1.00
C150   C     0.58280   0.87702   0.65402   0.00000  Uiso   1.00
C151   C     0.47828   0.86633   0.75140   0.00000  Uiso   1.00
C152   C     0.75160   0.09636   0.61647   0.00000  Uiso   1.00
C153   C     0.73002   0.10164   0.46344   0.00000  Uiso   1.00
C154   C     0.70739   0.18268   0.38460   0.00000  Uiso   1.00
C155   C     0.69008   0.17275   0.24641   0.00000  Uiso   1.00
C156   C     0.84318   0.05243   0.67719   0.00000  Uiso   1.00
C157   C     0.91570   0.09208   0.77810   0.00000  Uiso   1.00
C158   C     0.99364   0.04073   0.81987   0.00000  Uiso   1.00
C159   C     0.68810   0.02421   0.63669   0.00000  Uiso   1.00
C160   C     0.63025   0.04014   0.70357   0.00000  Uiso   1.00
C161   C     0.57765   0.96502   0.71128   0.00000  Uiso   1.00
H162   H     0.76508   0.86626   0.46676   0.00000  Uiso   1.00
H163   H     0.72187   0.93577   0.22399   0.00000  Uiso   1.00
H164   H     0.93014   0.84518   0.61744   0.00000  Uiso   1.00
H165   H     0.64473   0.79325   0.54292   0.00000  Uiso   1.00
H166   H     0.67173   0.05157   0.98006   0.00000  Uiso   1.00
H167   H     0.11086   0.86056   0.80969   0.00000  Uiso   1.00
H168   H     0.50902   0.75103   0.65256   0.00000  Uiso   1.00
H169   H     0.74760   0.16475   0.66097   0.00000  Uiso   1.00
H170   H     0.70342   0.25064   0.42886   0.00000  Uiso   1.00
H171   H     0.91169   0.16006   0.82231   0.00000  Uiso   1.00
H172   H     0.62628   0.10812   0.74778   0.00000  Uiso   1.00
H173   H     0.65676   0.30713   0.14634   0.00000  Uiso   1.00
H174   H     0.09589   0.11612   0.97598   0.00000  Uiso   1.00
H175   H     0.49405   0.00660   0.81883   0.00000  Uiso   1.00
O176   O     0.63553   0.23047   0.90702   0.00000  Uiso   1.00
O177   O     0.21164   0.97986   0.99547   0.00000  Uiso   1.00
O178   O     0.42205   0.83617   0.78930   0.00000  Uiso   1.00
N179   N     0.67425   0.09993   0.05104   0.00000  Uiso   1.00
N180   N     0.08481   0.92135   0.82669   0.00000  Uiso   1.00
N181   N     0.52217   0.81894   0.67981   0.00000  Uiso   1.00
N182   N     0.66619   0.23744   0.14052   0.00000  Uiso   1.00
N183   N     0.07676   0.05886   0.91616   0.00000  Uiso   1.00
N184   N     0.51411   0.95646   0.76928   0.00000  Uiso   1.00
