data_job_00430
_audit_creation_date              2018-12-19
_audit_creation_method            'Materials Studio'
_symmetry_space_group_name_H-M    'P1'
_symmetry_Int_Tables_number       1
_symmetry_cell_setting            triclinic
loop_
_symmetry_equiv_pos_as_xyz
  x,y,z
_cell_length_a                    20.2053
_cell_length_b                    16.1422
_cell_length_c                    22.6356
_cell_angle_alpha                 90.0000
_cell_angle_beta                  37.7882
_cell_angle_gamma                 90.0000
loop_
_atom_site_label
_atom_site_type_symbol
_atom_site_fract_x
_atom_site_fract_y
_atom_site_fract_z
_atom_site_U_iso_or_equiv
_atom_site_adp_type
_atom_site_occupancy
C1     C     0.67808   0.03610   0.10568   0.00000  Uiso   1.00
C2     C     0.77563   0.08534   0.05830   0.00000  Uiso   1.00
C3     C     0.77215   0.16189   0.08858   0.00000  Uiso   1.00
C4     C     0.87030   0.19676   0.03554   0.00000  Uiso   1.00
C5     C     0.00684   0.27938   0.97417   0.00000  Uiso   1.00
C6     C     0.69678   0.02041   0.02684   0.00000  Uiso   1.00
C7     C     0.62701   0.04237   0.03070   0.00000  Uiso   1.00
C8     C     0.65879   0.02257   0.95118   0.00000  Uiso   1.00
C9     C     0.67289   0.00433   0.84101   0.00000  Uiso   1.00
C10    C     0.68552   0.95170   0.13041   0.00000  Uiso   1.00
C11    C     0.60627   0.91586   0.22135   0.00000  Uiso   1.00
C12    C     0.62855   0.83820   0.22902   0.00000  Uiso   1.00
C13    C     0.62517   0.71327   0.27967   0.00000  Uiso   1.00
C14    C     0.85856   0.96190   0.95761   0.00000  Uiso   1.00
C15    C     0.87365   0.04504   0.97787   0.00000  Uiso   1.00
C16    C     0.97183   0.07980   0.92476   0.00000  Uiso   1.00
C17    C     0.96850   0.15639   0.95497   0.00000  Uiso   1.00
C18    C     0.79481   0.98012   0.94642   0.00000  Uiso   1.00
C19    C     0.82669   0.96028   0.86688   0.00000  Uiso   1.00
C20    C     0.75699   0.98220   0.87061   0.00000  Uiso   1.00
C21    C     0.78355   0.91140   0.04999   0.00000  Uiso   1.00
C22    C     0.80595   0.83378   0.05752   0.00000  Uiso   1.00
C23    C     0.72675   0.79783   0.14845   0.00000  Uiso   1.00
H24    H     0.60177   0.06747   0.16829   0.00000  Uiso   1.00
H25    H     0.69627   0.19306   0.15082   0.00000  Uiso   1.00
H26    H     0.55116   0.07354   0.09295   0.00000  Uiso   1.00
H27    H     0.53042   0.94706   0.28357   0.00000  Uiso   1.00
H28    H     0.84429   0.31454   0.09597   0.00000  Uiso   1.00
H29    H     0.53828   0.06251   0.97396   0.00000  Uiso   1.00
H30    H     0.49456   0.79580   0.37591   0.00000  Uiso   1.00
H31    H     0.93488   0.93053   0.89499   0.00000  Uiso   1.00
H32    H     0.04767   0.04861   0.86253   0.00000  Uiso   1.00
H33    H     0.90255   0.92909   0.80465   0.00000  Uiso   1.00
H34    H     0.88182   0.80261   0.99527   0.00000  Uiso   1.00
H35    H     0.12950   0.19730   0.86198   0.00000  Uiso   1.00
H36    H     0.82348   0.94527   0.73997   0.00000  Uiso   1.00
H37    H     0.77976   0.67855   0.14192   0.00000  Uiso   1.00
O38    O     0.05508   0.33608   0.96253   0.00000  Uiso   1.00
O39    O     0.65359   0.00541   0.80247   0.00000  Uiso   1.00
O40    O     0.59624   0.65549   0.32982   0.00000  Uiso   1.00
N41    N     0.89593   0.27074   0.04537   0.00000  Uiso   1.00
N42    N     0.60984   0.03512   0.93129   0.00000  Uiso   1.00
N43    N     0.56895   0.78575   0.30708   0.00000  Uiso   1.00
N44    N     0.04940   0.20765   0.91946   0.00000  Uiso   1.00
N45    N     0.76330   0.97203   0.80538   0.00000  Uiso   1.00
N46    N     0.72242   0.72266   0.18117   0.00000  Uiso   1.00
C47    C     0.17808   0.53610   0.10568   0.00000  Uiso   1.00
C48    C     0.27563   0.58534   0.05830   0.00000  Uiso   1.00
C49    C     0.27215   0.66189   0.08858   0.00000  Uiso   1.00
C50    C     0.37030   0.69676   0.03554   0.00000  Uiso   1.00
C51    C     0.50684   0.77938   0.97417   0.00000  Uiso   1.00
C52    C     0.19678   0.52041   0.02684   0.00000  Uiso   1.00
C53    C     0.12701   0.54237   0.03070   0.00000  Uiso   1.00
C54    C     0.15879   0.52257   0.95118   0.00000  Uiso   1.00
C55    C     0.17289   0.50433   0.84101   0.00000  Uiso   1.00
C56    C     0.18552   0.45170   0.13041   0.00000  Uiso   1.00
C57    C     0.10627   0.41586   0.22135   0.00000  Uiso   1.00
C58    C     0.12855   0.33820   0.22902   0.00000  Uiso   1.00
C59    C     0.12517   0.21327   0.27967   0.00000  Uiso   1.00
C60    C     0.35856   0.46190   0.95761   0.00000  Uiso   1.00
C61    C     0.37365   0.54504   0.97787   0.00000  Uiso   1.00
C62    C     0.47183   0.57980   0.92476   0.00000  Uiso   1.00
C63    C     0.46850   0.65639   0.95497   0.00000  Uiso   1.00
C64    C     0.29481   0.48012   0.94642   0.00000  Uiso   1.00
C65    C     0.32669   0.46028   0.86688   0.00000  Uiso   1.00
C66    C     0.25699   0.48220   0.87061   0.00000  Uiso   1.00
C67    C     0.28355   0.41140   0.04999   0.00000  Uiso   1.00
C68    C     0.30595   0.33378   0.05752   0.00000  Uiso   1.00
C69    C     0.22675   0.29783   0.14845   0.00000  Uiso   1.00
H70    H     0.10177   0.56747   0.16829   0.00000  Uiso   1.00
H71    H     0.19627   0.69306   0.15082   0.00000  Uiso   1.00
H72    H     0.05116   0.57354   0.09295   0.00000  Uiso   1.00
H73    H     0.03042   0.44706   0.28357   0.00000  Uiso   1.00
H74    H     0.34429   0.81454   0.09597   0.00000  Uiso   1.00
H75    H     0.03828   0.56251   0.97396   0.00000  Uiso   1.00
H76    H     0.99456   0.29580   0.37591   0.00000  Uiso   1.00
H77    H     0.43488   0.43053   0.89499   0.00000  Uiso   1.00
H78    H     0.54767   0.54861   0.86253   0.00000  Uiso   1.00
H79    H     0.40255   0.42909   0.80465   0.00000  Uiso   1.00
H80    H     0.38182   0.30261   0.99527   0.00000  Uiso   1.00
H81    H     0.62950   0.69730   0.86198   0.00000  Uiso   1.00
H82    H     0.32348   0.44527   0.73997   0.00000  Uiso   1.00
H83    H     0.27976   0.17855   0.14192   0.00000  Uiso   1.00
O84    O     0.55508   0.83608   0.96253   0.00000  Uiso   1.00
O85    O     0.15359   0.50541   0.80247   0.00000  Uiso   1.00
O86    O     0.09624   0.15549   0.32982   0.00000  Uiso   1.00
N87    N     0.39593   0.77074   0.04537   0.00000  Uiso   1.00
N88    N     0.10984   0.53512   0.93129   0.00000  Uiso   1.00
N89    N     0.06895   0.28575   0.30708   0.00000  Uiso   1.00
N90    N     0.54940   0.70765   0.91946   0.00000  Uiso   1.00
N91    N     0.26330   0.47203   0.80538   0.00000  Uiso   1.00
N92    N     0.22242   0.22266   0.18117   0.00000  Uiso   1.00
C93    C     0.32192   0.03610   0.39432   0.00000  Uiso   1.00
C94    C     0.22437   0.08534   0.44170   0.00000  Uiso   1.00
C95    C     0.22785   0.16189   0.41142   0.00000  Uiso   1.00
C96    C     0.12970   0.19676   0.46446   0.00000  Uiso   1.00
C97    C     0.99316   0.27938   0.52583   0.00000  Uiso   1.00
C98    C     0.30322   0.02041   0.47316   0.00000  Uiso   1.00
C99    C     0.37299   0.04237   0.46930   0.00000  Uiso   1.00
C100   C     0.34121   0.02257   0.54882   0.00000  Uiso   1.00
C101   C     0.32711   0.00433   0.65899   0.00000  Uiso   1.00
C102   C     0.31448   0.95170   0.36959   0.00000  Uiso   1.00
C103   C     0.39373   0.91586   0.27865   0.00000  Uiso   1.00
C104   C     0.37145   0.83820   0.27098   0.00000  Uiso   1.00
C105   C     0.37483   0.71327   0.22033   0.00000  Uiso   1.00
C106   C     0.14144   0.96190   0.54239   0.00000  Uiso   1.00
C107   C     0.12635   0.04504   0.52213   0.00000  Uiso   1.00
C108   C     0.02817   0.07980   0.57524   0.00000  Uiso   1.00
C109   C     0.03150   0.15639   0.54503   0.00000  Uiso   1.00
C110   C     0.20519   0.98012   0.55358   0.00000  Uiso   1.00
C111   C     0.17331   0.96028   0.63312   0.00000  Uiso   1.00
C112   C     0.24301   0.98220   0.62939   0.00000  Uiso   1.00
C113   C     0.21645   0.91140   0.45001   0.00000  Uiso   1.00
C114   C     0.19405   0.83378   0.44248   0.00000  Uiso   1.00
C115   C     0.27325   0.79783   0.35155   0.00000  Uiso   1.00
H116   H     0.39823   0.06747   0.33171   0.00000  Uiso   1.00
H117   H     0.30373   0.19306   0.34918   0.00000  Uiso   1.00
H118   H     0.44884   0.07354   0.40705   0.00000  Uiso   1.00
H119   H     0.46958   0.94706   0.21643   0.00000  Uiso   1.00
H120   H     0.15571   0.31454   0.40403   0.00000  Uiso   1.00
H121   H     0.46172   0.06251   0.52604   0.00000  Uiso   1.00
H122   H     0.50544   0.79580   0.12409   0.00000  Uiso   1.00
H123   H     0.06512   0.93053   0.60501   0.00000  Uiso   1.00
H124   H     0.95233   0.04861   0.63747   0.00000  Uiso   1.00
H125   H     0.09745   0.92909   0.69535   0.00000  Uiso   1.00
H126   H     0.11818   0.80261   0.50473   0.00000  Uiso   1.00
H127   H     0.87050   0.19730   0.63802   0.00000  Uiso   1.00
H128   H     0.17652   0.94527   0.76003   0.00000  Uiso   1.00
H129   H     0.22024   0.67855   0.35808   0.00000  Uiso   1.00
O130   O     0.94492   0.33608   0.53747   0.00000  Uiso   1.00
O131   O     0.34641   0.00541   0.69753   0.00000  Uiso   1.00
O132   O     0.40376   0.65549   0.17018   0.00000  Uiso   1.00
N133   N     0.10407   0.27074   0.45463   0.00000  Uiso   1.00
N134   N     0.39016   0.03512   0.56871   0.00000  Uiso   1.00
N135   N     0.43105   0.78575   0.19292   0.00000  Uiso   1.00
N136   N     0.95060   0.20765   0.58054   0.00000  Uiso   1.00
N137   N     0.23670   0.97203   0.69462   0.00000  Uiso   1.00
N138   N     0.27758   0.72266   0.31883   0.00000  Uiso   1.00
C139   C     0.82192   0.53610   0.39432   0.00000  Uiso   1.00
C140   C     0.72437   0.58534   0.44170   0.00000  Uiso   1.00
C141   C     0.72785   0.66189   0.41142   0.00000  Uiso   1.00
C142   C     0.62970   0.69676   0.46446   0.00000  Uiso   1.00
C143   C     0.49316   0.77938   0.52583   0.00000  Uiso   1.00
C144   C     0.80322   0.52041   0.47316   0.00000  Uiso   1.00
C145   C     0.87299   0.54237   0.46930   0.00000  Uiso   1.00
C146   C     0.84121   0.52257   0.54882   0.00000  Uiso   1.00
C147   C     0.82711   0.50433   0.65899   0.00000  Uiso   1.00
C148   C     0.81448   0.45170   0.36959   0.00000  Uiso   1.00
C149   C     0.89373   0.41586   0.27865   0.00000  Uiso   1.00
C150   C     0.87145   0.33820   0.27098   0.00000  Uiso   1.00
C151   C     0.87483   0.21327   0.22033   0.00000  Uiso   1.00
C152   C     0.64144   0.46190   0.54239   0.00000  Uiso   1.00
C153   C     0.62635   0.54504   0.52213   0.00000  Uiso   1.00
C154   C     0.52817   0.57980   0.57524   0.00000  Uiso   1.00
C155   C     0.53150   0.65639   0.54503   0.00000  Uiso   1.00
C156   C     0.70519   0.48012   0.55358   0.00000  Uiso   1.00
C157   C     0.67331   0.46028   0.63312   0.00000  Uiso   1.00
C158   C     0.74301   0.48220   0.62939   0.00000  Uiso   1.00
C159   C     0.71645   0.41140   0.45001   0.00000  Uiso   1.00
C160   C     0.69405   0.33378   0.44248   0.00000  Uiso   1.00
C161   C     0.77325   0.29783   0.35155   0.00000  Uiso   1.00
H162   H     0.89823   0.56747   0.33171   0.00000  Uiso   1.00
H163   H     0.80373   0.69306   0.34918   0.00000  Uiso   1.00
H164   H     0.94884   0.57354   0.40705   0.00000  Uiso   1.00
H165   H     0.96958   0.44706   0.21643   0.00000  Uiso   1.00
H166   H     0.65571   0.81454   0.40403   0.00000  Uiso   1.00
H167   H     0.96172   0.56251   0.52604   0.00000  Uiso   1.00
H168   H     0.00544   0.29580   0.12409   0.00000  Uiso   1.00
H169   H     0.56512   0.43053   0.60501   0.00000  Uiso   1.00
H170   H     0.45233   0.54861   0.63747   0.00000  Uiso   1.00
H171   H     0.59745   0.42909   0.69535   0.00000  Uiso   1.00
H172   H     0.61818   0.30261   0.50473   0.00000  Uiso   1.00
H173   H     0.37050   0.69730   0.63802   0.00000  Uiso   1.00
H174   H     0.67652   0.44527   0.76003   0.00000  Uiso   1.00
H175   H     0.72024   0.17855   0.35808   0.00000  Uiso   1.00
O176   O     0.44492   0.83608   0.53747   0.00000  Uiso   1.00
O177   O     0.84641   0.50541   0.69753   0.00000  Uiso   1.00
O178   O     0.90376   0.15549   0.17018   0.00000  Uiso   1.00
N179   N     0.60407   0.77074   0.45463   0.00000  Uiso   1.00
N180   N     0.89016   0.53512   0.56871   0.00000  Uiso   1.00
N181   N     0.93105   0.28575   0.19292   0.00000  Uiso   1.00
N182   N     0.45060   0.70765   0.58054   0.00000  Uiso   1.00
N183   N     0.73670   0.47203   0.69462   0.00000  Uiso   1.00
N184   N     0.77758   0.22266   0.31883   0.00000  Uiso   1.00
C185   C     0.32192   0.96390   0.89432   0.00000  Uiso   1.00
C186   C     0.22437   0.91466   0.94170   0.00000  Uiso   1.00
C187   C     0.22785   0.83811   0.91142   0.00000  Uiso   1.00
C188   C     0.12970   0.80324   0.96446   0.00000  Uiso   1.00
C189   C     0.99316   0.72062   0.02583   0.00000  Uiso   1.00
C190   C     0.30322   0.97959   0.97316   0.00000  Uiso   1.00
C191   C     0.37299   0.95763   0.96930   0.00000  Uiso   1.00
C192   C     0.34121   0.97743   0.04882   0.00000  Uiso   1.00
C193   C     0.32711   0.99567   0.15899   0.00000  Uiso   1.00
C194   C     0.31448   0.04830   0.86959   0.00000  Uiso   1.00
C195   C     0.39373   0.08414   0.77865   0.00000  Uiso   1.00
C196   C     0.37145   0.16180   0.77098   0.00000  Uiso   1.00
C197   C     0.37483   0.28673   0.72033   0.00000  Uiso   1.00
C198   C     0.14144   0.03810   0.04239   0.00000  Uiso   1.00
C199   C     0.12635   0.95496   0.02213   0.00000  Uiso   1.00
C200   C     0.02817   0.92020   0.07524   0.00000  Uiso   1.00
C201   C     0.03150   0.84361   0.04503   0.00000  Uiso   1.00
C202   C     0.20519   0.01988   0.05358   0.00000  Uiso   1.00
C203   C     0.17331   0.03972   0.13312   0.00000  Uiso   1.00
C204   C     0.24301   0.01780   0.12939   0.00000  Uiso   1.00
C205   C     0.21645   0.08860   0.95001   0.00000  Uiso   1.00
C206   C     0.19405   0.16622   0.94248   0.00000  Uiso   1.00
C207   C     0.27325   0.20217   0.85155   0.00000  Uiso   1.00
H208   H     0.39823   0.93253   0.83171   0.00000  Uiso   1.00
H209   H     0.30373   0.80694   0.84918   0.00000  Uiso   1.00
H210   H     0.44884   0.92646   0.90705   0.00000  Uiso   1.00
H211   H     0.46958   0.05294   0.71643   0.00000  Uiso   1.00
H212   H     0.15571   0.68546   0.90403   0.00000  Uiso   1.00
H213   H     0.46172   0.93749   0.02604   0.00000  Uiso   1.00
H214   H     0.50544   0.20420   0.62409   0.00000  Uiso   1.00
H215   H     0.06512   0.06947   0.10501   0.00000  Uiso   1.00
H216   H     0.95233   0.95139   0.13747   0.00000  Uiso   1.00
H217   H     0.09745   0.07091   0.19535   0.00000  Uiso   1.00
H218   H     0.11818   0.19739   0.00473   0.00000  Uiso   1.00
H219   H     0.87050   0.80270   0.13802   0.00000  Uiso   1.00
H220   H     0.17652   0.05473   0.26003   0.00000  Uiso   1.00
H221   H     0.22024   0.32145   0.85808   0.00000  Uiso   1.00
O222   O     0.94492   0.66392   0.03747   0.00000  Uiso   1.00
O223   O     0.34641   0.99459   0.19753   0.00000  Uiso   1.00
O224   O     0.40376   0.34451   0.67018   0.00000  Uiso   1.00
N225   N     0.10407   0.72926   0.95463   0.00000  Uiso   1.00
N226   N     0.39016   0.96488   0.06871   0.00000  Uiso   1.00
N227   N     0.43105   0.21425   0.69292   0.00000  Uiso   1.00
N228   N     0.95060   0.79235   0.08054   0.00000  Uiso   1.00
N229   N     0.23670   0.02797   0.19462   0.00000  Uiso   1.00
N230   N     0.27758   0.27734   0.81883   0.00000  Uiso   1.00
C231   C     0.82192   0.46390   0.89432   0.00000  Uiso   1.00
C232   C     0.72437   0.41466   0.94170   0.00000  Uiso   1.00
C233   C     0.72785   0.33811   0.91142   0.00000  Uiso   1.00
C234   C     0.62970   0.30324   0.96446   0.00000  Uiso   1.00
C235   C     0.49316   0.22062   0.02583   0.00000  Uiso   1.00
C236   C     0.80322   0.47959   0.97316   0.00000  Uiso   1.00
C237   C     0.87299   0.45763   0.96930   0.00000  Uiso   1.00
C238   C     0.84121   0.47743   0.04882   0.00000  Uiso   1.00
C239   C     0.82711   0.49567   0.15899   0.00000  Uiso   1.00
C240   C     0.81448   0.54830   0.86959   0.00000  Uiso   1.00
C241   C     0.89373   0.58414   0.77865   0.00000  Uiso   1.00
C242   C     0.87145   0.66180   0.77098   0.00000  Uiso   1.00
C243   C     0.87483   0.78673   0.72033   0.00000  Uiso   1.00
C244   C     0.64144   0.53810   0.04239   0.00000  Uiso   1.00
C245   C     0.62635   0.45496   0.02213   0.00000  Uiso   1.00
C246   C     0.52817   0.42020   0.07524   0.00000  Uiso   1.00
C247   C     0.53150   0.34361   0.04503   0.00000  Uiso   1.00
C248   C     0.70519   0.51988   0.05358   0.00000  Uiso   1.00
C249   C     0.67331   0.53972   0.13312   0.00000  Uiso   1.00
C250   C     0.74301   0.51780   0.12939   0.00000  Uiso   1.00
C251   C     0.71645   0.58860   0.95001   0.00000  Uiso   1.00
C252   C     0.69405   0.66622   0.94248   0.00000  Uiso   1.00
C253   C     0.77325   0.70217   0.85155   0.00000  Uiso   1.00
H254   H     0.89823   0.43253   0.83171   0.00000  Uiso   1.00
H255   H     0.80373   0.30694   0.84918   0.00000  Uiso   1.00
H256   H     0.94884   0.42646   0.90705   0.00000  Uiso   1.00
H257   H     0.96958   0.55294   0.71643   0.00000  Uiso   1.00
H258   H     0.65571   0.18546   0.90403   0.00000  Uiso   1.00
H259   H     0.96172   0.43749   0.02604   0.00000  Uiso   1.00
H260   H     0.00544   0.70420   0.62409   0.00000  Uiso   1.00
H261   H     0.56512   0.56947   0.10501   0.00000  Uiso   1.00
H262   H     0.45233   0.45139   0.13747   0.00000  Uiso   1.00
H263   H     0.59745   0.57091   0.19535   0.00000  Uiso   1.00
H264   H     0.61818   0.69739   0.00473   0.00000  Uiso   1.00
H265   H     0.37050   0.30270   0.13802   0.00000  Uiso   1.00
H266   H     0.67652   0.55473   0.26003   0.00000  Uiso   1.00
H267   H     0.72024   0.82145   0.85808   0.00000  Uiso   1.00
O268   O     0.44492   0.16392   0.03747   0.00000  Uiso   1.00
O269   O     0.84641   0.49459   0.19753   0.00000  Uiso   1.00
O270   O     0.90376   0.84451   0.67018   0.00000  Uiso   1.00
N271   N     0.60407   0.22926   0.95463   0.00000  Uiso   1.00
N272   N     0.89016   0.46488   0.06871   0.00000  Uiso   1.00
N273   N     0.93105   0.71425   0.69292   0.00000  Uiso   1.00
N274   N     0.45060   0.29235   0.08054   0.00000  Uiso   1.00
N275   N     0.73670   0.52797   0.19462   0.00000  Uiso   1.00
N276   N     0.77758   0.77734   0.81883   0.00000  Uiso   1.00
C277   C     0.67808   0.96390   0.60568   0.00000  Uiso   1.00
C278   C     0.77563   0.91466   0.55830   0.00000  Uiso   1.00
C279   C     0.77215   0.83811   0.58858   0.00000  Uiso   1.00
C280   C     0.87030   0.80324   0.53554   0.00000  Uiso   1.00
C281   C     0.00684   0.72062   0.47417   0.00000  Uiso   1.00
C282   C     0.69678   0.97959   0.52684   0.00000  Uiso   1.00
C283   C     0.62701   0.95763   0.53070   0.00000  Uiso   1.00
C284   C     0.65879   0.97743   0.45118   0.00000  Uiso   1.00
C285   C     0.67289   0.99567   0.34101   0.00000  Uiso   1.00
C286   C     0.68552   0.04830   0.63041   0.00000  Uiso   1.00
C287   C     0.60627   0.08414   0.72135   0.00000  Uiso   1.00
C288   C     0.62855   0.16180   0.72902   0.00000  Uiso   1.00
C289   C     0.62517   0.28673   0.77967   0.00000  Uiso   1.00
C290   C     0.85856   0.03810   0.45761   0.00000  Uiso   1.00
C291   C     0.87365   0.95496   0.47787   0.00000  Uiso   1.00
C292   C     0.97183   0.92020   0.42476   0.00000  Uiso   1.00
C293   C     0.96850   0.84361   0.45497   0.00000  Uiso   1.00
C294   C     0.79481   0.01988   0.44642   0.00000  Uiso   1.00
C295   C     0.82669   0.03972   0.36688   0.00000  Uiso   1.00
C296   C     0.75699   0.01780   0.37061   0.00000  Uiso   1.00
C297   C     0.78355   0.08860   0.54999   0.00000  Uiso   1.00
C298   C     0.80595   0.16622   0.55752   0.00000  Uiso   1.00
C299   C     0.72675   0.20217   0.64845   0.00000  Uiso   1.00
H300   H     0.60177   0.93253   0.66829   0.00000  Uiso   1.00
H301   H     0.69627   0.80694   0.65082   0.00000  Uiso   1.00
H302   H     0.55116   0.92646   0.59295   0.00000  Uiso   1.00
H303   H     0.53042   0.05294   0.78357   0.00000  Uiso   1.00
H304   H     0.84429   0.68546   0.59597   0.00000  Uiso   1.00
H305   H     0.53828   0.93749   0.47396   0.00000  Uiso   1.00
H306   H     0.49456   0.20420   0.87591   0.00000  Uiso   1.00
H307   H     0.93488   0.06947   0.39499   0.00000  Uiso   1.00
H308   H     0.04767   0.95139   0.36253   0.00000  Uiso   1.00
H309   H     0.90255   0.07091   0.30465   0.00000  Uiso   1.00
H310   H     0.88182   0.19739   0.49527   0.00000  Uiso   1.00
H311   H     0.12950   0.80270   0.36198   0.00000  Uiso   1.00
H312   H     0.82348   0.05473   0.23997   0.00000  Uiso   1.00
H313   H     0.77976   0.32145   0.64192   0.00000  Uiso   1.00
O314   O     0.05508   0.66392   0.46253   0.00000  Uiso   1.00
O315   O     0.65359   0.99459   0.30247   0.00000  Uiso   1.00
O316   O     0.59624   0.34451   0.82982   0.00000  Uiso   1.00
N317   N     0.89593   0.72926   0.54537   0.00000  Uiso   1.00
N318   N     0.60984   0.96488   0.43129   0.00000  Uiso   1.00
N319   N     0.56895   0.21425   0.80708   0.00000  Uiso   1.00
N320   N     0.04940   0.79235   0.41946   0.00000  Uiso   1.00
N321   N     0.76330   0.02797   0.30538   0.00000  Uiso   1.00
N322   N     0.72242   0.27734   0.68117   0.00000  Uiso   1.00
C323   C     0.17808   0.46390   0.60568   0.00000  Uiso   1.00
C324   C     0.27563   0.41466   0.55830   0.00000  Uiso   1.00
C325   C     0.27215   0.33811   0.58858   0.00000  Uiso   1.00
C326   C     0.37030   0.30324   0.53554   0.00000  Uiso   1.00
C327   C     0.50684   0.22062   0.47417   0.00000  Uiso   1.00
C328   C     0.19678   0.47959   0.52684   0.00000  Uiso   1.00
C329   C     0.12701   0.45763   0.53070   0.00000  Uiso   1.00
C330   C     0.15879   0.47743   0.45118   0.00000  Uiso   1.00
C331   C     0.17289   0.49567   0.34101   0.00000  Uiso   1.00
C332   C     0.18552   0.54830   0.63041   0.00000  Uiso   1.00
C333   C     0.10627   0.58414   0.72135   0.00000  Uiso   1.00
C334   C     0.12855   0.66180   0.72902   0.00000  Uiso   1.00
C335   C     0.12517   0.78673   0.77967   0.00000  Uiso   1.00
C336   C     0.35856   0.53810   0.45761   0.00000  Uiso   1.00
C337   C     0.37365   0.45496   0.47787   0.00000  Uiso   1.00
C338   C     0.47183   0.42020   0.42476   0.00000  Uiso   1.00
C339   C     0.46850   0.34361   0.45497   0.00000  Uiso   1.00
C340   C     0.29481   0.51988   0.44642   0.00000  Uiso   1.00
C341   C     0.32669   0.53972   0.36688   0.00000  Uiso   1.00
C342   C     0.25699   0.51780   0.37061   0.00000  Uiso   1.00
C343   C     0.28355   0.58860   0.54999   0.00000  Uiso   1.00
C344   C     0.30595   0.66622   0.55752   0.00000  Uiso   1.00
C345   C     0.22675   0.70217   0.64845   0.00000  Uiso   1.00
H346   H     0.10177   0.43253   0.66829   0.00000  Uiso   1.00
H347   H     0.19627   0.30694   0.65082   0.00000  Uiso   1.00
H348   H     0.05116   0.42646   0.59295   0.00000  Uiso   1.00
H349   H     0.03042   0.55294   0.78357   0.00000  Uiso   1.00
H350   H     0.34429   0.18546   0.59597   0.00000  Uiso   1.00
H351   H     0.03828   0.43749   0.47396   0.00000  Uiso   1.00
H352   H     0.99456   0.70420   0.87591   0.00000  Uiso   1.00
H353   H     0.43488   0.56947   0.39499   0.00000  Uiso   1.00
H354   H     0.54767   0.45139   0.36253   0.00000  Uiso   1.00
H355   H     0.40255   0.57091   0.30465   0.00000  Uiso   1.00
H356   H     0.38182   0.69739   0.49527   0.00000  Uiso   1.00
H357   H     0.62950   0.30270   0.36198   0.00000  Uiso   1.00
H358   H     0.32348   0.55473   0.23997   0.00000  Uiso   1.00
H359   H     0.27976   0.82145   0.64192   0.00000  Uiso   1.00
O360   O     0.55508   0.16392   0.46253   0.00000  Uiso   1.00
O361   O     0.15359   0.49459   0.30247   0.00000  Uiso   1.00
O362   O     0.09624   0.84451   0.82982   0.00000  Uiso   1.00
N363   N     0.39593   0.22926   0.54537   0.00000  Uiso   1.00
N364   N     0.10984   0.46488   0.43129   0.00000  Uiso   1.00
N365   N     0.06895   0.71425   0.80708   0.00000  Uiso   1.00
N366   N     0.54940   0.29235   0.41946   0.00000  Uiso   1.00
N367   N     0.26330   0.52797   0.30538   0.00000  Uiso   1.00
N368   N     0.22242   0.77734   0.68117   0.00000  Uiso   1.00
