data_job_03429
_audit_creation_date              2018-12-19
_audit_creation_method            'Materials Studio'
_symmetry_space_group_name_H-M    'P1'
_symmetry_Int_Tables_number       1
_symmetry_cell_setting            triclinic
loop_
_symmetry_equiv_pos_as_xyz
  x,y,z
_cell_length_a                    16.5422
_cell_length_b                    12.6548
_cell_length_c                    12.3578
_cell_angle_alpha                 90.0000
_cell_angle_beta                  90.0000
_cell_angle_gamma                 90.0000
loop_
_atom_site_label
_atom_site_type_symbol
_atom_site_fract_x
_atom_site_fract_y
_atom_site_fract_z
_atom_site_U_iso_or_equiv
_atom_site_adp_type
_atom_site_occupancy
C1     C     0.73549   0.84718   0.17486   0.00000  Uiso   1.00
C2     C     0.65993   0.84140   0.24530   0.00000  Uiso   1.00
C3     C     0.58158   0.86243   0.21141   0.00000  Uiso   1.00
C4     C     0.52075   0.85274   0.28817   0.00000  Uiso   1.00
C5     C     0.40084   0.84834   0.38131   0.00000  Uiso   1.00
C6     C     0.79259   0.92391   0.23152   0.00000  Uiso   1.00
C7     C     0.82580   0.01430   0.18603   0.00000  Uiso   1.00
C8     C     0.87665   0.07405   0.25118   0.00000  Uiso   1.00
C9     C     0.96276   0.19770   0.32290   0.00000  Uiso   1.00
C10    C     0.77538   0.73881   0.18249   0.00000  Uiso   1.00
C11    C     0.79414   0.67357   0.09579   0.00000  Uiso   1.00
C12    C     0.83052   0.57748   0.11967   0.00000  Uiso   1.00
C13    C     0.88991   0.41373   0.11527   0.00000  Uiso   1.00
C14    C     0.76677   0.79256   0.37145   0.00000  Uiso   1.00
C15    C     0.67692   0.81174   0.35208   0.00000  Uiso   1.00
C16    C     0.61619   0.80201   0.42891   0.00000  Uiso   1.00
C17    C     0.53776   0.82302   0.39514   0.00000  Uiso   1.00
C18    C     0.80959   0.89425   0.33829   0.00000  Uiso   1.00
C19    C     0.86041   0.95387   0.40353   0.00000  Uiso   1.00
C20    C     0.89368   0.04433   0.35816   0.00000  Uiso   1.00
C21    C     0.79237   0.70914   0.28927   0.00000  Uiso   1.00
C22    C     0.82874   0.61314   0.31329   0.00000  Uiso   1.00
C23    C     0.84754   0.54776   0.22664   0.00000  Uiso   1.00
H24    H     0.72226   0.87028   0.09173   0.00000  Uiso   1.00
H25    H     0.56846   0.88540   0.12877   0.00000  Uiso   1.00
H26    H     0.81265   0.03723   0.10339   0.00000  Uiso   1.00
H27    H     0.78098   0.69655   0.01317   0.00000  Uiso   1.00
H28    H     0.40543   0.88911   0.21693   0.00000  Uiso   1.00
H29    H     0.92033   0.20924   0.16341   0.00000  Uiso   1.00
H30    H     0.85357   0.49085   0.97315   0.00000  Uiso   1.00
H31    H     0.78000   0.76947   0.45459   0.00000  Uiso   1.00
H32    H     0.62936   0.77905   0.51154   0.00000  Uiso   1.00
H33    H     0.87354   0.93089   0.48616   0.00000  Uiso   1.00
H34    H     0.84188   0.59021   0.39594   0.00000  Uiso   1.00
H35    H     0.45486   0.80280   0.52760   0.00000  Uiso   1.00
H36    H     0.96977   0.12294   0.47408   0.00000  Uiso   1.00
H37    H     0.90300   0.40454   0.28382   0.00000  Uiso   1.00
O38    O     0.33001   0.85412   0.40319   0.00000  Uiso   1.00
O39    O     0.00555   0.27410   0.33296   0.00000  Uiso   1.00
O40    O     0.91796   0.33159   0.08335   0.00000  Uiso   1.00
N41    N     0.43773   0.86746   0.28223   0.00000  Uiso   1.00
N42    N     0.91913   0.16678   0.23219   0.00000  Uiso   1.00
N43    N     0.85673   0.49515   0.05431   0.00000  Uiso   1.00
N44    N     0.46433   0.82102   0.44940   0.00000  Uiso   1.00
N45    N     0.94573   0.12033   0.39936   0.00000  Uiso   1.00
N46    N     0.88333   0.44871   0.22148   0.00000  Uiso   1.00
C47    C     0.26451   0.15282   0.17486   0.00000  Uiso   1.00
C48    C     0.34007   0.15860   0.24530   0.00000  Uiso   1.00
C49    C     0.41842   0.13757   0.21141   0.00000  Uiso   1.00
C50    C     0.47925   0.14726   0.28817   0.00000  Uiso   1.00
C51    C     0.59916   0.15166   0.38131   0.00000  Uiso   1.00
C52    C     0.20741   0.07609   0.23152   0.00000  Uiso   1.00
C53    C     0.17420   0.98570   0.18603   0.00000  Uiso   1.00
C54    C     0.12335   0.92595   0.25118   0.00000  Uiso   1.00
C55    C     0.03724   0.80230   0.32290   0.00000  Uiso   1.00
C56    C     0.22462   0.26119   0.18249   0.00000  Uiso   1.00
C57    C     0.20586   0.32643   0.09579   0.00000  Uiso   1.00
C58    C     0.16948   0.42252   0.11967   0.00000  Uiso   1.00
C59    C     0.11009   0.58627   0.11527   0.00000  Uiso   1.00
C60    C     0.23323   0.20744   0.37145   0.00000  Uiso   1.00
C61    C     0.32308   0.18826   0.35208   0.00000  Uiso   1.00
C62    C     0.38381   0.19799   0.42891   0.00000  Uiso   1.00
C63    C     0.46224   0.17698   0.39514   0.00000  Uiso   1.00
C64    C     0.19041   0.10575   0.33829   0.00000  Uiso   1.00
C65    C     0.13959   0.04613   0.40353   0.00000  Uiso   1.00
C66    C     0.10632   0.95567   0.35816   0.00000  Uiso   1.00
C67    C     0.20763   0.29086   0.28927   0.00000  Uiso   1.00
C68    C     0.17126   0.38686   0.31329   0.00000  Uiso   1.00
C69    C     0.15246   0.45224   0.22664   0.00000  Uiso   1.00
H70    H     0.27774   0.12972   0.09173   0.00000  Uiso   1.00
H71    H     0.43154   0.11460   0.12877   0.00000  Uiso   1.00
H72    H     0.18735   0.96277   0.10339   0.00000  Uiso   1.00
H73    H     0.21902   0.30345   0.01317   0.00000  Uiso   1.00
H74    H     0.59457   0.11089   0.21693   0.00000  Uiso   1.00
H75    H     0.07967   0.79076   0.16341   0.00000  Uiso   1.00
H76    H     0.14643   0.50915   0.97315   0.00000  Uiso   1.00
H77    H     0.22000   0.23053   0.45459   0.00000  Uiso   1.00
H78    H     0.37064   0.22095   0.51154   0.00000  Uiso   1.00
H79    H     0.12646   0.06911   0.48616   0.00000  Uiso   1.00
H80    H     0.15812   0.40979   0.39594   0.00000  Uiso   1.00
H81    H     0.54514   0.19720   0.52760   0.00000  Uiso   1.00
H82    H     0.03023   0.87706   0.47408   0.00000  Uiso   1.00
H83    H     0.09700   0.59546   0.28382   0.00000  Uiso   1.00
O84    O     0.66999   0.14588   0.40319   0.00000  Uiso   1.00
O85    O     0.99445   0.72590   0.33296   0.00000  Uiso   1.00
O86    O     0.08204   0.66841   0.08335   0.00000  Uiso   1.00
N87    N     0.56227   0.13254   0.28223   0.00000  Uiso   1.00
N88    N     0.08087   0.83322   0.23219   0.00000  Uiso   1.00
N89    N     0.14327   0.50485   0.05431   0.00000  Uiso   1.00
N90    N     0.53567   0.17898   0.44940   0.00000  Uiso   1.00
N91    N     0.05427   0.87967   0.39936   0.00000  Uiso   1.00
N92    N     0.11667   0.55129   0.22148   0.00000  Uiso   1.00
C93    C     0.76451   0.34718   0.82514   0.00000  Uiso   1.00
C94    C     0.84007   0.34140   0.75470   0.00000  Uiso   1.00
C95    C     0.91842   0.36243   0.78859   0.00000  Uiso   1.00
C96    C     0.97925   0.35274   0.71183   0.00000  Uiso   1.00
C97    C     0.09916   0.34834   0.61869   0.00000  Uiso   1.00
C98    C     0.70741   0.42391   0.76848   0.00000  Uiso   1.00
C99    C     0.67420   0.51430   0.81397   0.00000  Uiso   1.00
C100   C     0.62335   0.57405   0.74882   0.00000  Uiso   1.00
C101   C     0.53724   0.69770   0.67710   0.00000  Uiso   1.00
C102   C     0.72462   0.23881   0.81751   0.00000  Uiso   1.00
C103   C     0.70586   0.17357   0.90421   0.00000  Uiso   1.00
C104   C     0.66948   0.07748   0.88033   0.00000  Uiso   1.00
C105   C     0.61009   0.91373   0.88473   0.00000  Uiso   1.00
C106   C     0.73323   0.29256   0.62855   0.00000  Uiso   1.00
C107   C     0.82308   0.31174   0.64792   0.00000  Uiso   1.00
C108   C     0.88381   0.30201   0.57109   0.00000  Uiso   1.00
C109   C     0.96224   0.32302   0.60486   0.00000  Uiso   1.00
C110   C     0.69041   0.39425   0.66171   0.00000  Uiso   1.00
C111   C     0.63959   0.45387   0.59647   0.00000  Uiso   1.00
C112   C     0.60632   0.54433   0.64184   0.00000  Uiso   1.00
C113   C     0.70763   0.20914   0.71073   0.00000  Uiso   1.00
C114   C     0.67126   0.11314   0.68671   0.00000  Uiso   1.00
C115   C     0.65246   0.04776   0.77336   0.00000  Uiso   1.00
H116   H     0.77774   0.37028   0.90827   0.00000  Uiso   1.00
H117   H     0.93154   0.38540   0.87123   0.00000  Uiso   1.00
H118   H     0.68735   0.53723   0.89661   0.00000  Uiso   1.00
H119   H     0.71902   0.19655   0.98683   0.00000  Uiso   1.00
H120   H     0.09457   0.38911   0.78307   0.00000  Uiso   1.00
H121   H     0.57967   0.70924   0.83659   0.00000  Uiso   1.00
H122   H     0.64643   0.99085   0.02685   0.00000  Uiso   1.00
H123   H     0.72000   0.26947   0.54541   0.00000  Uiso   1.00
H124   H     0.87064   0.27905   0.48846   0.00000  Uiso   1.00
H125   H     0.62646   0.43089   0.51384   0.00000  Uiso   1.00
H126   H     0.65812   0.09021   0.60406   0.00000  Uiso   1.00
H127   H     0.04514   0.30280   0.47240   0.00000  Uiso   1.00
H128   H     0.53023   0.62294   0.52592   0.00000  Uiso   1.00
H129   H     0.59700   0.90454   0.71618   0.00000  Uiso   1.00
O130   O     0.16999   0.35412   0.59681   0.00000  Uiso   1.00
O131   O     0.49445   0.77410   0.66704   0.00000  Uiso   1.00
O132   O     0.58204   0.83159   0.91665   0.00000  Uiso   1.00
N133   N     0.06227   0.36746   0.71777   0.00000  Uiso   1.00
N134   N     0.58087   0.66678   0.76781   0.00000  Uiso   1.00
N135   N     0.64327   0.99515   0.94569   0.00000  Uiso   1.00
N136   N     0.03567   0.32102   0.55060   0.00000  Uiso   1.00
N137   N     0.55427   0.62033   0.60064   0.00000  Uiso   1.00
N138   N     0.61667   0.94871   0.77852   0.00000  Uiso   1.00
C139   C     0.23549   0.65282   0.82514   0.00000  Uiso   1.00
C140   C     0.15993   0.65860   0.75470   0.00000  Uiso   1.00
C141   C     0.08158   0.63757   0.78859   0.00000  Uiso   1.00
C142   C     0.02075   0.64726   0.71183   0.00000  Uiso   1.00
C143   C     0.90084   0.65166   0.61869   0.00000  Uiso   1.00
C144   C     0.29259   0.57609   0.76848   0.00000  Uiso   1.00
C145   C     0.32580   0.48570   0.81397   0.00000  Uiso   1.00
C146   C     0.37665   0.42595   0.74882   0.00000  Uiso   1.00
C147   C     0.46276   0.30230   0.67710   0.00000  Uiso   1.00
C148   C     0.27538   0.76119   0.81751   0.00000  Uiso   1.00
C149   C     0.29414   0.82643   0.90421   0.00000  Uiso   1.00
C150   C     0.33052   0.92252   0.88033   0.00000  Uiso   1.00
C151   C     0.38991   0.08627   0.88473   0.00000  Uiso   1.00
C152   C     0.26677   0.70744   0.62855   0.00000  Uiso   1.00
C153   C     0.17692   0.68826   0.64792   0.00000  Uiso   1.00
C154   C     0.11619   0.69799   0.57109   0.00000  Uiso   1.00
C155   C     0.03776   0.67698   0.60486   0.00000  Uiso   1.00
C156   C     0.30959   0.60575   0.66171   0.00000  Uiso   1.00
C157   C     0.36041   0.54613   0.59647   0.00000  Uiso   1.00
C158   C     0.39368   0.45567   0.64184   0.00000  Uiso   1.00
C159   C     0.29237   0.79086   0.71073   0.00000  Uiso   1.00
C160   C     0.32874   0.88686   0.68671   0.00000  Uiso   1.00
C161   C     0.34754   0.95224   0.77336   0.00000  Uiso   1.00
H162   H     0.22226   0.62972   0.90827   0.00000  Uiso   1.00
H163   H     0.06846   0.61460   0.87123   0.00000  Uiso   1.00
H164   H     0.31265   0.46277   0.89661   0.00000  Uiso   1.00
H165   H     0.28098   0.80345   0.98683   0.00000  Uiso   1.00
H166   H     0.90543   0.61089   0.78307   0.00000  Uiso   1.00
H167   H     0.42033   0.29076   0.83659   0.00000  Uiso   1.00
H168   H     0.35357   0.00915   0.02685   0.00000  Uiso   1.00
H169   H     0.28000   0.73053   0.54541   0.00000  Uiso   1.00
H170   H     0.12936   0.72095   0.48846   0.00000  Uiso   1.00
H171   H     0.37354   0.56911   0.51384   0.00000  Uiso   1.00
H172   H     0.34188   0.90979   0.60406   0.00000  Uiso   1.00
H173   H     0.95486   0.69720   0.47240   0.00000  Uiso   1.00
H174   H     0.46977   0.37706   0.52592   0.00000  Uiso   1.00
H175   H     0.40300   0.09546   0.71618   0.00000  Uiso   1.00
O176   O     0.83001   0.64588   0.59681   0.00000  Uiso   1.00
O177   O     0.50555   0.22590   0.66704   0.00000  Uiso   1.00
O178   O     0.41796   0.16841   0.91665   0.00000  Uiso   1.00
N179   N     0.93773   0.63254   0.71777   0.00000  Uiso   1.00
N180   N     0.41913   0.33322   0.76781   0.00000  Uiso   1.00
N181   N     0.35673   0.00485   0.94569   0.00000  Uiso   1.00
N182   N     0.96433   0.67898   0.55060   0.00000  Uiso   1.00
N183   N     0.44573   0.37967   0.60064   0.00000  Uiso   1.00
N184   N     0.38333   0.05129   0.77852   0.00000  Uiso   1.00
