data_job_02435
_audit_creation_date              2018-12-19
_audit_creation_method            'Materials Studio'
_symmetry_space_group_name_H-M    'P1'
_symmetry_Int_Tables_number       1
_symmetry_cell_setting            triclinic
loop_
_symmetry_equiv_pos_as_xyz
  x,y,z
_cell_length_a                    17.5741
_cell_length_b                    17.5741
_cell_length_c                    18.6593
_cell_angle_alpha                 90.0000
_cell_angle_beta                  90.0000
_cell_angle_gamma                 90.0000
loop_
_atom_site_label
_atom_site_type_symbol
_atom_site_fract_x
_atom_site_fract_y
_atom_site_fract_z
_atom_site_U_iso_or_equiv
_atom_site_adp_type
_atom_site_occupancy
C1     C     0.68972   0.71168   0.30098   0.00000  Uiso   1.00
C2     C     0.75392   0.76995   0.29767   0.00000  Uiso   1.00
C3     C     0.83059   0.75483   0.30834   0.00000  Uiso   1.00
C4     C     0.88038   0.81591   0.30304   0.00000  Uiso   1.00
C5     C     0.98403   0.89521   0.30028   0.00000  Uiso   1.00
C6     C     0.63364   0.74135   0.35674   0.00000  Uiso   1.00
C7     C     0.60918   0.70218   0.41708   0.00000  Uiso   1.00
C8     C     0.55772   0.73918   0.46150   0.00000  Uiso   1.00
C9     C     0.47459   0.77406   0.55042   0.00000  Uiso   1.00
C10    C     0.64875   0.71650   0.22908   0.00000  Uiso   1.00
C11    C     0.63698   0.65644   0.18209   0.00000  Uiso   1.00
C12    C     0.59822   0.67251   0.11904   0.00000  Uiso   1.00
C13    C     0.53856   0.66880   0.00975   0.00000  Uiso   1.00
C14    C     0.64180   0.84703   0.27258   0.00000  Uiso   1.00
C15    C     0.72789   0.84347   0.28224   0.00000  Uiso   1.00
C16    C     0.77758   0.90458   0.27692   0.00000  Uiso   1.00
C17    C     0.85432   0.88956   0.28759   0.00000  Uiso   1.00
C18    C     0.60762   0.81487   0.34132   0.00000  Uiso   1.00
C19    C     0.55617   0.85193   0.38565   0.00000  Uiso   1.00
C20    C     0.53165   0.81283   0.44604   0.00000  Uiso   1.00
C21    C     0.62273   0.79002   0.21365   0.00000  Uiso   1.00
C22    C     0.58398   0.80619   0.15067   0.00000  Uiso   1.00
C23    C     0.57215   0.74616   0.10358   0.00000  Uiso   1.00
H24    H     0.70997   0.65445   0.31299   0.00000  Uiso   1.00
H25    H     0.85071   0.69793   0.32029   0.00000  Uiso   1.00
H26    H     0.62933   0.64529   0.42899   0.00000  Uiso   1.00
H27    H     0.65712   0.59955   0.19404   0.00000  Uiso   1.00
H28    H     0.99525   0.77857   0.32159   0.00000  Uiso   1.00
H29    H     0.52845   0.66756   0.55080   0.00000  Uiso   1.00
H30    H     0.58706   0.57111   0.05536   0.00000  Uiso   1.00
H31    H     0.62154   0.90427   0.26057   0.00000  Uiso   1.00
H32    H     0.75743   0.96147   0.26498   0.00000  Uiso   1.00
H33    H     0.53605   0.90882   0.37370   0.00000  Uiso   1.00
H34    H     0.56385   0.86308   0.13875   0.00000  Uiso   1.00
H35    H     0.91955   0.99246   0.27671   0.00000  Uiso   1.00
H36    H     0.45273   0.88145   0.50592   0.00000  Uiso   1.00
H37    H     0.51135   0.78500   0.01048   0.00000  Uiso   1.00
O38    O     0.04838   0.91864   0.30303   0.00000  Uiso   1.00
O39    O     0.43594   0.77298   0.60373   0.00000  Uiso   1.00
O40    O     0.51284   0.64645   0.95372   0.00000  Uiso   1.00
N41    N     0.95879   0.82106   0.31041   0.00000  Uiso   1.00
N42    N     0.52236   0.71727   0.52471   0.00000  Uiso   1.00
N43    N     0.57714   0.62710   0.06153   0.00000  Uiso   1.00
N44    N     0.91805   0.93615   0.28626   0.00000  Uiso   1.00
N45    N     0.48162   0.83236   0.50056   0.00000  Uiso   1.00
N46    N     0.53640   0.74219   0.03737   0.00000  Uiso   1.00
C47    C     0.31028   0.28832   0.30098   0.00000  Uiso   1.00
C48    C     0.24608   0.23005   0.29767   0.00000  Uiso   1.00
C49    C     0.16941   0.24517   0.30834   0.00000  Uiso   1.00
C50    C     0.11962   0.18409   0.30304   0.00000  Uiso   1.00
C51    C     0.01597   0.10479   0.30028   0.00000  Uiso   1.00
C52    C     0.36636   0.25865   0.35674   0.00000  Uiso   1.00
C53    C     0.39082   0.29782   0.41708   0.00000  Uiso   1.00
C54    C     0.44228   0.26082   0.46150   0.00000  Uiso   1.00
C55    C     0.52541   0.22594   0.55042   0.00000  Uiso   1.00
C56    C     0.35125   0.28350   0.22908   0.00000  Uiso   1.00
C57    C     0.36302   0.34356   0.18209   0.00000  Uiso   1.00
C58    C     0.40178   0.32749   0.11904   0.00000  Uiso   1.00
C59    C     0.46144   0.33120   0.00975   0.00000  Uiso   1.00
C60    C     0.35820   0.15297   0.27258   0.00000  Uiso   1.00
C61    C     0.27211   0.15653   0.28224   0.00000  Uiso   1.00
C62    C     0.22242   0.09542   0.27692   0.00000  Uiso   1.00
C63    C     0.14568   0.11044   0.28759   0.00000  Uiso   1.00
C64    C     0.39238   0.18513   0.34132   0.00000  Uiso   1.00
C65    C     0.44383   0.14807   0.38565   0.00000  Uiso   1.00
C66    C     0.46835   0.18717   0.44604   0.00000  Uiso   1.00
C67    C     0.37727   0.20998   0.21365   0.00000  Uiso   1.00
C68    C     0.41602   0.19381   0.15067   0.00000  Uiso   1.00
C69    C     0.42785   0.25384   0.10358   0.00000  Uiso   1.00
H70    H     0.29003   0.34555   0.31299   0.00000  Uiso   1.00
H71    H     0.14929   0.30207   0.32029   0.00000  Uiso   1.00
H72    H     0.37067   0.35471   0.42899   0.00000  Uiso   1.00
H73    H     0.34288   0.40045   0.19404   0.00000  Uiso   1.00
H74    H     0.00475   0.22143   0.32159   0.00000  Uiso   1.00
H75    H     0.47155   0.33244   0.55080   0.00000  Uiso   1.00
H76    H     0.41294   0.42889   0.05536   0.00000  Uiso   1.00
H77    H     0.37846   0.09573   0.26057   0.00000  Uiso   1.00
H78    H     0.24257   0.03853   0.26498   0.00000  Uiso   1.00
H79    H     0.46395   0.09118   0.37370   0.00000  Uiso   1.00
H80    H     0.43615   0.13692   0.13875   0.00000  Uiso   1.00
H81    H     0.08045   0.00754   0.27671   0.00000  Uiso   1.00
H82    H     0.54727   0.11855   0.50592   0.00000  Uiso   1.00
H83    H     0.48865   0.21500   0.01048   0.00000  Uiso   1.00
O84    O     0.95162   0.08136   0.30303   0.00000  Uiso   1.00
O85    O     0.56406   0.22702   0.60373   0.00000  Uiso   1.00
O86    O     0.48716   0.35355   0.95372   0.00000  Uiso   1.00
N87    N     0.04121   0.17894   0.31041   0.00000  Uiso   1.00
N88    N     0.47764   0.28273   0.52471   0.00000  Uiso   1.00
N89    N     0.42286   0.37290   0.06153   0.00000  Uiso   1.00
N90    N     0.08195   0.06385   0.28626   0.00000  Uiso   1.00
N91    N     0.51838   0.16764   0.50056   0.00000  Uiso   1.00
N92    N     0.46360   0.25781   0.03737   0.00000  Uiso   1.00
C93    C     0.78832   0.18972   0.30098   0.00000  Uiso   1.00
C94    C     0.73005   0.25392   0.29767   0.00000  Uiso   1.00
C95    C     0.74517   0.33059   0.30834   0.00000  Uiso   1.00
C96    C     0.68409   0.38038   0.30304   0.00000  Uiso   1.00
C97    C     0.60479   0.48403   0.30028   0.00000  Uiso   1.00
C98    C     0.75865   0.13364   0.35674   0.00000  Uiso   1.00
C99    C     0.79782   0.10918   0.41708   0.00000  Uiso   1.00
C100   C     0.76082   0.05772   0.46150   0.00000  Uiso   1.00
C101   C     0.72594   0.97459   0.55042   0.00000  Uiso   1.00
C102   C     0.78350   0.14875   0.22908   0.00000  Uiso   1.00
C103   C     0.84356   0.13698   0.18209   0.00000  Uiso   1.00
C104   C     0.82749   0.09822   0.11904   0.00000  Uiso   1.00
C105   C     0.83120   0.03856   0.00975   0.00000  Uiso   1.00
C106   C     0.65297   0.14180   0.27258   0.00000  Uiso   1.00
C107   C     0.65653   0.22789   0.28224   0.00000  Uiso   1.00
C108   C     0.59542   0.27758   0.27692   0.00000  Uiso   1.00
C109   C     0.61044   0.35432   0.28759   0.00000  Uiso   1.00
C110   C     0.68513   0.10762   0.34132   0.00000  Uiso   1.00
C111   C     0.64807   0.05617   0.38565   0.00000  Uiso   1.00
C112   C     0.68717   0.03165   0.44604   0.00000  Uiso   1.00
C113   C     0.70998   0.12273   0.21365   0.00000  Uiso   1.00
C114   C     0.69381   0.08398   0.15067   0.00000  Uiso   1.00
C115   C     0.75384   0.07215   0.10358   0.00000  Uiso   1.00
H116   H     0.84555   0.20997   0.31299   0.00000  Uiso   1.00
H117   H     0.80207   0.35071   0.32029   0.00000  Uiso   1.00
H118   H     0.85471   0.12933   0.42899   0.00000  Uiso   1.00
H119   H     0.90045   0.15712   0.19404   0.00000  Uiso   1.00
H120   H     0.72143   0.49525   0.32159   0.00000  Uiso   1.00
H121   H     0.83244   0.02845   0.55080   0.00000  Uiso   1.00
H122   H     0.92889   0.08706   0.05536   0.00000  Uiso   1.00
H123   H     0.59573   0.12154   0.26057   0.00000  Uiso   1.00
H124   H     0.53853   0.25743   0.26498   0.00000  Uiso   1.00
H125   H     0.59118   0.03605   0.37370   0.00000  Uiso   1.00
H126   H     0.63692   0.06385   0.13875   0.00000  Uiso   1.00
H127   H     0.50754   0.41955   0.27671   0.00000  Uiso   1.00
H128   H     0.61855   0.95273   0.50592   0.00000  Uiso   1.00
H129   H     0.71500   0.01135   0.01048   0.00000  Uiso   1.00
O130   O     0.58136   0.54838   0.30303   0.00000  Uiso   1.00
O131   O     0.72702   0.93594   0.60373   0.00000  Uiso   1.00
O132   O     0.85355   0.01284   0.95372   0.00000  Uiso   1.00
N133   N     0.67894   0.45879   0.31041   0.00000  Uiso   1.00
N134   N     0.78273   0.02236   0.52471   0.00000  Uiso   1.00
N135   N     0.87290   0.07714   0.06153   0.00000  Uiso   1.00
N136   N     0.56385   0.41805   0.28626   0.00000  Uiso   1.00
N137   N     0.66764   0.98162   0.50056   0.00000  Uiso   1.00
N138   N     0.75781   0.03640   0.03737   0.00000  Uiso   1.00
C139   C     0.21168   0.81028   0.30098   0.00000  Uiso   1.00
C140   C     0.26995   0.74608   0.29767   0.00000  Uiso   1.00
C141   C     0.25483   0.66941   0.30834   0.00000  Uiso   1.00
C142   C     0.31591   0.61962   0.30304   0.00000  Uiso   1.00
C143   C     0.39521   0.51597   0.30028   0.00000  Uiso   1.00
C144   C     0.24135   0.86636   0.35674   0.00000  Uiso   1.00
C145   C     0.20218   0.89082   0.41708   0.00000  Uiso   1.00
C146   C     0.23918   0.94228   0.46150   0.00000  Uiso   1.00
C147   C     0.27406   0.02541   0.55042   0.00000  Uiso   1.00
C148   C     0.21650   0.85125   0.22908   0.00000  Uiso   1.00
C149   C     0.15644   0.86302   0.18209   0.00000  Uiso   1.00
C150   C     0.17251   0.90178   0.11904   0.00000  Uiso   1.00
C151   C     0.16880   0.96144   0.00975   0.00000  Uiso   1.00
C152   C     0.34703   0.85820   0.27258   0.00000  Uiso   1.00
C153   C     0.34347   0.77211   0.28224   0.00000  Uiso   1.00
C154   C     0.40458   0.72242   0.27692   0.00000  Uiso   1.00
C155   C     0.38956   0.64568   0.28759   0.00000  Uiso   1.00
C156   C     0.31487   0.89238   0.34132   0.00000  Uiso   1.00
C157   C     0.35193   0.94383   0.38565   0.00000  Uiso   1.00
C158   C     0.31283   0.96835   0.44604   0.00000  Uiso   1.00
C159   C     0.29002   0.87727   0.21365   0.00000  Uiso   1.00
C160   C     0.30619   0.91602   0.15067   0.00000  Uiso   1.00
C161   C     0.24616   0.92785   0.10358   0.00000  Uiso   1.00
H162   H     0.15445   0.79003   0.31299   0.00000  Uiso   1.00
H163   H     0.19793   0.64929   0.32029   0.00000  Uiso   1.00
H164   H     0.14529   0.87067   0.42899   0.00000  Uiso   1.00
H165   H     0.09955   0.84288   0.19404   0.00000  Uiso   1.00
H166   H     0.27857   0.50475   0.32159   0.00000  Uiso   1.00
H167   H     0.16756   0.97155   0.55080   0.00000  Uiso   1.00
H168   H     0.07111   0.91294   0.05536   0.00000  Uiso   1.00
H169   H     0.40427   0.87846   0.26057   0.00000  Uiso   1.00
H170   H     0.46147   0.74257   0.26498   0.00000  Uiso   1.00
H171   H     0.40882   0.96395   0.37370   0.00000  Uiso   1.00
H172   H     0.36308   0.93615   0.13875   0.00000  Uiso   1.00
H173   H     0.49246   0.58045   0.27671   0.00000  Uiso   1.00
H174   H     0.38145   0.04727   0.50592   0.00000  Uiso   1.00
H175   H     0.28500   0.98865   0.01048   0.00000  Uiso   1.00
O176   O     0.41864   0.45162   0.30303   0.00000  Uiso   1.00
O177   O     0.27298   0.06406   0.60373   0.00000  Uiso   1.00
O178   O     0.14645   0.98716   0.95372   0.00000  Uiso   1.00
N179   N     0.32106   0.54121   0.31041   0.00000  Uiso   1.00
N180   N     0.21727   0.97764   0.52471   0.00000  Uiso   1.00
N181   N     0.12710   0.92286   0.06153   0.00000  Uiso   1.00
N182   N     0.43615   0.58195   0.28626   0.00000  Uiso   1.00
N183   N     0.33236   0.01838   0.50056   0.00000  Uiso   1.00
N184   N     0.24219   0.96360   0.03737   0.00000  Uiso   1.00
C185   C     0.81028   0.78832   0.69902   0.00000  Uiso   1.00
C186   C     0.74608   0.73005   0.70233   0.00000  Uiso   1.00
C187   C     0.66941   0.74517   0.69166   0.00000  Uiso   1.00
C188   C     0.61962   0.68409   0.69696   0.00000  Uiso   1.00
C189   C     0.51597   0.60479   0.69972   0.00000  Uiso   1.00
C190   C     0.86636   0.75865   0.64326   0.00000  Uiso   1.00
C191   C     0.89082   0.79782   0.58292   0.00000  Uiso   1.00
C192   C     0.94228   0.76082   0.53850   0.00000  Uiso   1.00
C193   C     0.02541   0.72594   0.44958   0.00000  Uiso   1.00
C194   C     0.85125   0.78350   0.77092   0.00000  Uiso   1.00
C195   C     0.86302   0.84356   0.81791   0.00000  Uiso   1.00
C196   C     0.90178   0.82749   0.88096   0.00000  Uiso   1.00
C197   C     0.96144   0.83120   0.99025   0.00000  Uiso   1.00
C198   C     0.85820   0.65297   0.72742   0.00000  Uiso   1.00
C199   C     0.77211   0.65653   0.71776   0.00000  Uiso   1.00
C200   C     0.72242   0.59542   0.72308   0.00000  Uiso   1.00
C201   C     0.64568   0.61044   0.71241   0.00000  Uiso   1.00
C202   C     0.89238   0.68513   0.65868   0.00000  Uiso   1.00
C203   C     0.94383   0.64807   0.61435   0.00000  Uiso   1.00
C204   C     0.96835   0.68717   0.55396   0.00000  Uiso   1.00
C205   C     0.87727   0.70998   0.78635   0.00000  Uiso   1.00
C206   C     0.91602   0.69381   0.84933   0.00000  Uiso   1.00
C207   C     0.92785   0.75384   0.89642   0.00000  Uiso   1.00
H208   H     0.79003   0.84555   0.68701   0.00000  Uiso   1.00
H209   H     0.64929   0.80207   0.67971   0.00000  Uiso   1.00
H210   H     0.87067   0.85471   0.57101   0.00000  Uiso   1.00
H211   H     0.84288   0.90045   0.80596   0.00000  Uiso   1.00
H212   H     0.50475   0.72143   0.67841   0.00000  Uiso   1.00
H213   H     0.97155   0.83244   0.44920   0.00000  Uiso   1.00
H214   H     0.91294   0.92889   0.94464   0.00000  Uiso   1.00
H215   H     0.87846   0.59573   0.73943   0.00000  Uiso   1.00
H216   H     0.74257   0.53853   0.73502   0.00000  Uiso   1.00
H217   H     0.96395   0.59118   0.62630   0.00000  Uiso   1.00
H218   H     0.93615   0.63692   0.86125   0.00000  Uiso   1.00
H219   H     0.58045   0.50754   0.72329   0.00000  Uiso   1.00
H220   H     0.04727   0.61855   0.49408   0.00000  Uiso   1.00
H221   H     0.98865   0.71500   0.98952   0.00000  Uiso   1.00
O222   O     0.45162   0.58136   0.69697   0.00000  Uiso   1.00
O223   O     0.06406   0.72702   0.39627   0.00000  Uiso   1.00
O224   O     0.98716   0.85355   0.04628   0.00000  Uiso   1.00
N225   N     0.54121   0.67894   0.68959   0.00000  Uiso   1.00
N226   N     0.97764   0.78273   0.47529   0.00000  Uiso   1.00
N227   N     0.92286   0.87290   0.93847   0.00000  Uiso   1.00
N228   N     0.58195   0.56385   0.71374   0.00000  Uiso   1.00
N229   N     0.01838   0.66764   0.49944   0.00000  Uiso   1.00
N230   N     0.96360   0.75781   0.96263   0.00000  Uiso   1.00
C231   C     0.18972   0.21168   0.69902   0.00000  Uiso   1.00
C232   C     0.25392   0.26995   0.70233   0.00000  Uiso   1.00
C233   C     0.33059   0.25483   0.69166   0.00000  Uiso   1.00
C234   C     0.38038   0.31591   0.69696   0.00000  Uiso   1.00
C235   C     0.48403   0.39521   0.69972   0.00000  Uiso   1.00
C236   C     0.13364   0.24135   0.64326   0.00000  Uiso   1.00
C237   C     0.10918   0.20218   0.58292   0.00000  Uiso   1.00
C238   C     0.05772   0.23918   0.53850   0.00000  Uiso   1.00
C239   C     0.97459   0.27406   0.44958   0.00000  Uiso   1.00
C240   C     0.14875   0.21650   0.77092   0.00000  Uiso   1.00
C241   C     0.13698   0.15644   0.81791   0.00000  Uiso   1.00
C242   C     0.09822   0.17251   0.88096   0.00000  Uiso   1.00
C243   C     0.03856   0.16880   0.99025   0.00000  Uiso   1.00
C244   C     0.14180   0.34703   0.72742   0.00000  Uiso   1.00
C245   C     0.22789   0.34347   0.71776   0.00000  Uiso   1.00
C246   C     0.27758   0.40458   0.72308   0.00000  Uiso   1.00
C247   C     0.35432   0.38956   0.71241   0.00000  Uiso   1.00
C248   C     0.10762   0.31487   0.65868   0.00000  Uiso   1.00
C249   C     0.05617   0.35193   0.61435   0.00000  Uiso   1.00
C250   C     0.03165   0.31283   0.55396   0.00000  Uiso   1.00
C251   C     0.12273   0.29002   0.78635   0.00000  Uiso   1.00
C252   C     0.08398   0.30619   0.84933   0.00000  Uiso   1.00
C253   C     0.07215   0.24616   0.89642   0.00000  Uiso   1.00
H254   H     0.20997   0.15445   0.68701   0.00000  Uiso   1.00
H255   H     0.35071   0.19793   0.67971   0.00000  Uiso   1.00
H256   H     0.12933   0.14529   0.57101   0.00000  Uiso   1.00
H257   H     0.15712   0.09955   0.80596   0.00000  Uiso   1.00
H258   H     0.49525   0.27857   0.67841   0.00000  Uiso   1.00
H259   H     0.02845   0.16756   0.44920   0.00000  Uiso   1.00
H260   H     0.08706   0.07111   0.94464   0.00000  Uiso   1.00
H261   H     0.12154   0.40427   0.73943   0.00000  Uiso   1.00
H262   H     0.25743   0.46147   0.73502   0.00000  Uiso   1.00
H263   H     0.03605   0.40882   0.62630   0.00000  Uiso   1.00
H264   H     0.06385   0.36308   0.86125   0.00000  Uiso   1.00
H265   H     0.41955   0.49246   0.72329   0.00000  Uiso   1.00
H266   H     0.95273   0.38145   0.49408   0.00000  Uiso   1.00
H267   H     0.01135   0.28500   0.98952   0.00000  Uiso   1.00
O268   O     0.54838   0.41864   0.69697   0.00000  Uiso   1.00
O269   O     0.93594   0.27298   0.39627   0.00000  Uiso   1.00
O270   O     0.01284   0.14645   0.04628   0.00000  Uiso   1.00
N271   N     0.45879   0.32106   0.68959   0.00000  Uiso   1.00
N272   N     0.02236   0.21727   0.47529   0.00000  Uiso   1.00
N273   N     0.07714   0.12710   0.93847   0.00000  Uiso   1.00
N274   N     0.41805   0.43615   0.71374   0.00000  Uiso   1.00
N275   N     0.98162   0.33236   0.49944   0.00000  Uiso   1.00
N276   N     0.03640   0.24219   0.96263   0.00000  Uiso   1.00
C277   C     0.71168   0.31028   0.69902   0.00000  Uiso   1.00
C278   C     0.76995   0.24608   0.70233   0.00000  Uiso   1.00
C279   C     0.75483   0.16941   0.69166   0.00000  Uiso   1.00
C280   C     0.81591   0.11962   0.69696   0.00000  Uiso   1.00
C281   C     0.89521   0.01597   0.69972   0.00000  Uiso   1.00
C282   C     0.74135   0.36636   0.64326   0.00000  Uiso   1.00
C283   C     0.70218   0.39082   0.58292   0.00000  Uiso   1.00
C284   C     0.73918   0.44228   0.53850   0.00000  Uiso   1.00
C285   C     0.77406   0.52541   0.44958   0.00000  Uiso   1.00
C286   C     0.71650   0.35125   0.77092   0.00000  Uiso   1.00
C287   C     0.65644   0.36302   0.81791   0.00000  Uiso   1.00
C288   C     0.67251   0.40178   0.88096   0.00000  Uiso   1.00
C289   C     0.66880   0.46144   0.99025   0.00000  Uiso   1.00
C290   C     0.84703   0.35820   0.72742   0.00000  Uiso   1.00
C291   C     0.84347   0.27211   0.71776   0.00000  Uiso   1.00
C292   C     0.90458   0.22242   0.72308   0.00000  Uiso   1.00
C293   C     0.88956   0.14568   0.71241   0.00000  Uiso   1.00
C294   C     0.81487   0.39238   0.65868   0.00000  Uiso   1.00
C295   C     0.85193   0.44383   0.61435   0.00000  Uiso   1.00
C296   C     0.81283   0.46835   0.55396   0.00000  Uiso   1.00
C297   C     0.79002   0.37727   0.78635   0.00000  Uiso   1.00
C298   C     0.80619   0.41602   0.84933   0.00000  Uiso   1.00
C299   C     0.74616   0.42785   0.89642   0.00000  Uiso   1.00
H300   H     0.65445   0.29003   0.68701   0.00000  Uiso   1.00
H301   H     0.69793   0.14929   0.67971   0.00000  Uiso   1.00
H302   H     0.64529   0.37067   0.57101   0.00000  Uiso   1.00
H303   H     0.59955   0.34288   0.80596   0.00000  Uiso   1.00
H304   H     0.77857   0.00475   0.67841   0.00000  Uiso   1.00
H305   H     0.66756   0.47155   0.44920   0.00000  Uiso   1.00
H306   H     0.57111   0.41294   0.94464   0.00000  Uiso   1.00
H307   H     0.90427   0.37846   0.73943   0.00000  Uiso   1.00
H308   H     0.96147   0.24257   0.73502   0.00000  Uiso   1.00
H309   H     0.90882   0.46395   0.62630   0.00000  Uiso   1.00
H310   H     0.86308   0.43615   0.86125   0.00000  Uiso   1.00
H311   H     0.99246   0.08045   0.72329   0.00000  Uiso   1.00
H312   H     0.88145   0.54727   0.49408   0.00000  Uiso   1.00
H313   H     0.78500   0.48865   0.98952   0.00000  Uiso   1.00
O314   O     0.91864   0.95162   0.69697   0.00000  Uiso   1.00
O315   O     0.77298   0.56406   0.39627   0.00000  Uiso   1.00
O316   O     0.64645   0.48716   0.04628   0.00000  Uiso   1.00
N317   N     0.82106   0.04121   0.68959   0.00000  Uiso   1.00
N318   N     0.71727   0.47764   0.47529   0.00000  Uiso   1.00
N319   N     0.62710   0.42286   0.93847   0.00000  Uiso   1.00
N320   N     0.93615   0.08195   0.71374   0.00000  Uiso   1.00
N321   N     0.83236   0.51838   0.49944   0.00000  Uiso   1.00
N322   N     0.74219   0.46360   0.96263   0.00000  Uiso   1.00
C323   C     0.28832   0.68972   0.69902   0.00000  Uiso   1.00
C324   C     0.23005   0.75392   0.70233   0.00000  Uiso   1.00
C325   C     0.24517   0.83059   0.69166   0.00000  Uiso   1.00
C326   C     0.18409   0.88038   0.69696   0.00000  Uiso   1.00
C327   C     0.10479   0.98403   0.69972   0.00000  Uiso   1.00
C328   C     0.25865   0.63364   0.64326   0.00000  Uiso   1.00
C329   C     0.29782   0.60918   0.58292   0.00000  Uiso   1.00
C330   C     0.26082   0.55772   0.53850   0.00000  Uiso   1.00
C331   C     0.22594   0.47459   0.44958   0.00000  Uiso   1.00
C332   C     0.28350   0.64875   0.77092   0.00000  Uiso   1.00
C333   C     0.34356   0.63698   0.81791   0.00000  Uiso   1.00
C334   C     0.32749   0.59822   0.88096   0.00000  Uiso   1.00
C335   C     0.33120   0.53856   0.99025   0.00000  Uiso   1.00
C336   C     0.15297   0.64180   0.72742   0.00000  Uiso   1.00
C337   C     0.15653   0.72789   0.71776   0.00000  Uiso   1.00
C338   C     0.09542   0.77758   0.72308   0.00000  Uiso   1.00
C339   C     0.11044   0.85432   0.71241   0.00000  Uiso   1.00
C340   C     0.18513   0.60762   0.65868   0.00000  Uiso   1.00
C341   C     0.14807   0.55617   0.61435   0.00000  Uiso   1.00
C342   C     0.18717   0.53165   0.55396   0.00000  Uiso   1.00
C343   C     0.20998   0.62273   0.78635   0.00000  Uiso   1.00
C344   C     0.19381   0.58398   0.84933   0.00000  Uiso   1.00
C345   C     0.25384   0.57215   0.89642   0.00000  Uiso   1.00
H346   H     0.34555   0.70997   0.68701   0.00000  Uiso   1.00
H347   H     0.30207   0.85071   0.67971   0.00000  Uiso   1.00
H348   H     0.35471   0.62933   0.57101   0.00000  Uiso   1.00
H349   H     0.40045   0.65712   0.80596   0.00000  Uiso   1.00
H350   H     0.22143   0.99525   0.67841   0.00000  Uiso   1.00
H351   H     0.33244   0.52845   0.44920   0.00000  Uiso   1.00
H352   H     0.42889   0.58706   0.94464   0.00000  Uiso   1.00
H353   H     0.09573   0.62154   0.73943   0.00000  Uiso   1.00
H354   H     0.03853   0.75743   0.73502   0.00000  Uiso   1.00
H355   H     0.09118   0.53605   0.62630   0.00000  Uiso   1.00
H356   H     0.13692   0.56385   0.86125   0.00000  Uiso   1.00
H357   H     0.00754   0.91955   0.72329   0.00000  Uiso   1.00
H358   H     0.11855   0.45273   0.49408   0.00000  Uiso   1.00
H359   H     0.21500   0.51135   0.98952   0.00000  Uiso   1.00
O360   O     0.08136   0.04838   0.69697   0.00000  Uiso   1.00
O361   O     0.22702   0.43594   0.39627   0.00000  Uiso   1.00
O362   O     0.35355   0.51284   0.04628   0.00000  Uiso   1.00
N363   N     0.17894   0.95879   0.68959   0.00000  Uiso   1.00
N364   N     0.28273   0.52236   0.47529   0.00000  Uiso   1.00
N365   N     0.37290   0.57714   0.93847   0.00000  Uiso   1.00
N366   N     0.06385   0.91805   0.71374   0.00000  Uiso   1.00
N367   N     0.16764   0.48162   0.49944   0.00000  Uiso   1.00
N368   N     0.25781   0.53640   0.96263   0.00000  Uiso   1.00
