data_job_05206
_audit_creation_date              2018-12-19
_audit_creation_method            'Materials Studio'
_symmetry_space_group_name_H-M    'P1'
_symmetry_Int_Tables_number       1
_symmetry_cell_setting            triclinic
loop_
_symmetry_equiv_pos_as_xyz
  x,y,z
_cell_length_a                    25.8171
_cell_length_b                    25.8171
_cell_length_c                    7.2315
_cell_angle_alpha                 90.0000
_cell_angle_beta                  90.0000
_cell_angle_gamma                 90.0000
loop_
_atom_site_label
_atom_site_type_symbol
_atom_site_fract_x
_atom_site_fract_y
_atom_site_fract_z
_atom_site_U_iso_or_equiv
_atom_site_adp_type
_atom_site_occupancy
C1     C     0.57786   0.74129   0.09386   0.00000  Uiso   1.00
C2     C     0.63250   0.72088   0.06066   0.00000  Uiso   1.00
C3     C     0.66604   0.70257   0.19566   0.00000  Uiso   1.00
C4     C     0.71436   0.68559   0.13716   0.00000  Uiso   1.00
C5     C     0.79703   0.65367   0.11401   0.00000  Uiso   1.00
C6     C     0.54227   0.70878   0.97199   0.00000  Uiso   1.00
C7     C     0.49993   0.68031   0.03245   0.00000  Uiso   1.00
C8     C     0.47230   0.65315   0.89930   0.00000  Uiso   1.00
C9     C     0.41485   0.60248   0.73848   0.00000  Uiso   1.00
C10    C     0.57676   0.79585   0.01322   0.00000  Uiso   1.00
C11    C     0.56341   0.84060   0.10832   0.00000  Uiso   1.00
C12    C     0.56479   0.88675   0.00987   0.00000  Uiso   1.00
C13    C     0.56090   0.97127   0.91307   0.00000  Uiso   1.00
C14    C     0.60405   0.74369   0.74991   0.00000  Uiso   1.00
C15    C     0.64673   0.72218   0.87384   0.00000  Uiso   1.00
C16    C     0.69502   0.70522   0.81512   0.00000  Uiso   1.00
C17    C     0.72861   0.68689   0.95001   0.00000  Uiso   1.00
C18    C     0.55650   0.71008   0.78518   0.00000  Uiso   1.00
C19    C     0.52891   0.68297   0.65191   0.00000  Uiso   1.00
C20    C     0.48655   0.65446   0.71214   0.00000  Uiso   1.00
C21    C     0.59099   0.79716   0.82640   0.00000  Uiso   1.00
C22    C     0.59239   0.84325   0.72778   0.00000  Uiso   1.00
C23    C     0.57905   0.88805   0.82272   0.00000  Uiso   1.00
H24    H     0.56678   0.74027   0.23930   0.00000  Uiso   1.00
H25    H     0.65501   0.70156   0.34022   0.00000  Uiso   1.00
H26    H     0.48893   0.67931   0.17703   0.00000  Uiso   1.00
H27    H     0.55240   0.83957   0.25289   0.00000  Uiso   1.00
H28    H     0.75909   0.65920   0.36970   0.00000  Uiso   1.00
H29    H     0.40889   0.61230   0.02560   0.00000  Uiso   1.00
H30    H     0.54273   0.95024   0.18557   0.00000  Uiso   1.00
H31    H     0.61513   0.74471   0.60446   0.00000  Uiso   1.00
H32    H     0.70601   0.70624   0.67054   0.00000  Uiso   1.00
H33    H     0.53993   0.68399   0.50735   0.00000  Uiso   1.00
H34    H     0.60340   0.84425   0.58321   0.00000  Uiso   1.00
H35    H     0.80049   0.66299   0.82617   0.00000  Uiso   1.00
H36    H     0.45029   0.61609   0.48206   0.00000  Uiso   1.00
H37    H     0.58412   0.95403   0.64204   0.00000  Uiso   1.00
O38    O     0.83870   0.63569   0.15285   0.00000  Uiso   1.00
O39    O     0.37924   0.57417   0.70140   0.00000  Uiso   1.00
O40    O     0.55483   0.01754   0.91129   0.00000  Uiso   1.00
N41    N     0.75637   0.66538   0.23272   0.00000  Uiso   1.00
N42    N     0.42896   0.62152   0.91101   0.00000  Uiso   1.00
N43    N     0.55407   0.93747   0.06056   0.00000  Uiso   1.00
N44    N     0.77864   0.66742   0.94025   0.00000  Uiso   1.00
N45    N     0.45123   0.62357   0.61853   0.00000  Uiso   1.00
N46    N     0.57634   0.93951   0.76808   0.00000  Uiso   1.00
C47    C     0.42214   0.25871   0.09386   0.00000  Uiso   1.00
C48    C     0.36750   0.27912   0.06066   0.00000  Uiso   1.00
C49    C     0.33396   0.29743   0.19566   0.00000  Uiso   1.00
C50    C     0.28564   0.31441   0.13716   0.00000  Uiso   1.00
C51    C     0.20297   0.34633   0.11401   0.00000  Uiso   1.00
C52    C     0.45773   0.29122   0.97199   0.00000  Uiso   1.00
C53    C     0.50007   0.31969   0.03245   0.00000  Uiso   1.00
C54    C     0.52770   0.34685   0.89930   0.00000  Uiso   1.00
C55    C     0.58515   0.39752   0.73848   0.00000  Uiso   1.00
C56    C     0.42324   0.20415   0.01322   0.00000  Uiso   1.00
C57    C     0.43659   0.15940   0.10832   0.00000  Uiso   1.00
C58    C     0.43521   0.11325   0.00987   0.00000  Uiso   1.00
C59    C     0.43910   0.02873   0.91307   0.00000  Uiso   1.00
C60    C     0.39595   0.25631   0.74991   0.00000  Uiso   1.00
C61    C     0.35327   0.27782   0.87384   0.00000  Uiso   1.00
C62    C     0.30498   0.29478   0.81512   0.00000  Uiso   1.00
C63    C     0.27139   0.31311   0.95001   0.00000  Uiso   1.00
C64    C     0.44350   0.28992   0.78518   0.00000  Uiso   1.00
C65    C     0.47109   0.31703   0.65191   0.00000  Uiso   1.00
C66    C     0.51345   0.34554   0.71214   0.00000  Uiso   1.00
C67    C     0.40901   0.20284   0.82640   0.00000  Uiso   1.00
C68    C     0.40761   0.15675   0.72778   0.00000  Uiso   1.00
C69    C     0.42095   0.11195   0.82272   0.00000  Uiso   1.00
H70    H     0.43322   0.25973   0.23930   0.00000  Uiso   1.00
H71    H     0.34499   0.29844   0.34022   0.00000  Uiso   1.00
H72    H     0.51107   0.32069   0.17703   0.00000  Uiso   1.00
H73    H     0.44760   0.16043   0.25289   0.00000  Uiso   1.00
H74    H     0.24091   0.34080   0.36970   0.00000  Uiso   1.00
H75    H     0.59111   0.38770   0.02560   0.00000  Uiso   1.00
H76    H     0.45727   0.04976   0.18557   0.00000  Uiso   1.00
H77    H     0.38487   0.25529   0.60446   0.00000  Uiso   1.00
H78    H     0.29399   0.29376   0.67054   0.00000  Uiso   1.00
H79    H     0.46007   0.31601   0.50735   0.00000  Uiso   1.00
H80    H     0.39660   0.15575   0.58321   0.00000  Uiso   1.00
H81    H     0.19951   0.33701   0.82617   0.00000  Uiso   1.00
H82    H     0.54971   0.38391   0.48206   0.00000  Uiso   1.00
H83    H     0.41588   0.04597   0.64204   0.00000  Uiso   1.00
O84    O     0.16130   0.36431   0.15285   0.00000  Uiso   1.00
O85    O     0.62076   0.42583   0.70140   0.00000  Uiso   1.00
O86    O     0.44517   0.98246   0.91129   0.00000  Uiso   1.00
N87    N     0.24363   0.33462   0.23272   0.00000  Uiso   1.00
N88    N     0.57104   0.37848   0.91101   0.00000  Uiso   1.00
N89    N     0.44593   0.06253   0.06056   0.00000  Uiso   1.00
N90    N     0.22136   0.33258   0.94025   0.00000  Uiso   1.00
N91    N     0.54877   0.37643   0.61853   0.00000  Uiso   1.00
N92    N     0.42366   0.06049   0.76808   0.00000  Uiso   1.00
C93    C     0.75871   0.07786   0.59386   0.00000  Uiso   1.00
C94    C     0.77912   0.13250   0.56066   0.00000  Uiso   1.00
C95    C     0.79743   0.16604   0.69566   0.00000  Uiso   1.00
C96    C     0.81441   0.21436   0.63716   0.00000  Uiso   1.00
C97    C     0.84633   0.29703   0.61401   0.00000  Uiso   1.00
C98    C     0.79122   0.04227   0.47199   0.00000  Uiso   1.00
C99    C     0.81969   0.99993   0.53245   0.00000  Uiso   1.00
C100   C     0.84685   0.97230   0.39930   0.00000  Uiso   1.00
C101   C     0.89752   0.91485   0.23848   0.00000  Uiso   1.00
C102   C     0.70415   0.07676   0.51322   0.00000  Uiso   1.00
C103   C     0.65940   0.06341   0.60832   0.00000  Uiso   1.00
C104   C     0.61325   0.06479   0.50987   0.00000  Uiso   1.00
C105   C     0.52873   0.06090   0.41307   0.00000  Uiso   1.00
C106   C     0.75631   0.10405   0.24991   0.00000  Uiso   1.00
C107   C     0.77782   0.14673   0.37384   0.00000  Uiso   1.00
C108   C     0.79478   0.19502   0.31512   0.00000  Uiso   1.00
C109   C     0.81311   0.22861   0.45001   0.00000  Uiso   1.00
C110   C     0.78992   0.05650   0.28518   0.00000  Uiso   1.00
C111   C     0.81703   0.02891   0.15191   0.00000  Uiso   1.00
C112   C     0.84554   0.98655   0.21214   0.00000  Uiso   1.00
C113   C     0.70284   0.09099   0.32640   0.00000  Uiso   1.00
C114   C     0.65675   0.09239   0.22778   0.00000  Uiso   1.00
C115   C     0.61195   0.07905   0.32272   0.00000  Uiso   1.00
H116   H     0.75973   0.06678   0.73930   0.00000  Uiso   1.00
H117   H     0.79844   0.15501   0.84022   0.00000  Uiso   1.00
H118   H     0.82069   0.98893   0.67703   0.00000  Uiso   1.00
H119   H     0.66043   0.05240   0.75289   0.00000  Uiso   1.00
H120   H     0.84080   0.25909   0.86970   0.00000  Uiso   1.00
H121   H     0.88770   0.90889   0.52560   0.00000  Uiso   1.00
H122   H     0.54976   0.04273   0.68557   0.00000  Uiso   1.00
H123   H     0.75529   0.11513   0.10446   0.00000  Uiso   1.00
H124   H     0.79376   0.20601   0.17054   0.00000  Uiso   1.00
H125   H     0.81601   0.03993   0.00735   0.00000  Uiso   1.00
H126   H     0.65575   0.10340   0.08321   0.00000  Uiso   1.00
H127   H     0.83701   0.30049   0.32617   0.00000  Uiso   1.00
H128   H     0.88391   0.95029   0.98206   0.00000  Uiso   1.00
H129   H     0.54597   0.08412   0.14204   0.00000  Uiso   1.00
O130   O     0.86431   0.33870   0.65285   0.00000  Uiso   1.00
O131   O     0.92583   0.87924   0.20140   0.00000  Uiso   1.00
O132   O     0.48246   0.05483   0.41129   0.00000  Uiso   1.00
N133   N     0.83462   0.25637   0.73272   0.00000  Uiso   1.00
N134   N     0.87848   0.92896   0.41101   0.00000  Uiso   1.00
N135   N     0.56253   0.05407   0.56056   0.00000  Uiso   1.00
N136   N     0.83258   0.27864   0.44025   0.00000  Uiso   1.00
N137   N     0.87643   0.95123   0.11853   0.00000  Uiso   1.00
N138   N     0.56049   0.07634   0.26808   0.00000  Uiso   1.00
C139   C     0.24129   0.92214   0.59386   0.00000  Uiso   1.00
C140   C     0.22088   0.86750   0.56066   0.00000  Uiso   1.00
C141   C     0.20257   0.83396   0.69566   0.00000  Uiso   1.00
C142   C     0.18559   0.78564   0.63716   0.00000  Uiso   1.00
C143   C     0.15367   0.70297   0.61401   0.00000  Uiso   1.00
C144   C     0.20878   0.95773   0.47199   0.00000  Uiso   1.00
C145   C     0.18031   0.00007   0.53245   0.00000  Uiso   1.00
C146   C     0.15315   0.02770   0.39930   0.00000  Uiso   1.00
C147   C     0.10248   0.08515   0.23848   0.00000  Uiso   1.00
C148   C     0.29585   0.92324   0.51322   0.00000  Uiso   1.00
C149   C     0.34060   0.93659   0.60832   0.00000  Uiso   1.00
C150   C     0.38675   0.93521   0.50987   0.00000  Uiso   1.00
C151   C     0.47127   0.93910   0.41307   0.00000  Uiso   1.00
C152   C     0.24369   0.89595   0.24991   0.00000  Uiso   1.00
C153   C     0.22218   0.85327   0.37384   0.00000  Uiso   1.00
C154   C     0.20522   0.80498   0.31512   0.00000  Uiso   1.00
C155   C     0.18689   0.77139   0.45001   0.00000  Uiso   1.00
C156   C     0.21008   0.94350   0.28518   0.00000  Uiso   1.00
C157   C     0.18297   0.97109   0.15191   0.00000  Uiso   1.00
C158   C     0.15446   0.01345   0.21214   0.00000  Uiso   1.00
C159   C     0.29716   0.90901   0.32640   0.00000  Uiso   1.00
C160   C     0.34325   0.90761   0.22778   0.00000  Uiso   1.00
C161   C     0.38805   0.92095   0.32272   0.00000  Uiso   1.00
H162   H     0.24027   0.93322   0.73930   0.00000  Uiso   1.00
H163   H     0.20156   0.84499   0.84022   0.00000  Uiso   1.00
H164   H     0.17931   0.01107   0.67703   0.00000  Uiso   1.00
H165   H     0.33957   0.94760   0.75289   0.00000  Uiso   1.00
H166   H     0.15920   0.74091   0.86970   0.00000  Uiso   1.00
H167   H     0.11230   0.09111   0.52560   0.00000  Uiso   1.00
H168   H     0.45024   0.95727   0.68557   0.00000  Uiso   1.00
H169   H     0.24471   0.88487   0.10446   0.00000  Uiso   1.00
H170   H     0.20624   0.79399   0.17054   0.00000  Uiso   1.00
H171   H     0.18399   0.96007   0.00735   0.00000  Uiso   1.00
H172   H     0.34425   0.89660   0.08321   0.00000  Uiso   1.00
H173   H     0.16299   0.69951   0.32617   0.00000  Uiso   1.00
H174   H     0.11609   0.04971   0.98206   0.00000  Uiso   1.00
H175   H     0.45403   0.91588   0.14204   0.00000  Uiso   1.00
O176   O     0.13569   0.66130   0.65285   0.00000  Uiso   1.00
O177   O     0.07417   0.12076   0.20140   0.00000  Uiso   1.00
O178   O     0.51754   0.94517   0.41129   0.00000  Uiso   1.00
N179   N     0.16538   0.74363   0.73272   0.00000  Uiso   1.00
N180   N     0.12152   0.07104   0.41101   0.00000  Uiso   1.00
N181   N     0.43747   0.94593   0.56056   0.00000  Uiso   1.00
N182   N     0.16742   0.72136   0.44025   0.00000  Uiso   1.00
N183   N     0.12357   0.04877   0.11853   0.00000  Uiso   1.00
N184   N     0.43951   0.92366   0.26808   0.00000  Uiso   1.00
C185   C     0.92214   0.75871   0.40614   0.00000  Uiso   1.00
C186   C     0.86750   0.77912   0.43934   0.00000  Uiso   1.00
C187   C     0.83396   0.79743   0.30434   0.00000  Uiso   1.00
C188   C     0.78564   0.81441   0.36284   0.00000  Uiso   1.00
C189   C     0.70297   0.84633   0.38599   0.00000  Uiso   1.00
C190   C     0.95773   0.79122   0.52801   0.00000  Uiso   1.00
C191   C     0.00007   0.81969   0.46755   0.00000  Uiso   1.00
C192   C     0.02770   0.84685   0.60070   0.00000  Uiso   1.00
C193   C     0.08515   0.89752   0.76152   0.00000  Uiso   1.00
C194   C     0.92324   0.70415   0.48678   0.00000  Uiso   1.00
C195   C     0.93659   0.65940   0.39168   0.00000  Uiso   1.00
C196   C     0.93521   0.61325   0.49013   0.00000  Uiso   1.00
C197   C     0.93910   0.52873   0.58693   0.00000  Uiso   1.00
C198   C     0.89595   0.75631   0.75009   0.00000  Uiso   1.00
C199   C     0.85327   0.77782   0.62616   0.00000  Uiso   1.00
C200   C     0.80498   0.79478   0.68488   0.00000  Uiso   1.00
C201   C     0.77139   0.81311   0.54999   0.00000  Uiso   1.00
C202   C     0.94350   0.78992   0.71482   0.00000  Uiso   1.00
C203   C     0.97109   0.81703   0.84809   0.00000  Uiso   1.00
C204   C     0.01345   0.84554   0.78786   0.00000  Uiso   1.00
C205   C     0.90901   0.70284   0.67360   0.00000  Uiso   1.00
C206   C     0.90761   0.65675   0.77222   0.00000  Uiso   1.00
C207   C     0.92095   0.61195   0.67728   0.00000  Uiso   1.00
H208   H     0.93322   0.75973   0.26070   0.00000  Uiso   1.00
H209   H     0.84499   0.79844   0.15978   0.00000  Uiso   1.00
H210   H     0.01107   0.82069   0.32297   0.00000  Uiso   1.00
H211   H     0.94760   0.66043   0.24711   0.00000  Uiso   1.00
H212   H     0.74091   0.84080   0.13030   0.00000  Uiso   1.00
H213   H     0.09111   0.88770   0.47440   0.00000  Uiso   1.00
H214   H     0.95727   0.54976   0.31443   0.00000  Uiso   1.00
H215   H     0.88487   0.75529   0.89554   0.00000  Uiso   1.00
H216   H     0.79399   0.79376   0.82946   0.00000  Uiso   1.00
H217   H     0.96007   0.81601   0.99265   0.00000  Uiso   1.00
H218   H     0.89660   0.65575   0.91679   0.00000  Uiso   1.00
H219   H     0.69951   0.83701   0.67383   0.00000  Uiso   1.00
H220   H     0.04971   0.88391   0.01794   0.00000  Uiso   1.00
H221   H     0.91588   0.54597   0.85796   0.00000  Uiso   1.00
O222   O     0.66130   0.86431   0.34715   0.00000  Uiso   1.00
O223   O     0.12076   0.92583   0.79860   0.00000  Uiso   1.00
O224   O     0.94517   0.48246   0.58871   0.00000  Uiso   1.00
N225   N     0.74363   0.83462   0.26728   0.00000  Uiso   1.00
N226   N     0.07104   0.87848   0.58899   0.00000  Uiso   1.00
N227   N     0.94593   0.56253   0.43944   0.00000  Uiso   1.00
N228   N     0.72136   0.83258   0.55975   0.00000  Uiso   1.00
N229   N     0.04877   0.87643   0.88147   0.00000  Uiso   1.00
N230   N     0.92366   0.56049   0.73192   0.00000  Uiso   1.00
C231   C     0.07786   0.24129   0.40614   0.00000  Uiso   1.00
C232   C     0.13250   0.22088   0.43934   0.00000  Uiso   1.00
C233   C     0.16604   0.20257   0.30434   0.00000  Uiso   1.00
C234   C     0.21436   0.18559   0.36284   0.00000  Uiso   1.00
C235   C     0.29703   0.15367   0.38599   0.00000  Uiso   1.00
C236   C     0.04227   0.20878   0.52801   0.00000  Uiso   1.00
C237   C     0.99993   0.18031   0.46755   0.00000  Uiso   1.00
C238   C     0.97230   0.15315   0.60070   0.00000  Uiso   1.00
C239   C     0.91485   0.10248   0.76152   0.00000  Uiso   1.00
C240   C     0.07676   0.29585   0.48678   0.00000  Uiso   1.00
C241   C     0.06341   0.34060   0.39168   0.00000  Uiso   1.00
C242   C     0.06479   0.38675   0.49013   0.00000  Uiso   1.00
C243   C     0.06090   0.47127   0.58693   0.00000  Uiso   1.00
C244   C     0.10405   0.24369   0.75009   0.00000  Uiso   1.00
C245   C     0.14673   0.22218   0.62616   0.00000  Uiso   1.00
C246   C     0.19502   0.20522   0.68488   0.00000  Uiso   1.00
C247   C     0.22861   0.18689   0.54999   0.00000  Uiso   1.00
C248   C     0.05650   0.21008   0.71482   0.00000  Uiso   1.00
C249   C     0.02891   0.18297   0.84809   0.00000  Uiso   1.00
C250   C     0.98655   0.15446   0.78786   0.00000  Uiso   1.00
C251   C     0.09099   0.29716   0.67360   0.00000  Uiso   1.00
C252   C     0.09239   0.34325   0.77222   0.00000  Uiso   1.00
C253   C     0.07905   0.38805   0.67728   0.00000  Uiso   1.00
H254   H     0.06678   0.24027   0.26070   0.00000  Uiso   1.00
H255   H     0.15501   0.20156   0.15978   0.00000  Uiso   1.00
H256   H     0.98893   0.17931   0.32297   0.00000  Uiso   1.00
H257   H     0.05240   0.33957   0.24711   0.00000  Uiso   1.00
H258   H     0.25909   0.15920   0.13030   0.00000  Uiso   1.00
H259   H     0.90889   0.11230   0.47440   0.00000  Uiso   1.00
H260   H     0.04273   0.45024   0.31443   0.00000  Uiso   1.00
H261   H     0.11513   0.24471   0.89554   0.00000  Uiso   1.00
H262   H     0.20601   0.20624   0.82946   0.00000  Uiso   1.00
H263   H     0.03993   0.18399   0.99265   0.00000  Uiso   1.00
H264   H     0.10340   0.34425   0.91679   0.00000  Uiso   1.00
H265   H     0.30049   0.16299   0.67383   0.00000  Uiso   1.00
H266   H     0.95029   0.11609   0.01794   0.00000  Uiso   1.00
H267   H     0.08412   0.45403   0.85796   0.00000  Uiso   1.00
O268   O     0.33870   0.13569   0.34715   0.00000  Uiso   1.00
O269   O     0.87924   0.07417   0.79860   0.00000  Uiso   1.00
O270   O     0.05483   0.51754   0.58871   0.00000  Uiso   1.00
N271   N     0.25637   0.16538   0.26728   0.00000  Uiso   1.00
N272   N     0.92896   0.12152   0.58899   0.00000  Uiso   1.00
N273   N     0.05407   0.43747   0.43944   0.00000  Uiso   1.00
N274   N     0.27864   0.16742   0.55975   0.00000  Uiso   1.00
N275   N     0.95123   0.12357   0.88147   0.00000  Uiso   1.00
N276   N     0.07634   0.43951   0.73192   0.00000  Uiso   1.00
C277   C     0.74129   0.42214   0.90614   0.00000  Uiso   1.00
C278   C     0.72088   0.36750   0.93934   0.00000  Uiso   1.00
C279   C     0.70257   0.33396   0.80434   0.00000  Uiso   1.00
C280   C     0.68559   0.28564   0.86284   0.00000  Uiso   1.00
C281   C     0.65367   0.20297   0.88599   0.00000  Uiso   1.00
C282   C     0.70878   0.45773   0.02801   0.00000  Uiso   1.00
C283   C     0.68031   0.50007   0.96755   0.00000  Uiso   1.00
C284   C     0.65315   0.52770   0.10070   0.00000  Uiso   1.00
C285   C     0.60248   0.58515   0.26152   0.00000  Uiso   1.00
C286   C     0.79585   0.42324   0.98678   0.00000  Uiso   1.00
C287   C     0.84060   0.43659   0.89168   0.00000  Uiso   1.00
C288   C     0.88675   0.43521   0.99013   0.00000  Uiso   1.00
C289   C     0.97127   0.43910   0.08693   0.00000  Uiso   1.00
C290   C     0.74369   0.39595   0.25009   0.00000  Uiso   1.00
C291   C     0.72218   0.35327   0.12616   0.00000  Uiso   1.00
C292   C     0.70522   0.30498   0.18488   0.00000  Uiso   1.00
C293   C     0.68689   0.27139   0.04999   0.00000  Uiso   1.00
C294   C     0.71008   0.44350   0.21482   0.00000  Uiso   1.00
C295   C     0.68297   0.47109   0.34809   0.00000  Uiso   1.00
C296   C     0.65446   0.51345   0.28786   0.00000  Uiso   1.00
C297   C     0.79716   0.40901   0.17360   0.00000  Uiso   1.00
C298   C     0.84325   0.40761   0.27222   0.00000  Uiso   1.00
C299   C     0.88805   0.42095   0.17728   0.00000  Uiso   1.00
H300   H     0.74027   0.43322   0.76070   0.00000  Uiso   1.00
H301   H     0.70156   0.34499   0.65978   0.00000  Uiso   1.00
H302   H     0.67931   0.51107   0.82297   0.00000  Uiso   1.00
H303   H     0.83957   0.44760   0.74711   0.00000  Uiso   1.00
H304   H     0.65920   0.24091   0.63030   0.00000  Uiso   1.00
H305   H     0.61230   0.59111   0.97440   0.00000  Uiso   1.00
H306   H     0.95024   0.45727   0.81443   0.00000  Uiso   1.00
H307   H     0.74471   0.38487   0.39554   0.00000  Uiso   1.00
H308   H     0.70624   0.29399   0.32946   0.00000  Uiso   1.00
H309   H     0.68399   0.46007   0.49265   0.00000  Uiso   1.00
H310   H     0.84425   0.39660   0.41679   0.00000  Uiso   1.00
H311   H     0.66299   0.19951   0.17383   0.00000  Uiso   1.00
H312   H     0.61609   0.54971   0.51794   0.00000  Uiso   1.00
H313   H     0.95403   0.41588   0.35796   0.00000  Uiso   1.00
O314   O     0.63569   0.16130   0.84715   0.00000  Uiso   1.00
O315   O     0.57417   0.62076   0.29860   0.00000  Uiso   1.00
O316   O     0.01754   0.44517   0.08871   0.00000  Uiso   1.00
N317   N     0.66538   0.24363   0.76728   0.00000  Uiso   1.00
N318   N     0.62152   0.57104   0.08899   0.00000  Uiso   1.00
N319   N     0.93747   0.44593   0.93944   0.00000  Uiso   1.00
N320   N     0.66742   0.22136   0.05975   0.00000  Uiso   1.00
N321   N     0.62357   0.54877   0.38147   0.00000  Uiso   1.00
N322   N     0.93951   0.42366   0.23192   0.00000  Uiso   1.00
C323   C     0.25871   0.57786   0.90614   0.00000  Uiso   1.00
C324   C     0.27912   0.63250   0.93934   0.00000  Uiso   1.00
C325   C     0.29743   0.66604   0.80434   0.00000  Uiso   1.00
C326   C     0.31441   0.71436   0.86284   0.00000  Uiso   1.00
C327   C     0.34633   0.79703   0.88599   0.00000  Uiso   1.00
C328   C     0.29122   0.54227   0.02801   0.00000  Uiso   1.00
C329   C     0.31969   0.49993   0.96755   0.00000  Uiso   1.00
C330   C     0.34685   0.47230   0.10070   0.00000  Uiso   1.00
C331   C     0.39752   0.41485   0.26152   0.00000  Uiso   1.00
C332   C     0.20415   0.57676   0.98678   0.00000  Uiso   1.00
C333   C     0.15940   0.56341   0.89168   0.00000  Uiso   1.00
C334   C     0.11325   0.56479   0.99013   0.00000  Uiso   1.00
C335   C     0.02873   0.56090   0.08693   0.00000  Uiso   1.00
C336   C     0.25631   0.60405   0.25009   0.00000  Uiso   1.00
C337   C     0.27782   0.64673   0.12616   0.00000  Uiso   1.00
C338   C     0.29478   0.69502   0.18488   0.00000  Uiso   1.00
C339   C     0.31311   0.72861   0.04999   0.00000  Uiso   1.00
C340   C     0.28992   0.55650   0.21482   0.00000  Uiso   1.00
C341   C     0.31703   0.52891   0.34809   0.00000  Uiso   1.00
C342   C     0.34554   0.48655   0.28786   0.00000  Uiso   1.00
C343   C     0.20284   0.59099   0.17360   0.00000  Uiso   1.00
C344   C     0.15675   0.59239   0.27222   0.00000  Uiso   1.00
C345   C     0.11195   0.57905   0.17728   0.00000  Uiso   1.00
H346   H     0.25973   0.56678   0.76070   0.00000  Uiso   1.00
H347   H     0.29844   0.65501   0.65978   0.00000  Uiso   1.00
H348   H     0.32069   0.48893   0.82297   0.00000  Uiso   1.00
H349   H     0.16043   0.55240   0.74711   0.00000  Uiso   1.00
H350   H     0.34080   0.75909   0.63030   0.00000  Uiso   1.00
H351   H     0.38770   0.40889   0.97440   0.00000  Uiso   1.00
H352   H     0.04976   0.54273   0.81443   0.00000  Uiso   1.00
H353   H     0.25529   0.61513   0.39554   0.00000  Uiso   1.00
H354   H     0.29376   0.70601   0.32946   0.00000  Uiso   1.00
H355   H     0.31601   0.53993   0.49265   0.00000  Uiso   1.00
H356   H     0.15575   0.60340   0.41679   0.00000  Uiso   1.00
H357   H     0.33701   0.80049   0.17383   0.00000  Uiso   1.00
H358   H     0.38391   0.45029   0.51794   0.00000  Uiso   1.00
H359   H     0.04597   0.58412   0.35796   0.00000  Uiso   1.00
O360   O     0.36431   0.83870   0.84715   0.00000  Uiso   1.00
O361   O     0.42583   0.37924   0.29860   0.00000  Uiso   1.00
O362   O     0.98246   0.55483   0.08871   0.00000  Uiso   1.00
N363   N     0.33462   0.75637   0.76728   0.00000  Uiso   1.00
N364   N     0.37848   0.42896   0.08899   0.00000  Uiso   1.00
N365   N     0.06253   0.55407   0.93944   0.00000  Uiso   1.00
N366   N     0.33258   0.77864   0.05975   0.00000  Uiso   1.00
N367   N     0.37643   0.45123   0.38147   0.00000  Uiso   1.00
N368   N     0.06049   0.57634   0.23192   0.00000  Uiso   1.00
