data_job_04131
_audit_creation_date              2018-12-19
_audit_creation_method            'Materials Studio'
_symmetry_space_group_name_H-M    'P1'
_symmetry_Int_Tables_number       1
_symmetry_cell_setting            triclinic
loop_
_symmetry_equiv_pos_as_xyz
  x,y,z
_cell_length_a                    44.9247
_cell_length_b                    8.8694
_cell_length_c                    20.5136
_cell_angle_alpha                 90.0000
_cell_angle_beta                  90.0000
_cell_angle_gamma                 90.0000
loop_
_atom_site_label
_atom_site_type_symbol
_atom_site_fract_x
_atom_site_fract_y
_atom_site_fract_z
_atom_site_U_iso_or_equiv
_atom_site_adp_type
_atom_site_occupancy
C1     C     0.66039   0.38151   0.05701   0.00000  Uiso   1.00
C2     C     0.66489   0.40570   0.12995   0.00000  Uiso   1.00
C3     C     0.67803   0.30415   0.17263   0.00000  Uiso   1.00
C4     C     0.68006   0.34735   0.23753   0.00000  Uiso   1.00
C5     C     0.68867   0.36362   0.34753   0.00000  Uiso   1.00
C6     C     0.62714   0.40115   0.04472   0.00000  Uiso   1.00
C7     C     0.60853   0.29578   0.01572   0.00000  Uiso   1.00
C8     C     0.57878   0.33517   0.00887   0.00000  Uiso   1.00
C9     C     0.52878   0.34442   0.98650   0.00000  Uiso   1.00
C10    C     0.67560   0.51401   0.02336   0.00000  Uiso   1.00
C11    C     0.69774   0.50354   0.97639   0.00000  Uiso   1.00
C12    C     0.70880   0.63795   0.95153   0.00000  Uiso   1.00
C13    C     0.73405   0.82244   0.89600   0.00000  Uiso   1.00
C14    C     0.64065   0.63884   0.09638   0.00000  Uiso   1.00
C15    C     0.65417   0.54547   0.15133   0.00000  Uiso   1.00
C16    C     0.65619   0.58885   0.21618   0.00000  Uiso   1.00
C17    C     0.66932   0.48738   0.25895   0.00000  Uiso   1.00
C18    C     0.61641   0.54092   0.06610   0.00000  Uiso   1.00
C19    C     0.58669   0.58048   0.05928   0.00000  Uiso   1.00
C20    C     0.56804   0.47519   0.03029   0.00000  Uiso   1.00
C21    C     0.66488   0.65379   0.04474   0.00000  Uiso   1.00
C22    C     0.67590   0.78824   0.01995   0.00000  Uiso   1.00
C23    C     0.69806   0.77797   0.97295   0.00000  Uiso   1.00
H24    H     0.66873   0.27270   0.04037   0.00000  Uiso   1.00
H25    H     0.68632   0.19599   0.15606   0.00000  Uiso   1.00
H26    H     0.61683   0.18763   0.99918   0.00000  Uiso   1.00
H27    H     0.70603   0.39536   0.95985   0.00000  Uiso   1.00
H28    H     0.70107   0.17256   0.29376   0.00000  Uiso   1.00
H29    H     0.55456   0.15496   0.96295   0.00000  Uiso   1.00
H30    H     0.74266   0.59299   0.88002   0.00000  Uiso   1.00
H31    H     0.63230   0.74766   0.11303   0.00000  Uiso   1.00
H32    H     0.64789   0.69702   0.23271   0.00000  Uiso   1.00
H33    H     0.57840   0.68865   0.07583   0.00000  Uiso   1.00
H34    H     0.66760   0.89638   0.03650   0.00000  Uiso   1.00
H35    H     0.66988   0.57921   0.35598   0.00000  Uiso   1.00
H36    H     0.52337   0.56161   0.02516   0.00000  Uiso   1.00
H37    H     0.71147   0.99964   0.94223   0.00000  Uiso   1.00
O38    O     0.69638   0.33398   0.40230   0.00000  Uiso   1.00
O39    O     0.50416   0.31089   0.96827   0.00000  Uiso   1.00
O40    O     0.75094   0.88559   0.85947   0.00000  Uiso   1.00
N41    N     0.69160   0.27523   0.29198   0.00000  Uiso   1.00
N42    N     0.55462   0.25876   0.98269   0.00000  Uiso   1.00
N43    N     0.73047   0.66829   0.90515   0.00000  Uiso   1.00
N44    N     0.67481   0.49404   0.32546   0.00000  Uiso   1.00
N45    N     0.53783   0.47757   0.01617   0.00000  Uiso   1.00
N46    N     0.71368   0.88710   0.93863   0.00000  Uiso   1.00
C47    C     0.83961   0.61849   0.55701   0.00000  Uiso   1.00
C48    C     0.83511   0.59430   0.62995   0.00000  Uiso   1.00
C49    C     0.82197   0.69585   0.67263   0.00000  Uiso   1.00
C50    C     0.81994   0.65265   0.73753   0.00000  Uiso   1.00
C51    C     0.81133   0.63638   0.84753   0.00000  Uiso   1.00
C52    C     0.87286   0.59885   0.54472   0.00000  Uiso   1.00
C53    C     0.89147   0.70422   0.51572   0.00000  Uiso   1.00
C54    C     0.92122   0.66483   0.50887   0.00000  Uiso   1.00
C55    C     0.97122   0.65558   0.48650   0.00000  Uiso   1.00
C56    C     0.82440   0.48599   0.52336   0.00000  Uiso   1.00
C57    C     0.80226   0.49646   0.47639   0.00000  Uiso   1.00
C58    C     0.79120   0.36205   0.45153   0.00000  Uiso   1.00
C59    C     0.76595   0.17756   0.39600   0.00000  Uiso   1.00
C60    C     0.85935   0.36116   0.59638   0.00000  Uiso   1.00
C61    C     0.84583   0.45453   0.65133   0.00000  Uiso   1.00
C62    C     0.84381   0.41115   0.71618   0.00000  Uiso   1.00
C63    C     0.83068   0.51262   0.75895   0.00000  Uiso   1.00
C64    C     0.88359   0.45908   0.56610   0.00000  Uiso   1.00
C65    C     0.91331   0.41952   0.55928   0.00000  Uiso   1.00
C66    C     0.93196   0.52481   0.53029   0.00000  Uiso   1.00
C67    C     0.83512   0.34621   0.54474   0.00000  Uiso   1.00
C68    C     0.82410   0.21176   0.51995   0.00000  Uiso   1.00
C69    C     0.80194   0.22203   0.47295   0.00000  Uiso   1.00
H70    H     0.83127   0.72730   0.54037   0.00000  Uiso   1.00
H71    H     0.81368   0.80401   0.65606   0.00000  Uiso   1.00
H72    H     0.88317   0.81237   0.49918   0.00000  Uiso   1.00
H73    H     0.79397   0.60464   0.45985   0.00000  Uiso   1.00
H74    H     0.79893   0.82744   0.79376   0.00000  Uiso   1.00
H75    H     0.94544   0.84504   0.46295   0.00000  Uiso   1.00
H76    H     0.75734   0.40701   0.38002   0.00000  Uiso   1.00
H77    H     0.86770   0.25234   0.61303   0.00000  Uiso   1.00
H78    H     0.85211   0.30298   0.73271   0.00000  Uiso   1.00
H79    H     0.92160   0.31135   0.57583   0.00000  Uiso   1.00
H80    H     0.83240   0.10362   0.53650   0.00000  Uiso   1.00
H81    H     0.83012   0.42079   0.85598   0.00000  Uiso   1.00
H82    H     0.97663   0.43839   0.52516   0.00000  Uiso   1.00
H83    H     0.78853   0.00036   0.44223   0.00000  Uiso   1.00
O84    O     0.80362   0.66602   0.90230   0.00000  Uiso   1.00
O85    O     0.99584   0.68911   0.46827   0.00000  Uiso   1.00
O86    O     0.74906   0.11441   0.35947   0.00000  Uiso   1.00
N87    N     0.80840   0.72477   0.79198   0.00000  Uiso   1.00
N88    N     0.94538   0.74124   0.48269   0.00000  Uiso   1.00
N89    N     0.76953   0.33171   0.40515   0.00000  Uiso   1.00
N90    N     0.82519   0.50596   0.82546   0.00000  Uiso   1.00
N91    N     0.96217   0.52243   0.51617   0.00000  Uiso   1.00
N92    N     0.78632   0.11290   0.43863   0.00000  Uiso   1.00
C93    C     0.33961   0.88151   0.44299   0.00000  Uiso   1.00
C94    C     0.33511   0.90570   0.37005   0.00000  Uiso   1.00
C95    C     0.32197   0.80415   0.32737   0.00000  Uiso   1.00
C96    C     0.31994   0.84735   0.26247   0.00000  Uiso   1.00
C97    C     0.31133   0.86362   0.15247   0.00000  Uiso   1.00
C98    C     0.37286   0.90115   0.45528   0.00000  Uiso   1.00
C99    C     0.39147   0.79578   0.48428   0.00000  Uiso   1.00
C100   C     0.42122   0.83517   0.49113   0.00000  Uiso   1.00
C101   C     0.47122   0.84442   0.51350   0.00000  Uiso   1.00
C102   C     0.32440   0.01401   0.47664   0.00000  Uiso   1.00
C103   C     0.30226   0.00354   0.52361   0.00000  Uiso   1.00
C104   C     0.29120   0.13795   0.54847   0.00000  Uiso   1.00
C105   C     0.26595   0.32244   0.60400   0.00000  Uiso   1.00
C106   C     0.35935   0.13884   0.40362   0.00000  Uiso   1.00
C107   C     0.34583   0.04547   0.34867   0.00000  Uiso   1.00
C108   C     0.34381   0.08885   0.28382   0.00000  Uiso   1.00
C109   C     0.33068   0.98738   0.24105   0.00000  Uiso   1.00
C110   C     0.38359   0.04092   0.43390   0.00000  Uiso   1.00
C111   C     0.41331   0.08048   0.44072   0.00000  Uiso   1.00
C112   C     0.43196   0.97519   0.46971   0.00000  Uiso   1.00
C113   C     0.33512   0.15379   0.45526   0.00000  Uiso   1.00
C114   C     0.32410   0.28824   0.48005   0.00000  Uiso   1.00
C115   C     0.30194   0.27797   0.52705   0.00000  Uiso   1.00
H116   H     0.33127   0.77270   0.45963   0.00000  Uiso   1.00
H117   H     0.31368   0.69599   0.34394   0.00000  Uiso   1.00
H118   H     0.38317   0.68763   0.50082   0.00000  Uiso   1.00
H119   H     0.29397   0.89536   0.54015   0.00000  Uiso   1.00
H120   H     0.29893   0.67256   0.20624   0.00000  Uiso   1.00
H121   H     0.44544   0.65496   0.53705   0.00000  Uiso   1.00
H122   H     0.25734   0.09299   0.61998   0.00000  Uiso   1.00
H123   H     0.36770   0.24766   0.38697   0.00000  Uiso   1.00
H124   H     0.35211   0.19702   0.26729   0.00000  Uiso   1.00
H125   H     0.42160   0.18865   0.42417   0.00000  Uiso   1.00
H126   H     0.33240   0.39638   0.46350   0.00000  Uiso   1.00
H127   H     0.33012   0.07921   0.14402   0.00000  Uiso   1.00
H128   H     0.47663   0.06161   0.47484   0.00000  Uiso   1.00
H129   H     0.28853   0.49964   0.55777   0.00000  Uiso   1.00
O130   O     0.30362   0.83398   0.09770   0.00000  Uiso   1.00
O131   O     0.49584   0.81089   0.53173   0.00000  Uiso   1.00
O132   O     0.24906   0.38559   0.64053   0.00000  Uiso   1.00
N133   N     0.30840   0.77523   0.20802   0.00000  Uiso   1.00
N134   N     0.44538   0.75876   0.51731   0.00000  Uiso   1.00
N135   N     0.26953   0.16829   0.59485   0.00000  Uiso   1.00
N136   N     0.32519   0.99404   0.17454   0.00000  Uiso   1.00
N137   N     0.46217   0.97757   0.48383   0.00000  Uiso   1.00
N138   N     0.28632   0.38710   0.56137   0.00000  Uiso   1.00
C139   C     0.16039   0.11849   0.94299   0.00000  Uiso   1.00
C140   C     0.16489   0.09430   0.87005   0.00000  Uiso   1.00
C141   C     0.17803   0.19585   0.82737   0.00000  Uiso   1.00
C142   C     0.18006   0.15265   0.76247   0.00000  Uiso   1.00
C143   C     0.18867   0.13638   0.65247   0.00000  Uiso   1.00
C144   C     0.12714   0.09885   0.95528   0.00000  Uiso   1.00
C145   C     0.10853   0.20422   0.98428   0.00000  Uiso   1.00
C146   C     0.07878   0.16483   0.99113   0.00000  Uiso   1.00
C147   C     0.02878   0.15558   0.01350   0.00000  Uiso   1.00
C148   C     0.17560   0.98599   0.97664   0.00000  Uiso   1.00
C149   C     0.19774   0.99646   0.02361   0.00000  Uiso   1.00
C150   C     0.20880   0.86205   0.04847   0.00000  Uiso   1.00
C151   C     0.23405   0.67756   0.10400   0.00000  Uiso   1.00
C152   C     0.14065   0.86116   0.90362   0.00000  Uiso   1.00
C153   C     0.15417   0.95453   0.84867   0.00000  Uiso   1.00
C154   C     0.15619   0.91115   0.78382   0.00000  Uiso   1.00
C155   C     0.16932   0.01262   0.74105   0.00000  Uiso   1.00
C156   C     0.11641   0.95908   0.93390   0.00000  Uiso   1.00
C157   C     0.08669   0.91952   0.94072   0.00000  Uiso   1.00
C158   C     0.06804   0.02481   0.96971   0.00000  Uiso   1.00
C159   C     0.16488   0.84621   0.95526   0.00000  Uiso   1.00
C160   C     0.17590   0.71176   0.98005   0.00000  Uiso   1.00
C161   C     0.19806   0.72203   0.02705   0.00000  Uiso   1.00
H162   H     0.16873   0.22730   0.95963   0.00000  Uiso   1.00
H163   H     0.18632   0.30401   0.84394   0.00000  Uiso   1.00
H164   H     0.11683   0.31237   0.00082   0.00000  Uiso   1.00
H165   H     0.20603   0.10464   0.04015   0.00000  Uiso   1.00
H166   H     0.20107   0.32744   0.70624   0.00000  Uiso   1.00
H167   H     0.05456   0.34504   0.03705   0.00000  Uiso   1.00
H168   H     0.24266   0.90701   0.11998   0.00000  Uiso   1.00
H169   H     0.13230   0.75234   0.88697   0.00000  Uiso   1.00
H170   H     0.14789   0.80298   0.76729   0.00000  Uiso   1.00
H171   H     0.07840   0.81135   0.92417   0.00000  Uiso   1.00
H172   H     0.16760   0.60362   0.96350   0.00000  Uiso   1.00
H173   H     0.16988   0.92079   0.64402   0.00000  Uiso   1.00
H174   H     0.02337   0.93839   0.97484   0.00000  Uiso   1.00
H175   H     0.21147   0.50036   0.05777   0.00000  Uiso   1.00
O176   O     0.19638   0.16602   0.59770   0.00000  Uiso   1.00
O177   O     0.00416   0.18911   0.03173   0.00000  Uiso   1.00
O178   O     0.25094   0.61441   0.14053   0.00000  Uiso   1.00
N179   N     0.19160   0.22477   0.70802   0.00000  Uiso   1.00
N180   N     0.05462   0.24124   0.01731   0.00000  Uiso   1.00
N181   N     0.23047   0.83171   0.09485   0.00000  Uiso   1.00
N182   N     0.17481   0.00596   0.67454   0.00000  Uiso   1.00
N183   N     0.03783   0.02243   0.98383   0.00000  Uiso   1.00
N184   N     0.21368   0.61290   0.06137   0.00000  Uiso   1.00
C185   C     0.33961   0.61849   0.94299   0.00000  Uiso   1.00
C186   C     0.33511   0.59430   0.87005   0.00000  Uiso   1.00
C187   C     0.32197   0.69585   0.82737   0.00000  Uiso   1.00
C188   C     0.31994   0.65265   0.76247   0.00000  Uiso   1.00
C189   C     0.31133   0.63638   0.65247   0.00000  Uiso   1.00
C190   C     0.37286   0.59885   0.95528   0.00000  Uiso   1.00
C191   C     0.39147   0.70422   0.98428   0.00000  Uiso   1.00
C192   C     0.42122   0.66483   0.99113   0.00000  Uiso   1.00
C193   C     0.47122   0.65558   0.01350   0.00000  Uiso   1.00
C194   C     0.32440   0.48599   0.97664   0.00000  Uiso   1.00
C195   C     0.30226   0.49646   0.02361   0.00000  Uiso   1.00
C196   C     0.29120   0.36205   0.04847   0.00000  Uiso   1.00
C197   C     0.26595   0.17756   0.10400   0.00000  Uiso   1.00
C198   C     0.35935   0.36116   0.90362   0.00000  Uiso   1.00
C199   C     0.34583   0.45453   0.84867   0.00000  Uiso   1.00
C200   C     0.34381   0.41115   0.78382   0.00000  Uiso   1.00
C201   C     0.33068   0.51262   0.74105   0.00000  Uiso   1.00
C202   C     0.38359   0.45908   0.93390   0.00000  Uiso   1.00
C203   C     0.41331   0.41952   0.94072   0.00000  Uiso   1.00
C204   C     0.43196   0.52481   0.96971   0.00000  Uiso   1.00
C205   C     0.33512   0.34621   0.95526   0.00000  Uiso   1.00
C206   C     0.32410   0.21176   0.98005   0.00000  Uiso   1.00
C207   C     0.30194   0.22203   0.02705   0.00000  Uiso   1.00
H208   H     0.33127   0.72730   0.95963   0.00000  Uiso   1.00
H209   H     0.31368   0.80401   0.84394   0.00000  Uiso   1.00
H210   H     0.38317   0.81237   0.00082   0.00000  Uiso   1.00
H211   H     0.29397   0.60464   0.04015   0.00000  Uiso   1.00
H212   H     0.29893   0.82744   0.70624   0.00000  Uiso   1.00
H213   H     0.44544   0.84504   0.03705   0.00000  Uiso   1.00
H214   H     0.25734   0.40701   0.11998   0.00000  Uiso   1.00
H215   H     0.36770   0.25234   0.88697   0.00000  Uiso   1.00
H216   H     0.35211   0.30298   0.76729   0.00000  Uiso   1.00
H217   H     0.42160   0.31135   0.92417   0.00000  Uiso   1.00
H218   H     0.33240   0.10362   0.96350   0.00000  Uiso   1.00
H219   H     0.33012   0.42079   0.64402   0.00000  Uiso   1.00
H220   H     0.47663   0.43839   0.97484   0.00000  Uiso   1.00
H221   H     0.28853   0.00036   0.05777   0.00000  Uiso   1.00
O222   O     0.30362   0.66602   0.59770   0.00000  Uiso   1.00
O223   O     0.49584   0.68911   0.03173   0.00000  Uiso   1.00
O224   O     0.24906   0.11441   0.14053   0.00000  Uiso   1.00
N225   N     0.30840   0.72477   0.70802   0.00000  Uiso   1.00
N226   N     0.44538   0.74124   0.01731   0.00000  Uiso   1.00
N227   N     0.26953   0.33171   0.09485   0.00000  Uiso   1.00
N228   N     0.32519   0.50596   0.67454   0.00000  Uiso   1.00
N229   N     0.46217   0.52243   0.98383   0.00000  Uiso   1.00
N230   N     0.28632   0.11290   0.06137   0.00000  Uiso   1.00
C231   C     0.16039   0.38151   0.44299   0.00000  Uiso   1.00
C232   C     0.16489   0.40570   0.37005   0.00000  Uiso   1.00
C233   C     0.17803   0.30415   0.32737   0.00000  Uiso   1.00
C234   C     0.18006   0.34735   0.26247   0.00000  Uiso   1.00
C235   C     0.18867   0.36362   0.15247   0.00000  Uiso   1.00
C236   C     0.12714   0.40115   0.45528   0.00000  Uiso   1.00
C237   C     0.10853   0.29578   0.48428   0.00000  Uiso   1.00
C238   C     0.07878   0.33517   0.49113   0.00000  Uiso   1.00
C239   C     0.02878   0.34442   0.51350   0.00000  Uiso   1.00
C240   C     0.17560   0.51401   0.47664   0.00000  Uiso   1.00
C241   C     0.19774   0.50354   0.52361   0.00000  Uiso   1.00
C242   C     0.20880   0.63795   0.54847   0.00000  Uiso   1.00
C243   C     0.23405   0.82244   0.60400   0.00000  Uiso   1.00
C244   C     0.14065   0.63884   0.40362   0.00000  Uiso   1.00
C245   C     0.15417   0.54547   0.34867   0.00000  Uiso   1.00
C246   C     0.15619   0.58885   0.28382   0.00000  Uiso   1.00
C247   C     0.16932   0.48738   0.24105   0.00000  Uiso   1.00
C248   C     0.11641   0.54092   0.43390   0.00000  Uiso   1.00
C249   C     0.08669   0.58048   0.44072   0.00000  Uiso   1.00
C250   C     0.06804   0.47519   0.46971   0.00000  Uiso   1.00
C251   C     0.16488   0.65379   0.45526   0.00000  Uiso   1.00
C252   C     0.17590   0.78824   0.48005   0.00000  Uiso   1.00
C253   C     0.19806   0.77797   0.52705   0.00000  Uiso   1.00
H254   H     0.16873   0.27270   0.45963   0.00000  Uiso   1.00
H255   H     0.18632   0.19599   0.34394   0.00000  Uiso   1.00
H256   H     0.11683   0.18763   0.50082   0.00000  Uiso   1.00
H257   H     0.20603   0.39536   0.54015   0.00000  Uiso   1.00
H258   H     0.20107   0.17256   0.20624   0.00000  Uiso   1.00
H259   H     0.05456   0.15496   0.53705   0.00000  Uiso   1.00
H260   H     0.24266   0.59299   0.61998   0.00000  Uiso   1.00
H261   H     0.13230   0.74766   0.38697   0.00000  Uiso   1.00
H262   H     0.14789   0.69702   0.26729   0.00000  Uiso   1.00
H263   H     0.07840   0.68865   0.42417   0.00000  Uiso   1.00
H264   H     0.16760   0.89638   0.46350   0.00000  Uiso   1.00
H265   H     0.16988   0.57921   0.14402   0.00000  Uiso   1.00
H266   H     0.02337   0.56161   0.47484   0.00000  Uiso   1.00
H267   H     0.21147   0.99964   0.55777   0.00000  Uiso   1.00
O268   O     0.19638   0.33398   0.09770   0.00000  Uiso   1.00
O269   O     0.00416   0.31089   0.53173   0.00000  Uiso   1.00
O270   O     0.25094   0.88559   0.64053   0.00000  Uiso   1.00
N271   N     0.19160   0.27523   0.20802   0.00000  Uiso   1.00
N272   N     0.05462   0.25876   0.51731   0.00000  Uiso   1.00
N273   N     0.23047   0.66829   0.59485   0.00000  Uiso   1.00
N274   N     0.17481   0.49404   0.17454   0.00000  Uiso   1.00
N275   N     0.03783   0.47757   0.48383   0.00000  Uiso   1.00
N276   N     0.21368   0.88710   0.56137   0.00000  Uiso   1.00
C277   C     0.66039   0.11849   0.55701   0.00000  Uiso   1.00
C278   C     0.66489   0.09430   0.62995   0.00000  Uiso   1.00
C279   C     0.67803   0.19585   0.67263   0.00000  Uiso   1.00
C280   C     0.68006   0.15265   0.73753   0.00000  Uiso   1.00
C281   C     0.68867   0.13638   0.84753   0.00000  Uiso   1.00
C282   C     0.62714   0.09885   0.54472   0.00000  Uiso   1.00
C283   C     0.60853   0.20422   0.51572   0.00000  Uiso   1.00
C284   C     0.57878   0.16483   0.50887   0.00000  Uiso   1.00
C285   C     0.52878   0.15558   0.48650   0.00000  Uiso   1.00
C286   C     0.67560   0.98599   0.52336   0.00000  Uiso   1.00
C287   C     0.69774   0.99646   0.47639   0.00000  Uiso   1.00
C288   C     0.70880   0.86205   0.45153   0.00000  Uiso   1.00
C289   C     0.73405   0.67756   0.39600   0.00000  Uiso   1.00
C290   C     0.64065   0.86116   0.59638   0.00000  Uiso   1.00
C291   C     0.65417   0.95453   0.65133   0.00000  Uiso   1.00
C292   C     0.65619   0.91115   0.71618   0.00000  Uiso   1.00
C293   C     0.66932   0.01262   0.75895   0.00000  Uiso   1.00
C294   C     0.61641   0.95908   0.56610   0.00000  Uiso   1.00
C295   C     0.58669   0.91952   0.55928   0.00000  Uiso   1.00
C296   C     0.56804   0.02481   0.53029   0.00000  Uiso   1.00
C297   C     0.66488   0.84621   0.54474   0.00000  Uiso   1.00
C298   C     0.67590   0.71176   0.51995   0.00000  Uiso   1.00
C299   C     0.69806   0.72203   0.47295   0.00000  Uiso   1.00
H300   H     0.66873   0.22730   0.54037   0.00000  Uiso   1.00
H301   H     0.68632   0.30401   0.65606   0.00000  Uiso   1.00
H302   H     0.61683   0.31237   0.49918   0.00000  Uiso   1.00
H303   H     0.70603   0.10464   0.45985   0.00000  Uiso   1.00
H304   H     0.70107   0.32744   0.79376   0.00000  Uiso   1.00
H305   H     0.55456   0.34504   0.46295   0.00000  Uiso   1.00
H306   H     0.74266   0.90701   0.38002   0.00000  Uiso   1.00
H307   H     0.63230   0.75234   0.61303   0.00000  Uiso   1.00
H308   H     0.64789   0.80298   0.73271   0.00000  Uiso   1.00
H309   H     0.57840   0.81135   0.57583   0.00000  Uiso   1.00
H310   H     0.66760   0.60362   0.53650   0.00000  Uiso   1.00
H311   H     0.66988   0.92079   0.85598   0.00000  Uiso   1.00
H312   H     0.52337   0.93839   0.52516   0.00000  Uiso   1.00
H313   H     0.71147   0.50036   0.44223   0.00000  Uiso   1.00
O314   O     0.69638   0.16602   0.90230   0.00000  Uiso   1.00
O315   O     0.50416   0.18911   0.46827   0.00000  Uiso   1.00
O316   O     0.75094   0.61441   0.35947   0.00000  Uiso   1.00
N317   N     0.69160   0.22477   0.79198   0.00000  Uiso   1.00
N318   N     0.55462   0.24124   0.48269   0.00000  Uiso   1.00
N319   N     0.73047   0.83171   0.40515   0.00000  Uiso   1.00
N320   N     0.67481   0.00596   0.82546   0.00000  Uiso   1.00
N321   N     0.53783   0.02243   0.51617   0.00000  Uiso   1.00
N322   N     0.71368   0.61290   0.43863   0.00000  Uiso   1.00
C323   C     0.83961   0.88151   0.05701   0.00000  Uiso   1.00
C324   C     0.83511   0.90570   0.12995   0.00000  Uiso   1.00
C325   C     0.82197   0.80415   0.17263   0.00000  Uiso   1.00
C326   C     0.81994   0.84735   0.23753   0.00000  Uiso   1.00
C327   C     0.81133   0.86362   0.34753   0.00000  Uiso   1.00
C328   C     0.87286   0.90115   0.04472   0.00000  Uiso   1.00
C329   C     0.89147   0.79578   0.01572   0.00000  Uiso   1.00
C330   C     0.92122   0.83517   0.00887   0.00000  Uiso   1.00
C331   C     0.97122   0.84442   0.98650   0.00000  Uiso   1.00
C332   C     0.82440   0.01401   0.02336   0.00000  Uiso   1.00
C333   C     0.80226   0.00354   0.97639   0.00000  Uiso   1.00
C334   C     0.79120   0.13795   0.95153   0.00000  Uiso   1.00
C335   C     0.76595   0.32244   0.89600   0.00000  Uiso   1.00
C336   C     0.85935   0.13884   0.09638   0.00000  Uiso   1.00
C337   C     0.84583   0.04547   0.15133   0.00000  Uiso   1.00
C338   C     0.84381   0.08885   0.21618   0.00000  Uiso   1.00
C339   C     0.83068   0.98738   0.25895   0.00000  Uiso   1.00
C340   C     0.88359   0.04092   0.06610   0.00000  Uiso   1.00
C341   C     0.91331   0.08048   0.05928   0.00000  Uiso   1.00
C342   C     0.93196   0.97519   0.03029   0.00000  Uiso   1.00
C343   C     0.83512   0.15379   0.04474   0.00000  Uiso   1.00
C344   C     0.82410   0.28824   0.01995   0.00000  Uiso   1.00
C345   C     0.80194   0.27797   0.97295   0.00000  Uiso   1.00
H346   H     0.83127   0.77270   0.04037   0.00000  Uiso   1.00
H347   H     0.81368   0.69599   0.15606   0.00000  Uiso   1.00
H348   H     0.88317   0.68763   0.99918   0.00000  Uiso   1.00
H349   H     0.79397   0.89536   0.95985   0.00000  Uiso   1.00
H350   H     0.79893   0.67256   0.29376   0.00000  Uiso   1.00
H351   H     0.94544   0.65496   0.96295   0.00000  Uiso   1.00
H352   H     0.75734   0.09299   0.88002   0.00000  Uiso   1.00
H353   H     0.86770   0.24766   0.11303   0.00000  Uiso   1.00
H354   H     0.85211   0.19702   0.23271   0.00000  Uiso   1.00
H355   H     0.92160   0.18865   0.07583   0.00000  Uiso   1.00
H356   H     0.83240   0.39638   0.03650   0.00000  Uiso   1.00
H357   H     0.83012   0.07921   0.35598   0.00000  Uiso   1.00
H358   H     0.97663   0.06161   0.02516   0.00000  Uiso   1.00
H359   H     0.78853   0.49964   0.94223   0.00000  Uiso   1.00
O360   O     0.80362   0.83398   0.40230   0.00000  Uiso   1.00
O361   O     0.99584   0.81089   0.96827   0.00000  Uiso   1.00
O362   O     0.74906   0.38559   0.85947   0.00000  Uiso   1.00
N363   N     0.80840   0.77523   0.29198   0.00000  Uiso   1.00
N364   N     0.94538   0.75876   0.98269   0.00000  Uiso   1.00
N365   N     0.76953   0.16829   0.90515   0.00000  Uiso   1.00
N366   N     0.82519   0.99404   0.32546   0.00000  Uiso   1.00
N367   N     0.96217   0.97757   0.01617   0.00000  Uiso   1.00
N368   N     0.78632   0.38710   0.93863   0.00000  Uiso   1.00
