data_job_04181
_audit_creation_date              2018-12-19
_audit_creation_method            'Materials Studio'
_symmetry_space_group_name_H-M    'P1'
_symmetry_Int_Tables_number       1
_symmetry_cell_setting            triclinic
loop_
_symmetry_equiv_pos_as_xyz
  x,y,z
_cell_length_a                    25.7501
_cell_length_b                    25.7501
_cell_length_c                    7.6671
_cell_angle_alpha                 90.0000
_cell_angle_beta                  90.0000
_cell_angle_gamma                 90.0000
loop_
_atom_site_label
_atom_site_type_symbol
_atom_site_fract_x
_atom_site_fract_y
_atom_site_fract_z
_atom_site_U_iso_or_equiv
_atom_site_adp_type
_atom_site_occupancy
C1     C     0.11036   0.72270   0.92697   0.00000  Uiso   1.00
C2     C     0.06168   0.69793   0.85011   0.00000  Uiso   1.00
C3     C     0.02074   0.67709   0.94478   0.00000  Uiso   1.00
C4     C     0.97977   0.65623   0.85022   0.00000  Uiso   1.00
C5     C     0.90419   0.61774   0.75867   0.00000  Uiso   1.00
C6     C     0.15616   0.69292   0.85017   0.00000  Uiso   1.00
C7     C     0.19466   0.66788   0.94488   0.00000  Uiso   1.00
C8     C     0.23322   0.64282   0.85036   0.00000  Uiso   1.00
C9     C     0.30435   0.59659   0.75889   0.00000  Uiso   1.00
C10    C     0.11326   0.77725   0.85018   0.00000  Uiso   1.00
C11    C     0.11571   0.82311   0.94489   0.00000  Uiso   1.00
C12    C     0.11816   0.86904   0.85037   0.00000  Uiso   1.00
C13    C     0.12268   0.95374   0.75892   0.00000  Uiso   1.00
C14    C     0.11038   0.72271   0.59069   0.00000  Uiso   1.00
C15    C     0.06169   0.69793   0.66746   0.00000  Uiso   1.00
C16    C     0.02077   0.67710   0.57273   0.00000  Uiso   1.00
C17    C     0.97978   0.65624   0.66724   0.00000  Uiso   1.00
C18    C     0.15617   0.69293   0.66752   0.00000  Uiso   1.00
C19    C     0.19469   0.66790   0.57283   0.00000  Uiso   1.00
C20    C     0.23324   0.64282   0.66737   0.00000  Uiso   1.00
C21    C     0.11327   0.77726   0.66752   0.00000  Uiso   1.00
C22    C     0.11573   0.82312   0.57284   0.00000  Uiso   1.00
C23    C     0.11818   0.86904   0.66739   0.00000  Uiso   1.00
H24    H     0.11036   0.72269   0.06917   0.00000  Uiso   1.00
H25    H     0.02075   0.67709   0.08614   0.00000  Uiso   1.00
H26    H     0.19465   0.66789   0.08623   0.00000  Uiso   1.00
H27    H     0.11570   0.82309   0.08624   0.00000  Uiso   1.00
H28    H     0.92142   0.62651   0.02439   0.00000  Uiso   1.00
H29    H     0.28810   0.60713   0.02460   0.00000  Uiso   1.00
H30    H     0.12163   0.93440   0.02462   0.00000  Uiso   1.00
H31    H     0.11039   0.72271   0.44848   0.00000  Uiso   1.00
H32    H     0.02079   0.67711   0.43138   0.00000  Uiso   1.00
H33    H     0.19468   0.66791   0.43148   0.00000  Uiso   1.00
H34    H     0.11573   0.82311   0.43149   0.00000  Uiso   1.00
H35    H     0.92145   0.62653   0.49297   0.00000  Uiso   1.00
H36    H     0.28813   0.60715   0.49318   0.00000  Uiso   1.00
H37    H     0.12166   0.93442   0.49319   0.00000  Uiso   1.00
O38    O     0.86250   0.59651   0.75863   0.00000  Uiso   1.00
O39    O     0.34357   0.57109   0.75891   0.00000  Uiso   1.00
O40    O     0.12516   0.00046   0.75893   0.00000  Uiso   1.00
N41    N     0.93372   0.63279   0.90167   0.00000  Uiso   1.00
N42    N     0.27654   0.61466   0.90186   0.00000  Uiso   1.00
N43    N     0.12092   0.92063   0.90188   0.00000  Uiso   1.00
N44    N     0.93374   0.63280   0.61571   0.00000  Uiso   1.00
N45    N     0.27655   0.61466   0.61591   0.00000  Uiso   1.00
N46    N     0.12093   0.92064   0.61593   0.00000  Uiso   1.00
C47    C     0.61036   0.22270   0.42697   0.00000  Uiso   1.00
C48    C     0.56168   0.19793   0.35011   0.00000  Uiso   1.00
C49    C     0.52074   0.17709   0.44478   0.00000  Uiso   1.00
C50    C     0.47977   0.15623   0.35022   0.00000  Uiso   1.00
C51    C     0.40419   0.11774   0.25867   0.00000  Uiso   1.00
C52    C     0.65616   0.19292   0.35017   0.00000  Uiso   1.00
C53    C     0.69466   0.16788   0.44488   0.00000  Uiso   1.00
C54    C     0.73322   0.14282   0.35036   0.00000  Uiso   1.00
C55    C     0.80435   0.09659   0.25889   0.00000  Uiso   1.00
C56    C     0.61326   0.27725   0.35018   0.00000  Uiso   1.00
C57    C     0.61571   0.32311   0.44489   0.00000  Uiso   1.00
C58    C     0.61816   0.36904   0.35037   0.00000  Uiso   1.00
C59    C     0.62268   0.45374   0.25892   0.00000  Uiso   1.00
C60    C     0.61038   0.22271   0.09069   0.00000  Uiso   1.00
C61    C     0.56169   0.19793   0.16746   0.00000  Uiso   1.00
C62    C     0.52077   0.17710   0.07273   0.00000  Uiso   1.00
C63    C     0.47978   0.15624   0.16724   0.00000  Uiso   1.00
C64    C     0.65617   0.19293   0.16752   0.00000  Uiso   1.00
C65    C     0.69469   0.16790   0.07283   0.00000  Uiso   1.00
C66    C     0.73324   0.14282   0.16737   0.00000  Uiso   1.00
C67    C     0.61327   0.27726   0.16752   0.00000  Uiso   1.00
C68    C     0.61573   0.32312   0.07284   0.00000  Uiso   1.00
C69    C     0.61818   0.36904   0.16739   0.00000  Uiso   1.00
H70    H     0.61036   0.22269   0.56917   0.00000  Uiso   1.00
H71    H     0.52075   0.17709   0.58614   0.00000  Uiso   1.00
H72    H     0.69465   0.16789   0.58623   0.00000  Uiso   1.00
H73    H     0.61570   0.32309   0.58624   0.00000  Uiso   1.00
H74    H     0.42142   0.12651   0.52439   0.00000  Uiso   1.00
H75    H     0.78810   0.10713   0.52460   0.00000  Uiso   1.00
H76    H     0.62163   0.43440   0.52462   0.00000  Uiso   1.00
H77    H     0.61039   0.22271   0.94848   0.00000  Uiso   1.00
H78    H     0.52079   0.17711   0.93138   0.00000  Uiso   1.00
H79    H     0.69468   0.16791   0.93148   0.00000  Uiso   1.00
H80    H     0.61573   0.32311   0.93149   0.00000  Uiso   1.00
H81    H     0.42145   0.12653   0.99297   0.00000  Uiso   1.00
H82    H     0.78813   0.10715   0.99318   0.00000  Uiso   1.00
H83    H     0.62166   0.43442   0.99319   0.00000  Uiso   1.00
O84    O     0.36250   0.09651   0.25863   0.00000  Uiso   1.00
O85    O     0.84357   0.07109   0.25891   0.00000  Uiso   1.00
O86    O     0.62516   0.50046   0.25893   0.00000  Uiso   1.00
N87    N     0.43372   0.13279   0.40167   0.00000  Uiso   1.00
N88    N     0.77654   0.11466   0.40186   0.00000  Uiso   1.00
N89    N     0.62092   0.42063   0.40188   0.00000  Uiso   1.00
N90    N     0.43374   0.13280   0.11571   0.00000  Uiso   1.00
N91    N     0.77655   0.11466   0.11591   0.00000  Uiso   1.00
N92    N     0.62093   0.42064   0.11593   0.00000  Uiso   1.00
C93    C     0.88964   0.27730   0.92697   0.00000  Uiso   1.00
C94    C     0.93832   0.30207   0.85011   0.00000  Uiso   1.00
C95    C     0.97926   0.32291   0.94478   0.00000  Uiso   1.00
C96    C     0.02023   0.34377   0.85022   0.00000  Uiso   1.00
C97    C     0.09581   0.38226   0.75867   0.00000  Uiso   1.00
C98    C     0.84384   0.30708   0.85017   0.00000  Uiso   1.00
C99    C     0.80534   0.33212   0.94488   0.00000  Uiso   1.00
C100   C     0.76678   0.35718   0.85036   0.00000  Uiso   1.00
C101   C     0.69565   0.40341   0.75889   0.00000  Uiso   1.00
C102   C     0.88674   0.22275   0.85018   0.00000  Uiso   1.00
C103   C     0.88429   0.17689   0.94489   0.00000  Uiso   1.00
C104   C     0.88184   0.13096   0.85037   0.00000  Uiso   1.00
C105   C     0.87732   0.04626   0.75892   0.00000  Uiso   1.00
C106   C     0.88962   0.27729   0.59069   0.00000  Uiso   1.00
C107   C     0.93831   0.30207   0.66746   0.00000  Uiso   1.00
C108   C     0.97923   0.32290   0.57273   0.00000  Uiso   1.00
C109   C     0.02022   0.34376   0.66724   0.00000  Uiso   1.00
C110   C     0.84383   0.30707   0.66752   0.00000  Uiso   1.00
C111   C     0.80531   0.33210   0.57283   0.00000  Uiso   1.00
C112   C     0.76676   0.35718   0.66737   0.00000  Uiso   1.00
C113   C     0.88673   0.22274   0.66752   0.00000  Uiso   1.00
C114   C     0.88427   0.17688   0.57284   0.00000  Uiso   1.00
C115   C     0.88182   0.13096   0.66739   0.00000  Uiso   1.00
H116   H     0.88964   0.27731   0.06917   0.00000  Uiso   1.00
H117   H     0.97925   0.32291   0.08614   0.00000  Uiso   1.00
H118   H     0.80535   0.33211   0.08623   0.00000  Uiso   1.00
H119   H     0.88430   0.17691   0.08624   0.00000  Uiso   1.00
H120   H     0.07858   0.37349   0.02439   0.00000  Uiso   1.00
H121   H     0.71190   0.39287   0.02460   0.00000  Uiso   1.00
H122   H     0.87837   0.06560   0.02462   0.00000  Uiso   1.00
H123   H     0.88961   0.27729   0.44848   0.00000  Uiso   1.00
H124   H     0.97921   0.32289   0.43138   0.00000  Uiso   1.00
H125   H     0.80532   0.33209   0.43148   0.00000  Uiso   1.00
H126   H     0.88427   0.17689   0.43149   0.00000  Uiso   1.00
H127   H     0.07855   0.37347   0.49297   0.00000  Uiso   1.00
H128   H     0.71187   0.39285   0.49318   0.00000  Uiso   1.00
H129   H     0.87834   0.06558   0.49319   0.00000  Uiso   1.00
O130   O     0.13750   0.40349   0.75863   0.00000  Uiso   1.00
O131   O     0.65643   0.42891   0.75891   0.00000  Uiso   1.00
O132   O     0.87484   0.99954   0.75893   0.00000  Uiso   1.00
N133   N     0.06628   0.36721   0.90167   0.00000  Uiso   1.00
N134   N     0.72346   0.38534   0.90186   0.00000  Uiso   1.00
N135   N     0.87908   0.07937   0.90188   0.00000  Uiso   1.00
N136   N     0.06626   0.36720   0.61571   0.00000  Uiso   1.00
N137   N     0.72345   0.38534   0.61591   0.00000  Uiso   1.00
N138   N     0.87907   0.07936   0.61593   0.00000  Uiso   1.00
C139   C     0.38964   0.77730   0.42697   0.00000  Uiso   1.00
C140   C     0.43832   0.80207   0.35011   0.00000  Uiso   1.00
C141   C     0.47926   0.82291   0.44478   0.00000  Uiso   1.00
C142   C     0.52023   0.84377   0.35022   0.00000  Uiso   1.00
C143   C     0.59581   0.88226   0.25867   0.00000  Uiso   1.00
C144   C     0.34384   0.80708   0.35017   0.00000  Uiso   1.00
C145   C     0.30534   0.83212   0.44488   0.00000  Uiso   1.00
C146   C     0.26678   0.85718   0.35036   0.00000  Uiso   1.00
C147   C     0.19565   0.90341   0.25889   0.00000  Uiso   1.00
C148   C     0.38674   0.72275   0.35018   0.00000  Uiso   1.00
C149   C     0.38429   0.67689   0.44489   0.00000  Uiso   1.00
C150   C     0.38184   0.63096   0.35037   0.00000  Uiso   1.00
C151   C     0.37732   0.54626   0.25892   0.00000  Uiso   1.00
C152   C     0.38962   0.77729   0.09069   0.00000  Uiso   1.00
C153   C     0.43831   0.80207   0.16746   0.00000  Uiso   1.00
C154   C     0.47923   0.82290   0.07273   0.00000  Uiso   1.00
C155   C     0.52022   0.84376   0.16724   0.00000  Uiso   1.00
C156   C     0.34383   0.80707   0.16752   0.00000  Uiso   1.00
C157   C     0.30531   0.83210   0.07283   0.00000  Uiso   1.00
C158   C     0.26676   0.85718   0.16737   0.00000  Uiso   1.00
C159   C     0.38673   0.72274   0.16752   0.00000  Uiso   1.00
C160   C     0.38427   0.67688   0.07284   0.00000  Uiso   1.00
C161   C     0.38182   0.63096   0.16739   0.00000  Uiso   1.00
H162   H     0.38964   0.77731   0.56917   0.00000  Uiso   1.00
H163   H     0.47925   0.82291   0.58614   0.00000  Uiso   1.00
H164   H     0.30535   0.83211   0.58623   0.00000  Uiso   1.00
H165   H     0.38430   0.67691   0.58624   0.00000  Uiso   1.00
H166   H     0.57858   0.87349   0.52439   0.00000  Uiso   1.00
H167   H     0.21190   0.89287   0.52460   0.00000  Uiso   1.00
H168   H     0.37837   0.56560   0.52462   0.00000  Uiso   1.00
H169   H     0.38961   0.77729   0.94848   0.00000  Uiso   1.00
H170   H     0.47921   0.82289   0.93138   0.00000  Uiso   1.00
H171   H     0.30532   0.83209   0.93148   0.00000  Uiso   1.00
H172   H     0.38427   0.67689   0.93149   0.00000  Uiso   1.00
H173   H     0.57855   0.87347   0.99297   0.00000  Uiso   1.00
H174   H     0.21187   0.89285   0.99318   0.00000  Uiso   1.00
H175   H     0.37834   0.56558   0.99319   0.00000  Uiso   1.00
O176   O     0.63750   0.90349   0.25863   0.00000  Uiso   1.00
O177   O     0.15643   0.92891   0.25891   0.00000  Uiso   1.00
O178   O     0.37484   0.49954   0.25893   0.00000  Uiso   1.00
N179   N     0.56628   0.86721   0.40167   0.00000  Uiso   1.00
N180   N     0.22346   0.88534   0.40186   0.00000  Uiso   1.00
N181   N     0.37908   0.57937   0.40188   0.00000  Uiso   1.00
N182   N     0.56626   0.86720   0.11571   0.00000  Uiso   1.00
N183   N     0.22345   0.88534   0.11591   0.00000  Uiso   1.00
N184   N     0.37907   0.57936   0.11593   0.00000  Uiso   1.00
C185   C     0.27730   0.11036   0.92697   0.00000  Uiso   1.00
C186   C     0.30207   0.06168   0.85011   0.00000  Uiso   1.00
C187   C     0.32291   0.02074   0.94478   0.00000  Uiso   1.00
C188   C     0.34377   0.97977   0.85022   0.00000  Uiso   1.00
C189   C     0.38226   0.90419   0.75867   0.00000  Uiso   1.00
C190   C     0.30708   0.15616   0.85017   0.00000  Uiso   1.00
C191   C     0.33212   0.19466   0.94488   0.00000  Uiso   1.00
C192   C     0.35718   0.23322   0.85036   0.00000  Uiso   1.00
C193   C     0.40341   0.30435   0.75889   0.00000  Uiso   1.00
C194   C     0.22275   0.11326   0.85018   0.00000  Uiso   1.00
C195   C     0.17689   0.11571   0.94489   0.00000  Uiso   1.00
C196   C     0.13096   0.11816   0.85037   0.00000  Uiso   1.00
C197   C     0.04626   0.12268   0.75892   0.00000  Uiso   1.00
C198   C     0.27729   0.11038   0.59069   0.00000  Uiso   1.00
C199   C     0.30207   0.06169   0.66746   0.00000  Uiso   1.00
C200   C     0.32290   0.02077   0.57273   0.00000  Uiso   1.00
C201   C     0.34376   0.97978   0.66724   0.00000  Uiso   1.00
C202   C     0.30707   0.15617   0.66752   0.00000  Uiso   1.00
C203   C     0.33210   0.19469   0.57283   0.00000  Uiso   1.00
C204   C     0.35718   0.23324   0.66737   0.00000  Uiso   1.00
C205   C     0.22274   0.11327   0.66752   0.00000  Uiso   1.00
C206   C     0.17688   0.11573   0.57284   0.00000  Uiso   1.00
C207   C     0.13096   0.11818   0.66739   0.00000  Uiso   1.00
H208   H     0.27731   0.11036   0.06917   0.00000  Uiso   1.00
H209   H     0.32291   0.02075   0.08614   0.00000  Uiso   1.00
H210   H     0.33211   0.19465   0.08623   0.00000  Uiso   1.00
H211   H     0.17691   0.11570   0.08624   0.00000  Uiso   1.00
H212   H     0.37349   0.92142   0.02439   0.00000  Uiso   1.00
H213   H     0.39287   0.28810   0.02460   0.00000  Uiso   1.00
H214   H     0.06560   0.12163   0.02462   0.00000  Uiso   1.00
H215   H     0.27729   0.11039   0.44848   0.00000  Uiso   1.00
H216   H     0.32289   0.02079   0.43138   0.00000  Uiso   1.00
H217   H     0.33209   0.19468   0.43148   0.00000  Uiso   1.00
H218   H     0.17689   0.11573   0.43149   0.00000  Uiso   1.00
H219   H     0.37347   0.92145   0.49297   0.00000  Uiso   1.00
H220   H     0.39285   0.28813   0.49318   0.00000  Uiso   1.00
H221   H     0.06558   0.12166   0.49319   0.00000  Uiso   1.00
O222   O     0.40349   0.86250   0.75863   0.00000  Uiso   1.00
O223   O     0.42891   0.34357   0.75891   0.00000  Uiso   1.00
O224   O     0.99954   0.12516   0.75893   0.00000  Uiso   1.00
N225   N     0.36721   0.93372   0.90167   0.00000  Uiso   1.00
N226   N     0.38534   0.27654   0.90186   0.00000  Uiso   1.00
N227   N     0.07937   0.12092   0.90188   0.00000  Uiso   1.00
N228   N     0.36720   0.93374   0.61571   0.00000  Uiso   1.00
N229   N     0.38534   0.27655   0.61591   0.00000  Uiso   1.00
N230   N     0.07936   0.12093   0.61593   0.00000  Uiso   1.00
C231   C     0.77730   0.61036   0.42697   0.00000  Uiso   1.00
C232   C     0.80207   0.56168   0.35011   0.00000  Uiso   1.00
C233   C     0.82291   0.52074   0.44478   0.00000  Uiso   1.00
C234   C     0.84377   0.47977   0.35022   0.00000  Uiso   1.00
C235   C     0.88226   0.40419   0.25867   0.00000  Uiso   1.00
C236   C     0.80708   0.65616   0.35017   0.00000  Uiso   1.00
C237   C     0.83212   0.69466   0.44488   0.00000  Uiso   1.00
C238   C     0.85718   0.73322   0.35036   0.00000  Uiso   1.00
C239   C     0.90341   0.80435   0.25889   0.00000  Uiso   1.00
C240   C     0.72275   0.61326   0.35018   0.00000  Uiso   1.00
C241   C     0.67689   0.61571   0.44489   0.00000  Uiso   1.00
C242   C     0.63096   0.61816   0.35037   0.00000  Uiso   1.00
C243   C     0.54626   0.62268   0.25892   0.00000  Uiso   1.00
C244   C     0.77729   0.61038   0.09069   0.00000  Uiso   1.00
C245   C     0.80207   0.56169   0.16746   0.00000  Uiso   1.00
C246   C     0.82290   0.52077   0.07273   0.00000  Uiso   1.00
C247   C     0.84376   0.47978   0.16724   0.00000  Uiso   1.00
C248   C     0.80707   0.65617   0.16752   0.00000  Uiso   1.00
C249   C     0.83210   0.69469   0.07283   0.00000  Uiso   1.00
C250   C     0.85718   0.73324   0.16737   0.00000  Uiso   1.00
C251   C     0.72274   0.61327   0.16752   0.00000  Uiso   1.00
C252   C     0.67688   0.61573   0.07284   0.00000  Uiso   1.00
C253   C     0.63096   0.61818   0.16739   0.00000  Uiso   1.00
H254   H     0.77731   0.61036   0.56917   0.00000  Uiso   1.00
H255   H     0.82291   0.52075   0.58614   0.00000  Uiso   1.00
H256   H     0.83211   0.69465   0.58623   0.00000  Uiso   1.00
H257   H     0.67691   0.61570   0.58624   0.00000  Uiso   1.00
H258   H     0.87349   0.42142   0.52439   0.00000  Uiso   1.00
H259   H     0.89287   0.78810   0.52460   0.00000  Uiso   1.00
H260   H     0.56560   0.62163   0.52462   0.00000  Uiso   1.00
H261   H     0.77729   0.61039   0.94848   0.00000  Uiso   1.00
H262   H     0.82289   0.52079   0.93138   0.00000  Uiso   1.00
H263   H     0.83209   0.69468   0.93148   0.00000  Uiso   1.00
H264   H     0.67689   0.61573   0.93149   0.00000  Uiso   1.00
H265   H     0.87347   0.42145   0.99297   0.00000  Uiso   1.00
H266   H     0.89285   0.78813   0.99318   0.00000  Uiso   1.00
H267   H     0.56558   0.62166   0.99319   0.00000  Uiso   1.00
O268   O     0.90349   0.36250   0.25863   0.00000  Uiso   1.00
O269   O     0.92891   0.84357   0.25891   0.00000  Uiso   1.00
O270   O     0.49954   0.62516   0.25893   0.00000  Uiso   1.00
N271   N     0.86721   0.43372   0.40167   0.00000  Uiso   1.00
N272   N     0.88534   0.77654   0.40186   0.00000  Uiso   1.00
N273   N     0.57937   0.62092   0.40188   0.00000  Uiso   1.00
N274   N     0.86720   0.43374   0.11571   0.00000  Uiso   1.00
N275   N     0.88534   0.77655   0.11591   0.00000  Uiso   1.00
N276   N     0.57936   0.62093   0.11593   0.00000  Uiso   1.00
C277   C     0.72270   0.88964   0.92697   0.00000  Uiso   1.00
C278   C     0.69793   0.93832   0.85011   0.00000  Uiso   1.00
C279   C     0.67709   0.97926   0.94478   0.00000  Uiso   1.00
C280   C     0.65623   0.02023   0.85022   0.00000  Uiso   1.00
C281   C     0.61774   0.09581   0.75867   0.00000  Uiso   1.00
C282   C     0.69292   0.84384   0.85017   0.00000  Uiso   1.00
C283   C     0.66788   0.80534   0.94488   0.00000  Uiso   1.00
C284   C     0.64282   0.76678   0.85036   0.00000  Uiso   1.00
C285   C     0.59659   0.69565   0.75889   0.00000  Uiso   1.00
C286   C     0.77725   0.88674   0.85018   0.00000  Uiso   1.00
C287   C     0.82311   0.88429   0.94489   0.00000  Uiso   1.00
C288   C     0.86904   0.88184   0.85037   0.00000  Uiso   1.00
C289   C     0.95374   0.87732   0.75892   0.00000  Uiso   1.00
C290   C     0.72271   0.88962   0.59069   0.00000  Uiso   1.00
C291   C     0.69793   0.93831   0.66746   0.00000  Uiso   1.00
C292   C     0.67710   0.97923   0.57273   0.00000  Uiso   1.00
C293   C     0.65624   0.02022   0.66724   0.00000  Uiso   1.00
C294   C     0.69293   0.84383   0.66752   0.00000  Uiso   1.00
C295   C     0.66790   0.80531   0.57283   0.00000  Uiso   1.00
C296   C     0.64282   0.76676   0.66737   0.00000  Uiso   1.00
C297   C     0.77726   0.88673   0.66752   0.00000  Uiso   1.00
C298   C     0.82312   0.88427   0.57284   0.00000  Uiso   1.00
C299   C     0.86904   0.88182   0.66739   0.00000  Uiso   1.00
H300   H     0.72269   0.88964   0.06917   0.00000  Uiso   1.00
H301   H     0.67709   0.97925   0.08614   0.00000  Uiso   1.00
H302   H     0.66789   0.80535   0.08623   0.00000  Uiso   1.00
H303   H     0.82309   0.88430   0.08624   0.00000  Uiso   1.00
H304   H     0.62651   0.07858   0.02439   0.00000  Uiso   1.00
H305   H     0.60713   0.71190   0.02460   0.00000  Uiso   1.00
H306   H     0.93440   0.87837   0.02462   0.00000  Uiso   1.00
H307   H     0.72271   0.88961   0.44848   0.00000  Uiso   1.00
H308   H     0.67711   0.97921   0.43138   0.00000  Uiso   1.00
H309   H     0.66791   0.80532   0.43148   0.00000  Uiso   1.00
H310   H     0.82311   0.88427   0.43149   0.00000  Uiso   1.00
H311   H     0.62653   0.07855   0.49297   0.00000  Uiso   1.00
H312   H     0.60715   0.71187   0.49318   0.00000  Uiso   1.00
H313   H     0.93442   0.87834   0.49319   0.00000  Uiso   1.00
O314   O     0.59651   0.13750   0.75863   0.00000  Uiso   1.00
O315   O     0.57109   0.65643   0.75891   0.00000  Uiso   1.00
O316   O     0.00046   0.87484   0.75893   0.00000  Uiso   1.00
N317   N     0.63279   0.06628   0.90167   0.00000  Uiso   1.00
N318   N     0.61466   0.72346   0.90186   0.00000  Uiso   1.00
N319   N     0.92063   0.87908   0.90188   0.00000  Uiso   1.00
N320   N     0.63280   0.06626   0.61571   0.00000  Uiso   1.00
N321   N     0.61466   0.72345   0.61591   0.00000  Uiso   1.00
N322   N     0.92064   0.87907   0.61593   0.00000  Uiso   1.00
C323   C     0.22270   0.38964   0.42697   0.00000  Uiso   1.00
C324   C     0.19793   0.43832   0.35011   0.00000  Uiso   1.00
C325   C     0.17709   0.47926   0.44478   0.00000  Uiso   1.00
C326   C     0.15623   0.52023   0.35022   0.00000  Uiso   1.00
C327   C     0.11774   0.59581   0.25867   0.00000  Uiso   1.00
C328   C     0.19292   0.34384   0.35017   0.00000  Uiso   1.00
C329   C     0.16788   0.30534   0.44488   0.00000  Uiso   1.00
C330   C     0.14282   0.26678   0.35036   0.00000  Uiso   1.00
C331   C     0.09659   0.19565   0.25889   0.00000  Uiso   1.00
C332   C     0.27725   0.38674   0.35018   0.00000  Uiso   1.00
C333   C     0.32311   0.38429   0.44489   0.00000  Uiso   1.00
C334   C     0.36904   0.38184   0.35037   0.00000  Uiso   1.00
C335   C     0.45374   0.37732   0.25892   0.00000  Uiso   1.00
C336   C     0.22271   0.38962   0.09069   0.00000  Uiso   1.00
C337   C     0.19793   0.43831   0.16746   0.00000  Uiso   1.00
C338   C     0.17710   0.47923   0.07273   0.00000  Uiso   1.00
C339   C     0.15624   0.52022   0.16724   0.00000  Uiso   1.00
C340   C     0.19293   0.34383   0.16752   0.00000  Uiso   1.00
C341   C     0.16790   0.30531   0.07283   0.00000  Uiso   1.00
C342   C     0.14282   0.26676   0.16737   0.00000  Uiso   1.00
C343   C     0.27726   0.38673   0.16752   0.00000  Uiso   1.00
C344   C     0.32312   0.38427   0.07284   0.00000  Uiso   1.00
C345   C     0.36904   0.38182   0.16739   0.00000  Uiso   1.00
H346   H     0.22269   0.38964   0.56917   0.00000  Uiso   1.00
H347   H     0.17709   0.47925   0.58614   0.00000  Uiso   1.00
H348   H     0.16789   0.30535   0.58623   0.00000  Uiso   1.00
H349   H     0.32309   0.38430   0.58624   0.00000  Uiso   1.00
H350   H     0.12651   0.57858   0.52439   0.00000  Uiso   1.00
H351   H     0.10713   0.21190   0.52460   0.00000  Uiso   1.00
H352   H     0.43440   0.37837   0.52462   0.00000  Uiso   1.00
H353   H     0.22271   0.38961   0.94848   0.00000  Uiso   1.00
H354   H     0.17711   0.47921   0.93138   0.00000  Uiso   1.00
H355   H     0.16791   0.30532   0.93148   0.00000  Uiso   1.00
H356   H     0.32311   0.38427   0.93149   0.00000  Uiso   1.00
H357   H     0.12653   0.57855   0.99297   0.00000  Uiso   1.00
H358   H     0.10715   0.21187   0.99318   0.00000  Uiso   1.00
H359   H     0.43442   0.37834   0.99319   0.00000  Uiso   1.00
O360   O     0.09651   0.63750   0.25863   0.00000  Uiso   1.00
O361   O     0.07109   0.15643   0.25891   0.00000  Uiso   1.00
O362   O     0.50046   0.37484   0.25893   0.00000  Uiso   1.00
N363   N     0.13279   0.56628   0.40167   0.00000  Uiso   1.00
N364   N     0.11466   0.22346   0.40186   0.00000  Uiso   1.00
N365   N     0.42063   0.37908   0.40188   0.00000  Uiso   1.00
N366   N     0.13280   0.56626   0.11571   0.00000  Uiso   1.00
N367   N     0.11466   0.22345   0.11591   0.00000  Uiso   1.00
N368   N     0.42064   0.37907   0.11593   0.00000  Uiso   1.00
