data_job_04312
_audit_creation_date              2018-12-19
_audit_creation_method            'Materials Studio'
_symmetry_space_group_name_H-M    'P1'
_symmetry_Int_Tables_number       1
_symmetry_cell_setting            triclinic
loop_
_symmetry_equiv_pos_as_xyz
  x,y,z
_cell_length_a                    23.3621
_cell_length_b                    7.3139
_cell_length_c                    41.3086
_cell_angle_alpha                 90.0000
_cell_angle_beta                  90.0000
_cell_angle_gamma                 90.0000
loop_
_atom_site_label
_atom_site_type_symbol
_atom_site_fract_x
_atom_site_fract_y
_atom_site_fract_z
_atom_site_U_iso_or_equiv
_atom_site_adp_type
_atom_site_occupancy
C1     C     0.28947   0.42621   0.33923   0.00000  Uiso   1.00
C2     C     0.28103   0.34570   0.37294   0.00000  Uiso   1.00
C3     C     0.27394   0.44497   0.40129   0.00000  Uiso   1.00
C4     C     0.26684   0.34589   0.42967   0.00000  Uiso   1.00
C5     C     0.25376   0.25000   0.48203   0.00000  Uiso   1.00
C6     C     0.84532   0.84568   0.32651   0.00000  Uiso   1.00
C7     C     0.89228   0.94496   0.31581   0.00000  Uiso   1.00
C8     C     0.93930   0.84585   0.30510   0.00000  Uiso   1.00
C9     C     0.02602   0.74993   0.28534   0.00000  Uiso   1.00
C10    C     0.24207   0.34568   0.31823   0.00000  Uiso   1.00
C11    C     0.20223   0.44494   0.30057   0.00000  Uiso   1.00
C12    C     0.16232   0.34583   0.28289   0.00000  Uiso   1.00
C13    C     0.08873   0.24992   0.25028   0.00000  Uiso   1.00
C14    C     0.28947   0.07369   0.33923   0.00000  Uiso   1.00
C15    C     0.28103   0.15422   0.37294   0.00000  Uiso   1.00
C16    C     0.27394   0.05495   0.40129   0.00000  Uiso   1.00
C17    C     0.26684   0.15407   0.42968   0.00000  Uiso   1.00
C18    C     0.84532   0.65421   0.32651   0.00000  Uiso   1.00
C19    C     0.89228   0.55493   0.31581   0.00000  Uiso   1.00
C20    C     0.93930   0.65403   0.30510   0.00000  Uiso   1.00
C21    C     0.24207   0.15420   0.31823   0.00000  Uiso   1.00
C22    C     0.20223   0.05492   0.30057   0.00000  Uiso   1.00
C23    C     0.16233   0.15401   0.28289   0.00000  Uiso   1.00
H24    H     0.28947   0.57528   0.33922   0.00000  Uiso   1.00
H25    H     0.27394   0.59316   0.40128   0.00000  Uiso   1.00
H26    H     0.89226   0.09313   0.31581   0.00000  Uiso   1.00
H27    H     0.20224   0.59311   0.30057   0.00000  Uiso   1.00
H28    H     0.25675   0.52853   0.47008   0.00000  Uiso   1.00
H29    H     0.00623   0.02848   0.28985   0.00000  Uiso   1.00
H30    H     0.10552   0.52845   0.25772   0.00000  Uiso   1.00
H31    H     0.28947   0.92461   0.33923   0.00000  Uiso   1.00
H32    H     0.27394   0.90678   0.40128   0.00000  Uiso   1.00
H33    H     0.89227   0.40676   0.31581   0.00000  Uiso   1.00
H34    H     0.20224   0.90675   0.30058   0.00000  Uiso   1.00
H35    H     0.25675   0.97145   0.47008   0.00000  Uiso   1.00
H36    H     0.00623   0.47140   0.28985   0.00000  Uiso   1.00
H37    H     0.10552   0.97137   0.25773   0.00000  Uiso   1.00
O38    O     0.24655   0.25000   0.51090   0.00000  Uiso   1.00
O39    O     0.07385   0.74993   0.27444   0.00000  Uiso   1.00
O40    O     0.04814   0.24990   0.23230   0.00000  Uiso   1.00
N41    N     0.25887   0.39987   0.46156   0.00000  Uiso   1.00
N42    N     0.99212   0.89982   0.29306   0.00000  Uiso   1.00
N43    N     0.11750   0.39980   0.26302   0.00000  Uiso   1.00
N44    N     0.25887   0.10011   0.46157   0.00000  Uiso   1.00
N45    N     0.99212   0.60006   0.29306   0.00000  Uiso   1.00
N46    N     0.11750   0.10003   0.26302   0.00000  Uiso   1.00
C47    C     0.78947   0.92621   0.33923   0.00000  Uiso   1.00
C48    C     0.78103   0.84570   0.37294   0.00000  Uiso   1.00
C49    C     0.77394   0.94497   0.40129   0.00000  Uiso   1.00
C50    C     0.76684   0.84589   0.42967   0.00000  Uiso   1.00
C51    C     0.75376   0.75000   0.48203   0.00000  Uiso   1.00
C52    C     0.34532   0.34568   0.32651   0.00000  Uiso   1.00
C53    C     0.39228   0.44496   0.31581   0.00000  Uiso   1.00
C54    C     0.43930   0.34585   0.30510   0.00000  Uiso   1.00
C55    C     0.52602   0.24993   0.28534   0.00000  Uiso   1.00
C56    C     0.74207   0.84568   0.31823   0.00000  Uiso   1.00
C57    C     0.70223   0.94494   0.30057   0.00000  Uiso   1.00
C58    C     0.66232   0.84583   0.28289   0.00000  Uiso   1.00
C59    C     0.58873   0.74992   0.25028   0.00000  Uiso   1.00
C60    C     0.78947   0.57369   0.33923   0.00000  Uiso   1.00
C61    C     0.78103   0.65422   0.37294   0.00000  Uiso   1.00
C62    C     0.77394   0.55495   0.40129   0.00000  Uiso   1.00
C63    C     0.76684   0.65407   0.42968   0.00000  Uiso   1.00
C64    C     0.34532   0.15421   0.32651   0.00000  Uiso   1.00
C65    C     0.39228   0.05493   0.31581   0.00000  Uiso   1.00
C66    C     0.43930   0.15403   0.30510   0.00000  Uiso   1.00
C67    C     0.74207   0.65420   0.31823   0.00000  Uiso   1.00
C68    C     0.70223   0.55492   0.30057   0.00000  Uiso   1.00
C69    C     0.66233   0.65401   0.28289   0.00000  Uiso   1.00
H70    H     0.78947   0.07528   0.33922   0.00000  Uiso   1.00
H71    H     0.77394   0.09316   0.40128   0.00000  Uiso   1.00
H72    H     0.39226   0.59313   0.31581   0.00000  Uiso   1.00
H73    H     0.70224   0.09311   0.30057   0.00000  Uiso   1.00
H74    H     0.75675   0.02853   0.47008   0.00000  Uiso   1.00
H75    H     0.50623   0.52848   0.28985   0.00000  Uiso   1.00
H76    H     0.60552   0.02845   0.25772   0.00000  Uiso   1.00
H77    H     0.78947   0.42461   0.33923   0.00000  Uiso   1.00
H78    H     0.77394   0.40678   0.40128   0.00000  Uiso   1.00
H79    H     0.39227   0.90676   0.31581   0.00000  Uiso   1.00
H80    H     0.70224   0.40675   0.30058   0.00000  Uiso   1.00
H81    H     0.75675   0.47145   0.47008   0.00000  Uiso   1.00
H82    H     0.50623   0.97140   0.28985   0.00000  Uiso   1.00
H83    H     0.60552   0.47137   0.25773   0.00000  Uiso   1.00
O84    O     0.74655   0.75000   0.51090   0.00000  Uiso   1.00
O85    O     0.57385   0.24993   0.27444   0.00000  Uiso   1.00
O86    O     0.54814   0.74990   0.23230   0.00000  Uiso   1.00
N87    N     0.75887   0.89987   0.46156   0.00000  Uiso   1.00
N88    N     0.49212   0.39982   0.29306   0.00000  Uiso   1.00
N89    N     0.61750   0.89980   0.26302   0.00000  Uiso   1.00
N90    N     0.75887   0.60011   0.46157   0.00000  Uiso   1.00
N91    N     0.49212   0.10006   0.29306   0.00000  Uiso   1.00
N92    N     0.61750   0.60003   0.26302   0.00000  Uiso   1.00
C93    C     0.71053   0.57379   0.83923   0.00000  Uiso   1.00
C94    C     0.71897   0.65430   0.87294   0.00000  Uiso   1.00
C95    C     0.72606   0.55503   0.90129   0.00000  Uiso   1.00
C96    C     0.73316   0.65411   0.92967   0.00000  Uiso   1.00
C97    C     0.74624   0.75000   0.98203   0.00000  Uiso   1.00
C98    C     0.15468   0.15432   0.82651   0.00000  Uiso   1.00
C99    C     0.10772   0.05504   0.81581   0.00000  Uiso   1.00
C100   C     0.06070   0.15415   0.80510   0.00000  Uiso   1.00
C101   C     0.97398   0.25007   0.78534   0.00000  Uiso   1.00
C102   C     0.75793   0.65432   0.81823   0.00000  Uiso   1.00
C103   C     0.79777   0.55506   0.80057   0.00000  Uiso   1.00
C104   C     0.83768   0.65417   0.78289   0.00000  Uiso   1.00
C105   C     0.91127   0.75008   0.75028   0.00000  Uiso   1.00
C106   C     0.71053   0.92631   0.83923   0.00000  Uiso   1.00
C107   C     0.71897   0.84578   0.87294   0.00000  Uiso   1.00
C108   C     0.72606   0.94505   0.90129   0.00000  Uiso   1.00
C109   C     0.73316   0.84593   0.92968   0.00000  Uiso   1.00
C110   C     0.15468   0.34579   0.82651   0.00000  Uiso   1.00
C111   C     0.10772   0.44507   0.81581   0.00000  Uiso   1.00
C112   C     0.06070   0.34597   0.80510   0.00000  Uiso   1.00
C113   C     0.75793   0.84580   0.81823   0.00000  Uiso   1.00
C114   C     0.79777   0.94508   0.80057   0.00000  Uiso   1.00
C115   C     0.83767   0.84599   0.78289   0.00000  Uiso   1.00
H116   H     0.71053   0.42472   0.83922   0.00000  Uiso   1.00
H117   H     0.72606   0.40684   0.90128   0.00000  Uiso   1.00
H118   H     0.10774   0.90687   0.81581   0.00000  Uiso   1.00
H119   H     0.79776   0.40689   0.80057   0.00000  Uiso   1.00
H120   H     0.74325   0.47147   0.97008   0.00000  Uiso   1.00
H121   H     0.99377   0.97152   0.78985   0.00000  Uiso   1.00
H122   H     0.89448   0.47155   0.75772   0.00000  Uiso   1.00
H123   H     0.71053   0.07539   0.83923   0.00000  Uiso   1.00
H124   H     0.72606   0.09322   0.90128   0.00000  Uiso   1.00
H125   H     0.10773   0.59324   0.81581   0.00000  Uiso   1.00
H126   H     0.79776   0.09325   0.80058   0.00000  Uiso   1.00
H127   H     0.74325   0.02855   0.97008   0.00000  Uiso   1.00
H128   H     0.99377   0.52860   0.78985   0.00000  Uiso   1.00
H129   H     0.89448   0.02863   0.75773   0.00000  Uiso   1.00
O130   O     0.75345   0.75000   0.01090   0.00000  Uiso   1.00
O131   O     0.92615   0.25007   0.77444   0.00000  Uiso   1.00
O132   O     0.95186   0.75010   0.73230   0.00000  Uiso   1.00
N133   N     0.74113   0.60013   0.96156   0.00000  Uiso   1.00
N134   N     0.00788   0.10018   0.79306   0.00000  Uiso   1.00
N135   N     0.88250   0.60020   0.76302   0.00000  Uiso   1.00
N136   N     0.74113   0.89989   0.96157   0.00000  Uiso   1.00
N137   N     0.00788   0.39994   0.79306   0.00000  Uiso   1.00
N138   N     0.88250   0.89997   0.76302   0.00000  Uiso   1.00
C139   C     0.21053   0.07379   0.83923   0.00000  Uiso   1.00
C140   C     0.21897   0.15430   0.87294   0.00000  Uiso   1.00
C141   C     0.22606   0.05503   0.90129   0.00000  Uiso   1.00
C142   C     0.23316   0.15411   0.92967   0.00000  Uiso   1.00
C143   C     0.24624   0.25000   0.98203   0.00000  Uiso   1.00
C144   C     0.65468   0.65432   0.82651   0.00000  Uiso   1.00
C145   C     0.60772   0.55504   0.81581   0.00000  Uiso   1.00
C146   C     0.56070   0.65415   0.80510   0.00000  Uiso   1.00
C147   C     0.47398   0.75007   0.78534   0.00000  Uiso   1.00
C148   C     0.25793   0.15432   0.81823   0.00000  Uiso   1.00
C149   C     0.29777   0.05506   0.80057   0.00000  Uiso   1.00
C150   C     0.33768   0.15417   0.78289   0.00000  Uiso   1.00
C151   C     0.41127   0.25008   0.75028   0.00000  Uiso   1.00
C152   C     0.21053   0.42631   0.83923   0.00000  Uiso   1.00
C153   C     0.21897   0.34578   0.87294   0.00000  Uiso   1.00
C154   C     0.22606   0.44505   0.90129   0.00000  Uiso   1.00
C155   C     0.23316   0.34593   0.92968   0.00000  Uiso   1.00
C156   C     0.65468   0.84579   0.82651   0.00000  Uiso   1.00
C157   C     0.60772   0.94507   0.81581   0.00000  Uiso   1.00
C158   C     0.56070   0.84597   0.80510   0.00000  Uiso   1.00
C159   C     0.25793   0.34580   0.81823   0.00000  Uiso   1.00
C160   C     0.29777   0.44508   0.80057   0.00000  Uiso   1.00
C161   C     0.33767   0.34599   0.78289   0.00000  Uiso   1.00
H162   H     0.21053   0.92472   0.83922   0.00000  Uiso   1.00
H163   H     0.22606   0.90684   0.90128   0.00000  Uiso   1.00
H164   H     0.60774   0.40687   0.81581   0.00000  Uiso   1.00
H165   H     0.29776   0.90689   0.80057   0.00000  Uiso   1.00
H166   H     0.24325   0.97147   0.97008   0.00000  Uiso   1.00
H167   H     0.49377   0.47152   0.78985   0.00000  Uiso   1.00
H168   H     0.39448   0.97155   0.75772   0.00000  Uiso   1.00
H169   H     0.21053   0.57539   0.83923   0.00000  Uiso   1.00
H170   H     0.22606   0.59322   0.90128   0.00000  Uiso   1.00
H171   H     0.60773   0.09324   0.81581   0.00000  Uiso   1.00
H172   H     0.29776   0.59325   0.80058   0.00000  Uiso   1.00
H173   H     0.24325   0.52855   0.97008   0.00000  Uiso   1.00
H174   H     0.49377   0.02860   0.78985   0.00000  Uiso   1.00
H175   H     0.39448   0.52863   0.75773   0.00000  Uiso   1.00
O176   O     0.25345   0.25000   0.01090   0.00000  Uiso   1.00
O177   O     0.42615   0.75007   0.77444   0.00000  Uiso   1.00
O178   O     0.45186   0.25010   0.73230   0.00000  Uiso   1.00
N179   N     0.24113   0.10013   0.96156   0.00000  Uiso   1.00
N180   N     0.50788   0.60018   0.79306   0.00000  Uiso   1.00
N181   N     0.38250   0.10020   0.76302   0.00000  Uiso   1.00
N182   N     0.24113   0.39989   0.96157   0.00000  Uiso   1.00
N183   N     0.50788   0.89994   0.79306   0.00000  Uiso   1.00
N184   N     0.38250   0.39997   0.76302   0.00000  Uiso   1.00
C185   C     0.71053   0.42621   0.16077   0.00000  Uiso   1.00
C186   C     0.71897   0.34570   0.12706   0.00000  Uiso   1.00
C187   C     0.72606   0.44497   0.09871   0.00000  Uiso   1.00
C188   C     0.73316   0.34589   0.07033   0.00000  Uiso   1.00
C189   C     0.74624   0.25000   0.01797   0.00000  Uiso   1.00
C190   C     0.15468   0.84568   0.17349   0.00000  Uiso   1.00
C191   C     0.10772   0.94496   0.18419   0.00000  Uiso   1.00
C192   C     0.06070   0.84585   0.19490   0.00000  Uiso   1.00
C193   C     0.97398   0.74993   0.21466   0.00000  Uiso   1.00
C194   C     0.75793   0.34568   0.18177   0.00000  Uiso   1.00
C195   C     0.79777   0.44494   0.19943   0.00000  Uiso   1.00
C196   C     0.83768   0.34583   0.21711   0.00000  Uiso   1.00
C197   C     0.91127   0.24992   0.24972   0.00000  Uiso   1.00
C198   C     0.71053   0.07369   0.16077   0.00000  Uiso   1.00
C199   C     0.71897   0.15422   0.12706   0.00000  Uiso   1.00
C200   C     0.72606   0.05495   0.09871   0.00000  Uiso   1.00
C201   C     0.73316   0.15407   0.07032   0.00000  Uiso   1.00
C202   C     0.15468   0.65421   0.17349   0.00000  Uiso   1.00
C203   C     0.10772   0.55493   0.18419   0.00000  Uiso   1.00
C204   C     0.06070   0.65403   0.19490   0.00000  Uiso   1.00
C205   C     0.75793   0.15420   0.18177   0.00000  Uiso   1.00
C206   C     0.79777   0.05492   0.19943   0.00000  Uiso   1.00
C207   C     0.83767   0.15401   0.21711   0.00000  Uiso   1.00
H208   H     0.71053   0.57528   0.16078   0.00000  Uiso   1.00
H209   H     0.72606   0.59316   0.09872   0.00000  Uiso   1.00
H210   H     0.10774   0.09313   0.18419   0.00000  Uiso   1.00
H211   H     0.79776   0.59311   0.19943   0.00000  Uiso   1.00
H212   H     0.74325   0.52853   0.02992   0.00000  Uiso   1.00
H213   H     0.99377   0.02848   0.21015   0.00000  Uiso   1.00
H214   H     0.89448   0.52845   0.24228   0.00000  Uiso   1.00
H215   H     0.71053   0.92461   0.16077   0.00000  Uiso   1.00
H216   H     0.72606   0.90678   0.09872   0.00000  Uiso   1.00
H217   H     0.10773   0.40676   0.18419   0.00000  Uiso   1.00
H218   H     0.79776   0.90675   0.19942   0.00000  Uiso   1.00
H219   H     0.74325   0.97145   0.02992   0.00000  Uiso   1.00
H220   H     0.99377   0.47140   0.21015   0.00000  Uiso   1.00
H221   H     0.89448   0.97137   0.24227   0.00000  Uiso   1.00
O222   O     0.75345   0.25000   0.98910   0.00000  Uiso   1.00
O223   O     0.92615   0.74993   0.22556   0.00000  Uiso   1.00
O224   O     0.95186   0.24990   0.26770   0.00000  Uiso   1.00
N225   N     0.74113   0.39987   0.03844   0.00000  Uiso   1.00
N226   N     0.00788   0.89982   0.20694   0.00000  Uiso   1.00
N227   N     0.88250   0.39980   0.23698   0.00000  Uiso   1.00
N228   N     0.74113   0.10011   0.03843   0.00000  Uiso   1.00
N229   N     0.00788   0.60006   0.20694   0.00000  Uiso   1.00
N230   N     0.88250   0.10003   0.23698   0.00000  Uiso   1.00
C231   C     0.21053   0.92621   0.16077   0.00000  Uiso   1.00
C232   C     0.21897   0.84570   0.12706   0.00000  Uiso   1.00
C233   C     0.22606   0.94497   0.09871   0.00000  Uiso   1.00
C234   C     0.23316   0.84589   0.07033   0.00000  Uiso   1.00
C235   C     0.24624   0.75000   0.01797   0.00000  Uiso   1.00
C236   C     0.65468   0.34568   0.17349   0.00000  Uiso   1.00
C237   C     0.60772   0.44496   0.18419   0.00000  Uiso   1.00
C238   C     0.56070   0.34585   0.19490   0.00000  Uiso   1.00
C239   C     0.47398   0.24993   0.21466   0.00000  Uiso   1.00
C240   C     0.25793   0.84568   0.18177   0.00000  Uiso   1.00
C241   C     0.29777   0.94494   0.19943   0.00000  Uiso   1.00
C242   C     0.33768   0.84583   0.21711   0.00000  Uiso   1.00
C243   C     0.41127   0.74992   0.24972   0.00000  Uiso   1.00
C244   C     0.21053   0.57369   0.16077   0.00000  Uiso   1.00
C245   C     0.21897   0.65422   0.12706   0.00000  Uiso   1.00
C246   C     0.22606   0.55495   0.09871   0.00000  Uiso   1.00
C247   C     0.23316   0.65407   0.07032   0.00000  Uiso   1.00
C248   C     0.65468   0.15421   0.17349   0.00000  Uiso   1.00
C249   C     0.60772   0.05493   0.18419   0.00000  Uiso   1.00
C250   C     0.56070   0.15403   0.19490   0.00000  Uiso   1.00
C251   C     0.25793   0.65420   0.18177   0.00000  Uiso   1.00
C252   C     0.29777   0.55492   0.19943   0.00000  Uiso   1.00
C253   C     0.33767   0.65401   0.21711   0.00000  Uiso   1.00
H254   H     0.21053   0.07528   0.16078   0.00000  Uiso   1.00
H255   H     0.22606   0.09316   0.09872   0.00000  Uiso   1.00
H256   H     0.60774   0.59313   0.18419   0.00000  Uiso   1.00
H257   H     0.29776   0.09311   0.19943   0.00000  Uiso   1.00
H258   H     0.24325   0.02853   0.02992   0.00000  Uiso   1.00
H259   H     0.49377   0.52848   0.21015   0.00000  Uiso   1.00
H260   H     0.39448   0.02845   0.24228   0.00000  Uiso   1.00
H261   H     0.21053   0.42461   0.16077   0.00000  Uiso   1.00
H262   H     0.22606   0.40678   0.09872   0.00000  Uiso   1.00
H263   H     0.60773   0.90676   0.18419   0.00000  Uiso   1.00
H264   H     0.29776   0.40675   0.19942   0.00000  Uiso   1.00
H265   H     0.24325   0.47145   0.02992   0.00000  Uiso   1.00
H266   H     0.49377   0.97140   0.21015   0.00000  Uiso   1.00
H267   H     0.39448   0.47137   0.24227   0.00000  Uiso   1.00
O268   O     0.25345   0.75000   0.98910   0.00000  Uiso   1.00
O269   O     0.42615   0.24993   0.22556   0.00000  Uiso   1.00
O270   O     0.45186   0.74990   0.26770   0.00000  Uiso   1.00
N271   N     0.24113   0.89987   0.03844   0.00000  Uiso   1.00
N272   N     0.50788   0.39982   0.20694   0.00000  Uiso   1.00
N273   N     0.38250   0.89980   0.23698   0.00000  Uiso   1.00
N274   N     0.24113   0.60011   0.03843   0.00000  Uiso   1.00
N275   N     0.50788   0.10006   0.20694   0.00000  Uiso   1.00
N276   N     0.38250   0.60003   0.23698   0.00000  Uiso   1.00
C277   C     0.28947   0.57379   0.66077   0.00000  Uiso   1.00
C278   C     0.28103   0.65430   0.62706   0.00000  Uiso   1.00
C279   C     0.27394   0.55503   0.59871   0.00000  Uiso   1.00
C280   C     0.26684   0.65411   0.57033   0.00000  Uiso   1.00
C281   C     0.25376   0.75000   0.51797   0.00000  Uiso   1.00
C282   C     0.84532   0.15432   0.67349   0.00000  Uiso   1.00
C283   C     0.89228   0.05504   0.68419   0.00000  Uiso   1.00
C284   C     0.93930   0.15415   0.69490   0.00000  Uiso   1.00
C285   C     0.02602   0.25007   0.71466   0.00000  Uiso   1.00
C286   C     0.24207   0.65432   0.68177   0.00000  Uiso   1.00
C287   C     0.20223   0.55506   0.69943   0.00000  Uiso   1.00
C288   C     0.16232   0.65417   0.71711   0.00000  Uiso   1.00
C289   C     0.08873   0.75008   0.74972   0.00000  Uiso   1.00
C290   C     0.28947   0.92631   0.66077   0.00000  Uiso   1.00
C291   C     0.28103   0.84578   0.62706   0.00000  Uiso   1.00
C292   C     0.27394   0.94505   0.59871   0.00000  Uiso   1.00
C293   C     0.26684   0.84593   0.57032   0.00000  Uiso   1.00
C294   C     0.84532   0.34579   0.67349   0.00000  Uiso   1.00
C295   C     0.89228   0.44507   0.68419   0.00000  Uiso   1.00
C296   C     0.93930   0.34597   0.69490   0.00000  Uiso   1.00
C297   C     0.24207   0.84580   0.68177   0.00000  Uiso   1.00
C298   C     0.20223   0.94508   0.69943   0.00000  Uiso   1.00
C299   C     0.16233   0.84599   0.71711   0.00000  Uiso   1.00
H300   H     0.28947   0.42472   0.66078   0.00000  Uiso   1.00
H301   H     0.27394   0.40684   0.59872   0.00000  Uiso   1.00
H302   H     0.89226   0.90687   0.68419   0.00000  Uiso   1.00
H303   H     0.20224   0.40689   0.69943   0.00000  Uiso   1.00
H304   H     0.25675   0.47147   0.52992   0.00000  Uiso   1.00
H305   H     0.00623   0.97152   0.71015   0.00000  Uiso   1.00
H306   H     0.10552   0.47155   0.74228   0.00000  Uiso   1.00
H307   H     0.28947   0.07539   0.66077   0.00000  Uiso   1.00
H308   H     0.27394   0.09322   0.59872   0.00000  Uiso   1.00
H309   H     0.89227   0.59324   0.68419   0.00000  Uiso   1.00
H310   H     0.20224   0.09325   0.69942   0.00000  Uiso   1.00
H311   H     0.25675   0.02855   0.52992   0.00000  Uiso   1.00
H312   H     0.00623   0.52860   0.71015   0.00000  Uiso   1.00
H313   H     0.10552   0.02863   0.74227   0.00000  Uiso   1.00
O314   O     0.24655   0.75000   0.48910   0.00000  Uiso   1.00
O315   O     0.07385   0.25007   0.72556   0.00000  Uiso   1.00
O316   O     0.04814   0.75010   0.76770   0.00000  Uiso   1.00
N317   N     0.25887   0.60013   0.53844   0.00000  Uiso   1.00
N318   N     0.99212   0.10018   0.70694   0.00000  Uiso   1.00
N319   N     0.11750   0.60020   0.73698   0.00000  Uiso   1.00
N320   N     0.25887   0.89989   0.53843   0.00000  Uiso   1.00
N321   N     0.99212   0.39994   0.70694   0.00000  Uiso   1.00
N322   N     0.11750   0.89997   0.73698   0.00000  Uiso   1.00
C323   C     0.78947   0.07379   0.66077   0.00000  Uiso   1.00
C324   C     0.78103   0.15430   0.62706   0.00000  Uiso   1.00
C325   C     0.77394   0.05503   0.59871   0.00000  Uiso   1.00
C326   C     0.76684   0.15411   0.57033   0.00000  Uiso   1.00
C327   C     0.75376   0.25000   0.51797   0.00000  Uiso   1.00
C328   C     0.34532   0.65432   0.67349   0.00000  Uiso   1.00
C329   C     0.39228   0.55504   0.68419   0.00000  Uiso   1.00
C330   C     0.43930   0.65415   0.69490   0.00000  Uiso   1.00
C331   C     0.52602   0.75007   0.71466   0.00000  Uiso   1.00
C332   C     0.74207   0.15432   0.68177   0.00000  Uiso   1.00
C333   C     0.70223   0.05506   0.69943   0.00000  Uiso   1.00
C334   C     0.66232   0.15417   0.71711   0.00000  Uiso   1.00
C335   C     0.58873   0.25008   0.74972   0.00000  Uiso   1.00
C336   C     0.78947   0.42631   0.66077   0.00000  Uiso   1.00
C337   C     0.78103   0.34578   0.62706   0.00000  Uiso   1.00
C338   C     0.77394   0.44505   0.59871   0.00000  Uiso   1.00
C339   C     0.76684   0.34593   0.57032   0.00000  Uiso   1.00
C340   C     0.34532   0.84579   0.67349   0.00000  Uiso   1.00
C341   C     0.39228   0.94507   0.68419   0.00000  Uiso   1.00
C342   C     0.43930   0.84597   0.69490   0.00000  Uiso   1.00
C343   C     0.74207   0.34580   0.68177   0.00000  Uiso   1.00
C344   C     0.70223   0.44508   0.69943   0.00000  Uiso   1.00
C345   C     0.66233   0.34599   0.71711   0.00000  Uiso   1.00
H346   H     0.78947   0.92472   0.66078   0.00000  Uiso   1.00
H347   H     0.77394   0.90684   0.59872   0.00000  Uiso   1.00
H348   H     0.39226   0.40687   0.68419   0.00000  Uiso   1.00
H349   H     0.70224   0.90689   0.69943   0.00000  Uiso   1.00
H350   H     0.75675   0.97147   0.52992   0.00000  Uiso   1.00
H351   H     0.50623   0.47152   0.71015   0.00000  Uiso   1.00
H352   H     0.60552   0.97155   0.74228   0.00000  Uiso   1.00
H353   H     0.78947   0.57539   0.66077   0.00000  Uiso   1.00
H354   H     0.77394   0.59322   0.59872   0.00000  Uiso   1.00
H355   H     0.39227   0.09324   0.68419   0.00000  Uiso   1.00
H356   H     0.70224   0.59325   0.69942   0.00000  Uiso   1.00
H357   H     0.75675   0.52855   0.52992   0.00000  Uiso   1.00
H358   H     0.50623   0.02860   0.71015   0.00000  Uiso   1.00
H359   H     0.60552   0.52863   0.74227   0.00000  Uiso   1.00
O360   O     0.74655   0.25000   0.48910   0.00000  Uiso   1.00
O361   O     0.57385   0.75007   0.72556   0.00000  Uiso   1.00
O362   O     0.54814   0.25010   0.76770   0.00000  Uiso   1.00
N363   N     0.75887   0.10013   0.53844   0.00000  Uiso   1.00
N364   N     0.49212   0.60018   0.70694   0.00000  Uiso   1.00
N365   N     0.61750   0.10020   0.73698   0.00000  Uiso   1.00
N366   N     0.75887   0.39989   0.53843   0.00000  Uiso   1.00
N367   N     0.49212   0.89994   0.70694   0.00000  Uiso   1.00
N368   N     0.61750   0.39997   0.73698   0.00000  Uiso   1.00
