data_job_01545
_audit_creation_date              2018-12-19
_audit_creation_method            'Materials Studio'
_symmetry_space_group_name_H-M    'P1'
_symmetry_Int_Tables_number       1
_symmetry_cell_setting            triclinic
loop_
_symmetry_equiv_pos_as_xyz
  x,y,z
_cell_length_a                    15.1321
_cell_length_b                    20.4199
_cell_length_c                    17.0505
_cell_angle_alpha                 90.0000
_cell_angle_beta                  90.0000
_cell_angle_gamma                 90.0000
loop_
_atom_site_label
_atom_site_type_symbol
_atom_site_fract_x
_atom_site_fract_y
_atom_site_fract_z
_atom_site_U_iso_or_equiv
_atom_site_adp_type
_atom_site_occupancy
C1     C     0.69934   0.44423   0.25595   0.00000  Uiso   1.00
C2     C     0.75245   0.50051   0.29107   0.00000  Uiso   1.00
C3     C     0.76329   0.56202   0.25782   0.00000  Uiso   1.00
C4     C     0.81436   0.60674   0.29914   0.00000  Uiso   1.00
C5     C     0.89096   0.69661   0.34270   0.00000  Uiso   1.00
C6     C     0.76304   0.38660   0.24965   0.00000  Uiso   1.00
C7     C     0.78276   0.35232   0.18158   0.00000  Uiso   1.00
C8     C     0.84273   0.30114   0.18804   0.00000  Uiso   1.00
C9     C     0.93571   0.21412   0.16730   0.00000  Uiso   1.00
C10    C     0.63149   0.42504   0.31795   0.00000  Uiso   1.00
C11    C     0.54060   0.42307   0.30730   0.00000  Uiso   1.00
C12    C     0.48981   0.40425   0.37127   0.00000  Uiso   1.00
C13    C     0.37855   0.37691   0.45658   0.00000  Uiso   1.00
C14    C     0.77076   0.41427   0.38847   0.00000  Uiso   1.00
C15    C     0.79125   0.48424   0.36305   0.00000  Uiso   1.00
C16    C     0.84231   0.52888   0.40444   0.00000  Uiso   1.00
C17    C     0.85322   0.59045   0.37125   0.00000  Uiso   1.00
C18    C     0.80183   0.37032   0.32163   0.00000  Uiso   1.00
C19    C     0.86178   0.31918   0.32819   0.00000  Uiso   1.00
C20    C     0.88159   0.28484   0.26015   0.00000  Uiso   1.00
C21    C     0.67028   0.40877   0.38993   0.00000  Uiso   1.00
C22    C     0.61962   0.38994   0.45392   0.00000  Uiso   1.00
C23    C     0.52868   0.38795   0.44338   0.00000  Uiso   1.00
H24    H     0.66914   0.45689   0.19991   0.00000  Uiso   1.00
H25    H     0.73327   0.57459   0.20211   0.00000  Uiso   1.00
H26    H     0.75272   0.36492   0.12588   0.00000  Uiso   1.00
H27    H     0.51061   0.43567   0.25159   0.00000  Uiso   1.00
H28    H     0.82149   0.69790   0.23627   0.00000  Uiso   1.00
H29    H     0.86250   0.25579   0.07555   0.00000  Uiso   1.00
H30    H     0.35194   0.40497   0.34063   0.00000  Uiso   1.00
H31    H     0.80097   0.40160   0.44451   0.00000  Uiso   1.00
H32    H     0.87232   0.51628   0.46014   0.00000  Uiso   1.00
H33    H     0.89178   0.30660   0.38391   0.00000  Uiso   1.00
H34    H     0.64966   0.37735   0.50962   0.00000  Uiso   1.00
H35    H     0.93436   0.65057   0.44570   0.00000  Uiso   1.00
H36    H     0.97536   0.20845   0.28497   0.00000  Uiso   1.00
H37    H     0.46481   0.35763   0.55005   0.00000  Uiso   1.00
O38    O     0.92251   0.75066   0.34684   0.00000  Uiso   1.00
O39    O     0.97629   0.17061   0.13597   0.00000  Uiso   1.00
O40    O     0.30646   0.36634   0.48376   0.00000  Uiso   1.00
N41    N     0.83825   0.67103   0.28343   0.00000  Uiso   1.00
N42    N     0.87659   0.25768   0.13316   0.00000  Uiso   1.00
N43    N     0.39927   0.39714   0.38098   0.00000  Uiso   1.00
N44    N     0.89898   0.64556   0.39611   0.00000  Uiso   1.00
N45    N     0.93733   0.23222   0.24584   0.00000  Uiso   1.00
N46    N     0.46000   0.37167   0.49367   0.00000  Uiso   1.00
C47    C     0.19934   0.94423   0.25595   0.00000  Uiso   1.00
C48    C     0.25245   0.00051   0.29107   0.00000  Uiso   1.00
C49    C     0.26329   0.06202   0.25782   0.00000  Uiso   1.00
C50    C     0.31436   0.10674   0.29914   0.00000  Uiso   1.00
C51    C     0.39096   0.19661   0.34270   0.00000  Uiso   1.00
C52    C     0.26304   0.88660   0.24965   0.00000  Uiso   1.00
C53    C     0.28276   0.85232   0.18158   0.00000  Uiso   1.00
C54    C     0.34273   0.80114   0.18804   0.00000  Uiso   1.00
C55    C     0.43571   0.71412   0.16730   0.00000  Uiso   1.00
C56    C     0.13149   0.92504   0.31795   0.00000  Uiso   1.00
C57    C     0.04060   0.92307   0.30730   0.00000  Uiso   1.00
C58    C     0.98981   0.90425   0.37127   0.00000  Uiso   1.00
C59    C     0.87855   0.87691   0.45658   0.00000  Uiso   1.00
C60    C     0.27076   0.91427   0.38847   0.00000  Uiso   1.00
C61    C     0.29125   0.98424   0.36305   0.00000  Uiso   1.00
C62    C     0.34231   0.02888   0.40444   0.00000  Uiso   1.00
C63    C     0.35322   0.09045   0.37125   0.00000  Uiso   1.00
C64    C     0.30183   0.87032   0.32163   0.00000  Uiso   1.00
C65    C     0.36178   0.81918   0.32819   0.00000  Uiso   1.00
C66    C     0.38159   0.78484   0.26015   0.00000  Uiso   1.00
C67    C     0.17028   0.90877   0.38993   0.00000  Uiso   1.00
C68    C     0.11962   0.88994   0.45392   0.00000  Uiso   1.00
C69    C     0.02868   0.88795   0.44338   0.00000  Uiso   1.00
H70    H     0.16914   0.95689   0.19991   0.00000  Uiso   1.00
H71    H     0.23327   0.07459   0.20211   0.00000  Uiso   1.00
H72    H     0.25272   0.86492   0.12588   0.00000  Uiso   1.00
H73    H     0.01061   0.93567   0.25159   0.00000  Uiso   1.00
H74    H     0.32149   0.19790   0.23627   0.00000  Uiso   1.00
H75    H     0.36250   0.75579   0.07555   0.00000  Uiso   1.00
H76    H     0.85194   0.90497   0.34063   0.00000  Uiso   1.00
H77    H     0.30097   0.90160   0.44451   0.00000  Uiso   1.00
H78    H     0.37232   0.01628   0.46014   0.00000  Uiso   1.00
H79    H     0.39178   0.80660   0.38391   0.00000  Uiso   1.00
H80    H     0.14966   0.87735   0.50962   0.00000  Uiso   1.00
H81    H     0.43436   0.15057   0.44570   0.00000  Uiso   1.00
H82    H     0.47536   0.70845   0.28497   0.00000  Uiso   1.00
H83    H     0.96481   0.85763   0.55005   0.00000  Uiso   1.00
O84    O     0.42251   0.25066   0.34684   0.00000  Uiso   1.00
O85    O     0.47629   0.67061   0.13597   0.00000  Uiso   1.00
O86    O     0.80646   0.86634   0.48376   0.00000  Uiso   1.00
N87    N     0.33825   0.17103   0.28343   0.00000  Uiso   1.00
N88    N     0.37659   0.75768   0.13316   0.00000  Uiso   1.00
N89    N     0.89927   0.89714   0.38098   0.00000  Uiso   1.00
N90    N     0.39898   0.14556   0.39611   0.00000  Uiso   1.00
N91    N     0.43733   0.73222   0.24584   0.00000  Uiso   1.00
N92    N     0.96000   0.87167   0.49367   0.00000  Uiso   1.00
C93    C     0.30066   0.55577   0.25595   0.00000  Uiso   1.00
C94    C     0.24755   0.49949   0.29107   0.00000  Uiso   1.00
C95    C     0.23671   0.43798   0.25782   0.00000  Uiso   1.00
C96    C     0.18564   0.39326   0.29914   0.00000  Uiso   1.00
C97    C     0.10904   0.30339   0.34270   0.00000  Uiso   1.00
C98    C     0.23696   0.61340   0.24965   0.00000  Uiso   1.00
C99    C     0.21724   0.64768   0.18158   0.00000  Uiso   1.00
C100   C     0.15727   0.69886   0.18804   0.00000  Uiso   1.00
C101   C     0.06429   0.78588   0.16730   0.00000  Uiso   1.00
C102   C     0.36851   0.57496   0.31795   0.00000  Uiso   1.00
C103   C     0.45940   0.57693   0.30730   0.00000  Uiso   1.00
C104   C     0.51019   0.59575   0.37127   0.00000  Uiso   1.00
C105   C     0.62145   0.62309   0.45658   0.00000  Uiso   1.00
C106   C     0.22924   0.58573   0.38847   0.00000  Uiso   1.00
C107   C     0.20875   0.51576   0.36305   0.00000  Uiso   1.00
C108   C     0.15769   0.47112   0.40444   0.00000  Uiso   1.00
C109   C     0.14678   0.40955   0.37125   0.00000  Uiso   1.00
C110   C     0.19817   0.62968   0.32163   0.00000  Uiso   1.00
C111   C     0.13822   0.68082   0.32819   0.00000  Uiso   1.00
C112   C     0.11841   0.71516   0.26015   0.00000  Uiso   1.00
C113   C     0.32972   0.59123   0.38993   0.00000  Uiso   1.00
C114   C     0.38038   0.61006   0.45392   0.00000  Uiso   1.00
C115   C     0.47132   0.61205   0.44338   0.00000  Uiso   1.00
H116   H     0.33086   0.54311   0.19991   0.00000  Uiso   1.00
H117   H     0.26673   0.42541   0.20211   0.00000  Uiso   1.00
H118   H     0.24728   0.63508   0.12588   0.00000  Uiso   1.00
H119   H     0.48939   0.56433   0.25159   0.00000  Uiso   1.00
H120   H     0.17851   0.30210   0.23627   0.00000  Uiso   1.00
H121   H     0.13750   0.74421   0.07555   0.00000  Uiso   1.00
H122   H     0.64806   0.59503   0.34063   0.00000  Uiso   1.00
H123   H     0.19903   0.59840   0.44451   0.00000  Uiso   1.00
H124   H     0.12768   0.48372   0.46014   0.00000  Uiso   1.00
H125   H     0.10822   0.69340   0.38391   0.00000  Uiso   1.00
H126   H     0.35034   0.62265   0.50962   0.00000  Uiso   1.00
H127   H     0.06564   0.34943   0.44570   0.00000  Uiso   1.00
H128   H     0.02464   0.79155   0.28497   0.00000  Uiso   1.00
H129   H     0.53519   0.64237   0.55005   0.00000  Uiso   1.00
O130   O     0.07749   0.24934   0.34684   0.00000  Uiso   1.00
O131   O     0.02371   0.82939   0.13597   0.00000  Uiso   1.00
O132   O     0.69354   0.63366   0.48376   0.00000  Uiso   1.00
N133   N     0.16175   0.32897   0.28343   0.00000  Uiso   1.00
N134   N     0.12341   0.74232   0.13316   0.00000  Uiso   1.00
N135   N     0.60073   0.60286   0.38098   0.00000  Uiso   1.00
N136   N     0.10102   0.35444   0.39611   0.00000  Uiso   1.00
N137   N     0.06267   0.76778   0.24584   0.00000  Uiso   1.00
N138   N     0.54000   0.62833   0.49367   0.00000  Uiso   1.00
C139   C     0.80066   0.05577   0.25595   0.00000  Uiso   1.00
C140   C     0.74755   0.99949   0.29107   0.00000  Uiso   1.00
C141   C     0.73671   0.93798   0.25782   0.00000  Uiso   1.00
C142   C     0.68564   0.89326   0.29914   0.00000  Uiso   1.00
C143   C     0.60904   0.80339   0.34270   0.00000  Uiso   1.00
C144   C     0.73696   0.11340   0.24965   0.00000  Uiso   1.00
C145   C     0.71724   0.14768   0.18158   0.00000  Uiso   1.00
C146   C     0.65727   0.19886   0.18804   0.00000  Uiso   1.00
C147   C     0.56429   0.28588   0.16730   0.00000  Uiso   1.00
C148   C     0.86851   0.07496   0.31795   0.00000  Uiso   1.00
C149   C     0.95940   0.07693   0.30730   0.00000  Uiso   1.00
C150   C     0.01019   0.09575   0.37127   0.00000  Uiso   1.00
C151   C     0.12145   0.12309   0.45658   0.00000  Uiso   1.00
C152   C     0.72924   0.08573   0.38847   0.00000  Uiso   1.00
C153   C     0.70875   0.01576   0.36305   0.00000  Uiso   1.00
C154   C     0.65769   0.97112   0.40444   0.00000  Uiso   1.00
C155   C     0.64678   0.90955   0.37125   0.00000  Uiso   1.00
C156   C     0.69817   0.12968   0.32163   0.00000  Uiso   1.00
C157   C     0.63822   0.18082   0.32819   0.00000  Uiso   1.00
C158   C     0.61841   0.21516   0.26015   0.00000  Uiso   1.00
C159   C     0.82972   0.09123   0.38993   0.00000  Uiso   1.00
C160   C     0.88038   0.11006   0.45392   0.00000  Uiso   1.00
C161   C     0.97132   0.11205   0.44338   0.00000  Uiso   1.00
H162   H     0.83086   0.04311   0.19991   0.00000  Uiso   1.00
H163   H     0.76673   0.92541   0.20211   0.00000  Uiso   1.00
H164   H     0.74728   0.13508   0.12588   0.00000  Uiso   1.00
H165   H     0.98939   0.06433   0.25159   0.00000  Uiso   1.00
H166   H     0.67851   0.80210   0.23627   0.00000  Uiso   1.00
H167   H     0.63750   0.24421   0.07555   0.00000  Uiso   1.00
H168   H     0.14806   0.09503   0.34063   0.00000  Uiso   1.00
H169   H     0.69903   0.09840   0.44451   0.00000  Uiso   1.00
H170   H     0.62768   0.98372   0.46014   0.00000  Uiso   1.00
H171   H     0.60822   0.19340   0.38391   0.00000  Uiso   1.00
H172   H     0.85034   0.12265   0.50962   0.00000  Uiso   1.00
H173   H     0.56564   0.84943   0.44570   0.00000  Uiso   1.00
H174   H     0.52464   0.29155   0.28497   0.00000  Uiso   1.00
H175   H     0.03519   0.14237   0.55005   0.00000  Uiso   1.00
O176   O     0.57749   0.74934   0.34684   0.00000  Uiso   1.00
O177   O     0.52371   0.32939   0.13597   0.00000  Uiso   1.00
O178   O     0.19354   0.13366   0.48376   0.00000  Uiso   1.00
N179   N     0.66175   0.82897   0.28343   0.00000  Uiso   1.00
N180   N     0.62341   0.24232   0.13316   0.00000  Uiso   1.00
N181   N     0.10073   0.10286   0.38098   0.00000  Uiso   1.00
N182   N     0.60102   0.85444   0.39611   0.00000  Uiso   1.00
N183   N     0.56267   0.26778   0.24584   0.00000  Uiso   1.00
N184   N     0.04000   0.12833   0.49367   0.00000  Uiso   1.00
C185   C     0.69934   0.55577   0.75595   0.00000  Uiso   1.00
C186   C     0.75245   0.49949   0.79107   0.00000  Uiso   1.00
C187   C     0.76329   0.43798   0.75782   0.00000  Uiso   1.00
C188   C     0.81436   0.39326   0.79914   0.00000  Uiso   1.00
C189   C     0.89096   0.30339   0.84270   0.00000  Uiso   1.00
C190   C     0.76304   0.61340   0.74965   0.00000  Uiso   1.00
C191   C     0.78276   0.64768   0.68158   0.00000  Uiso   1.00
C192   C     0.84273   0.69886   0.68804   0.00000  Uiso   1.00
C193   C     0.93571   0.78588   0.66730   0.00000  Uiso   1.00
C194   C     0.63149   0.57496   0.81795   0.00000  Uiso   1.00
C195   C     0.54060   0.57693   0.80730   0.00000  Uiso   1.00
C196   C     0.48981   0.59575   0.87127   0.00000  Uiso   1.00
C197   C     0.37855   0.62309   0.95658   0.00000  Uiso   1.00
C198   C     0.77076   0.58573   0.88847   0.00000  Uiso   1.00
C199   C     0.79125   0.51576   0.86305   0.00000  Uiso   1.00
C200   C     0.84231   0.47112   0.90444   0.00000  Uiso   1.00
C201   C     0.85322   0.40955   0.87125   0.00000  Uiso   1.00
C202   C     0.80183   0.62968   0.82163   0.00000  Uiso   1.00
C203   C     0.86178   0.68082   0.82819   0.00000  Uiso   1.00
C204   C     0.88159   0.71516   0.76015   0.00000  Uiso   1.00
C205   C     0.67028   0.59123   0.88993   0.00000  Uiso   1.00
C206   C     0.61962   0.61006   0.95392   0.00000  Uiso   1.00
C207   C     0.52868   0.61205   0.94338   0.00000  Uiso   1.00
H208   H     0.66914   0.54311   0.69991   0.00000  Uiso   1.00
H209   H     0.73327   0.42541   0.70211   0.00000  Uiso   1.00
H210   H     0.75272   0.63508   0.62588   0.00000  Uiso   1.00
H211   H     0.51061   0.56433   0.75159   0.00000  Uiso   1.00
H212   H     0.82149   0.30210   0.73627   0.00000  Uiso   1.00
H213   H     0.86250   0.74421   0.57555   0.00000  Uiso   1.00
H214   H     0.35194   0.59503   0.84063   0.00000  Uiso   1.00
H215   H     0.80097   0.59840   0.94451   0.00000  Uiso   1.00
H216   H     0.87232   0.48372   0.96014   0.00000  Uiso   1.00
H217   H     0.89178   0.69340   0.88391   0.00000  Uiso   1.00
H218   H     0.64966   0.62265   0.00962   0.00000  Uiso   1.00
H219   H     0.93436   0.34943   0.94570   0.00000  Uiso   1.00
H220   H     0.97536   0.79155   0.78497   0.00000  Uiso   1.00
H221   H     0.46481   0.64237   0.05005   0.00000  Uiso   1.00
O222   O     0.92251   0.24934   0.84684   0.00000  Uiso   1.00
O223   O     0.97629   0.82939   0.63597   0.00000  Uiso   1.00
O224   O     0.30646   0.63366   0.98376   0.00000  Uiso   1.00
N225   N     0.83825   0.32897   0.78343   0.00000  Uiso   1.00
N226   N     0.87659   0.74232   0.63316   0.00000  Uiso   1.00
N227   N     0.39927   0.60286   0.88098   0.00000  Uiso   1.00
N228   N     0.89898   0.35444   0.89611   0.00000  Uiso   1.00
N229   N     0.93733   0.76778   0.74584   0.00000  Uiso   1.00
N230   N     0.46000   0.62833   0.99367   0.00000  Uiso   1.00
C231   C     0.19934   0.05577   0.75595   0.00000  Uiso   1.00
C232   C     0.25245   0.99949   0.79107   0.00000  Uiso   1.00
C233   C     0.26329   0.93798   0.75782   0.00000  Uiso   1.00
C234   C     0.31436   0.89326   0.79914   0.00000  Uiso   1.00
C235   C     0.39096   0.80339   0.84270   0.00000  Uiso   1.00
C236   C     0.26304   0.11340   0.74965   0.00000  Uiso   1.00
C237   C     0.28276   0.14768   0.68158   0.00000  Uiso   1.00
C238   C     0.34273   0.19886   0.68804   0.00000  Uiso   1.00
C239   C     0.43571   0.28588   0.66730   0.00000  Uiso   1.00
C240   C     0.13149   0.07496   0.81795   0.00000  Uiso   1.00
C241   C     0.04060   0.07693   0.80730   0.00000  Uiso   1.00
C242   C     0.98981   0.09575   0.87127   0.00000  Uiso   1.00
C243   C     0.87855   0.12309   0.95658   0.00000  Uiso   1.00
C244   C     0.27076   0.08573   0.88847   0.00000  Uiso   1.00
C245   C     0.29125   0.01576   0.86305   0.00000  Uiso   1.00
C246   C     0.34231   0.97112   0.90444   0.00000  Uiso   1.00
C247   C     0.35322   0.90955   0.87125   0.00000  Uiso   1.00
C248   C     0.30183   0.12968   0.82163   0.00000  Uiso   1.00
C249   C     0.36178   0.18082   0.82819   0.00000  Uiso   1.00
C250   C     0.38159   0.21516   0.76015   0.00000  Uiso   1.00
C251   C     0.17028   0.09123   0.88993   0.00000  Uiso   1.00
C252   C     0.11962   0.11006   0.95392   0.00000  Uiso   1.00
C253   C     0.02868   0.11205   0.94338   0.00000  Uiso   1.00
H254   H     0.16914   0.04311   0.69991   0.00000  Uiso   1.00
H255   H     0.23327   0.92541   0.70211   0.00000  Uiso   1.00
H256   H     0.25272   0.13508   0.62588   0.00000  Uiso   1.00
H257   H     0.01061   0.06433   0.75159   0.00000  Uiso   1.00
H258   H     0.32149   0.80210   0.73627   0.00000  Uiso   1.00
H259   H     0.36250   0.24421   0.57555   0.00000  Uiso   1.00
H260   H     0.85194   0.09503   0.84063   0.00000  Uiso   1.00
H261   H     0.30097   0.09840   0.94451   0.00000  Uiso   1.00
H262   H     0.37232   0.98372   0.96014   0.00000  Uiso   1.00
H263   H     0.39178   0.19340   0.88391   0.00000  Uiso   1.00
H264   H     0.14966   0.12265   0.00962   0.00000  Uiso   1.00
H265   H     0.43436   0.84943   0.94570   0.00000  Uiso   1.00
H266   H     0.47536   0.29155   0.78497   0.00000  Uiso   1.00
H267   H     0.96481   0.14237   0.05005   0.00000  Uiso   1.00
O268   O     0.42251   0.74934   0.84684   0.00000  Uiso   1.00
O269   O     0.47629   0.32939   0.63597   0.00000  Uiso   1.00
O270   O     0.80646   0.13366   0.98376   0.00000  Uiso   1.00
N271   N     0.33825   0.82897   0.78343   0.00000  Uiso   1.00
N272   N     0.37659   0.24232   0.63316   0.00000  Uiso   1.00
N273   N     0.89927   0.10286   0.88098   0.00000  Uiso   1.00
N274   N     0.39898   0.85444   0.89611   0.00000  Uiso   1.00
N275   N     0.43733   0.26778   0.74584   0.00000  Uiso   1.00
N276   N     0.96000   0.12833   0.99367   0.00000  Uiso   1.00
C277   C     0.30066   0.44423   0.75595   0.00000  Uiso   1.00
C278   C     0.24755   0.50051   0.79107   0.00000  Uiso   1.00
C279   C     0.23671   0.56202   0.75782   0.00000  Uiso   1.00
C280   C     0.18564   0.60674   0.79914   0.00000  Uiso   1.00
C281   C     0.10904   0.69661   0.84270   0.00000  Uiso   1.00
C282   C     0.23696   0.38660   0.74965   0.00000  Uiso   1.00
C283   C     0.21724   0.35232   0.68158   0.00000  Uiso   1.00
C284   C     0.15727   0.30114   0.68804   0.00000  Uiso   1.00
C285   C     0.06429   0.21412   0.66730   0.00000  Uiso   1.00
C286   C     0.36851   0.42504   0.81795   0.00000  Uiso   1.00
C287   C     0.45940   0.42307   0.80730   0.00000  Uiso   1.00
C288   C     0.51019   0.40425   0.87127   0.00000  Uiso   1.00
C289   C     0.62145   0.37691   0.95658   0.00000  Uiso   1.00
C290   C     0.22924   0.41427   0.88847   0.00000  Uiso   1.00
C291   C     0.20875   0.48424   0.86305   0.00000  Uiso   1.00
C292   C     0.15769   0.52888   0.90444   0.00000  Uiso   1.00
C293   C     0.14678   0.59045   0.87125   0.00000  Uiso   1.00
C294   C     0.19817   0.37032   0.82163   0.00000  Uiso   1.00
C295   C     0.13822   0.31918   0.82819   0.00000  Uiso   1.00
C296   C     0.11841   0.28484   0.76015   0.00000  Uiso   1.00
C297   C     0.32972   0.40877   0.88993   0.00000  Uiso   1.00
C298   C     0.38038   0.38994   0.95392   0.00000  Uiso   1.00
C299   C     0.47132   0.38795   0.94338   0.00000  Uiso   1.00
H300   H     0.33086   0.45689   0.69991   0.00000  Uiso   1.00
H301   H     0.26673   0.57459   0.70211   0.00000  Uiso   1.00
H302   H     0.24728   0.36492   0.62588   0.00000  Uiso   1.00
H303   H     0.48939   0.43567   0.75159   0.00000  Uiso   1.00
H304   H     0.17851   0.69790   0.73627   0.00000  Uiso   1.00
H305   H     0.13750   0.25579   0.57555   0.00000  Uiso   1.00
H306   H     0.64806   0.40497   0.84063   0.00000  Uiso   1.00
H307   H     0.19903   0.40160   0.94451   0.00000  Uiso   1.00
H308   H     0.12768   0.51628   0.96014   0.00000  Uiso   1.00
H309   H     0.10822   0.30660   0.88391   0.00000  Uiso   1.00
H310   H     0.35034   0.37735   0.00962   0.00000  Uiso   1.00
H311   H     0.06564   0.65057   0.94570   0.00000  Uiso   1.00
H312   H     0.02464   0.20845   0.78497   0.00000  Uiso   1.00
H313   H     0.53519   0.35763   0.05005   0.00000  Uiso   1.00
O314   O     0.07749   0.75066   0.84684   0.00000  Uiso   1.00
O315   O     0.02371   0.17061   0.63597   0.00000  Uiso   1.00
O316   O     0.69354   0.36634   0.98376   0.00000  Uiso   1.00
N317   N     0.16175   0.67103   0.78343   0.00000  Uiso   1.00
N318   N     0.12341   0.25768   0.63316   0.00000  Uiso   1.00
N319   N     0.60073   0.39714   0.88098   0.00000  Uiso   1.00
N320   N     0.10102   0.64556   0.89611   0.00000  Uiso   1.00
N321   N     0.06267   0.23222   0.74584   0.00000  Uiso   1.00
N322   N     0.54000   0.37167   0.99367   0.00000  Uiso   1.00
C323   C     0.80066   0.94423   0.75595   0.00000  Uiso   1.00
C324   C     0.74755   0.00051   0.79107   0.00000  Uiso   1.00
C325   C     0.73671   0.06202   0.75782   0.00000  Uiso   1.00
C326   C     0.68564   0.10674   0.79914   0.00000  Uiso   1.00
C327   C     0.60904   0.19661   0.84270   0.00000  Uiso   1.00
C328   C     0.73696   0.88660   0.74965   0.00000  Uiso   1.00
C329   C     0.71724   0.85232   0.68158   0.00000  Uiso   1.00
C330   C     0.65727   0.80114   0.68804   0.00000  Uiso   1.00
C331   C     0.56429   0.71412   0.66730   0.00000  Uiso   1.00
C332   C     0.86851   0.92504   0.81795   0.00000  Uiso   1.00
C333   C     0.95940   0.92307   0.80730   0.00000  Uiso   1.00
C334   C     0.01019   0.90425   0.87127   0.00000  Uiso   1.00
C335   C     0.12145   0.87691   0.95658   0.00000  Uiso   1.00
C336   C     0.72924   0.91427   0.88847   0.00000  Uiso   1.00
C337   C     0.70875   0.98424   0.86305   0.00000  Uiso   1.00
C338   C     0.65769   0.02888   0.90444   0.00000  Uiso   1.00
C339   C     0.64678   0.09045   0.87125   0.00000  Uiso   1.00
C340   C     0.69817   0.87032   0.82163   0.00000  Uiso   1.00
C341   C     0.63822   0.81918   0.82819   0.00000  Uiso   1.00
C342   C     0.61841   0.78484   0.76015   0.00000  Uiso   1.00
C343   C     0.82972   0.90877   0.88993   0.00000  Uiso   1.00
C344   C     0.88038   0.88994   0.95392   0.00000  Uiso   1.00
C345   C     0.97132   0.88795   0.94338   0.00000  Uiso   1.00
H346   H     0.83086   0.95689   0.69991   0.00000  Uiso   1.00
H347   H     0.76673   0.07459   0.70211   0.00000  Uiso   1.00
H348   H     0.74728   0.86492   0.62588   0.00000  Uiso   1.00
H349   H     0.98939   0.93567   0.75159   0.00000  Uiso   1.00
H350   H     0.67851   0.19790   0.73627   0.00000  Uiso   1.00
H351   H     0.63750   0.75579   0.57555   0.00000  Uiso   1.00
H352   H     0.14806   0.90497   0.84063   0.00000  Uiso   1.00
H353   H     0.69903   0.90160   0.94451   0.00000  Uiso   1.00
H354   H     0.62768   0.01628   0.96014   0.00000  Uiso   1.00
H355   H     0.60822   0.80660   0.88391   0.00000  Uiso   1.00
H356   H     0.85034   0.87735   0.00962   0.00000  Uiso   1.00
H357   H     0.56564   0.15057   0.94570   0.00000  Uiso   1.00
H358   H     0.52464   0.70845   0.78497   0.00000  Uiso   1.00
H359   H     0.03519   0.85763   0.05005   0.00000  Uiso   1.00
O360   O     0.57749   0.25066   0.84684   0.00000  Uiso   1.00
O361   O     0.52371   0.67061   0.63597   0.00000  Uiso   1.00
O362   O     0.19354   0.86634   0.98376   0.00000  Uiso   1.00
N363   N     0.66175   0.17103   0.78343   0.00000  Uiso   1.00
N364   N     0.62341   0.75768   0.63316   0.00000  Uiso   1.00
N365   N     0.10073   0.89714   0.88098   0.00000  Uiso   1.00
N366   N     0.60102   0.14556   0.89611   0.00000  Uiso   1.00
N367   N     0.56267   0.73222   0.74584   0.00000  Uiso   1.00
N368   N     0.04000   0.87167   0.99367   0.00000  Uiso   1.00
