data_job_00419
_audit_creation_date              2018-12-19
_audit_creation_method            'Materials Studio'
_symmetry_space_group_name_H-M    'P1'
_symmetry_Int_Tables_number       1
_symmetry_cell_setting            triclinic
loop_
_symmetry_equiv_pos_as_xyz
  x,y,z
_cell_length_a                    27.9411
_cell_length_b                    11.3560
_cell_length_c                    15.9930
_cell_angle_alpha                 90.0000
_cell_angle_beta                  90.0000
_cell_angle_gamma                 90.0000
loop_
_atom_site_label
_atom_site_type_symbol
_atom_site_fract_x
_atom_site_fract_y
_atom_site_fract_z
_atom_site_U_iso_or_equiv
_atom_site_adp_type
_atom_site_occupancy
C1     C     0.36433   0.75631   0.92926   0.00000  Uiso   1.00
C2     C     0.41819   0.74537   0.94250   0.00000  Uiso   1.00
C3     C     0.45048   0.69683   0.88628   0.00000  Uiso   1.00
C4     C     0.49826   0.69498   0.91006   0.00000  Uiso   1.00
C5     C     0.57963   0.67108   0.91888   0.00000  Uiso   1.00
C6     C     0.34101   0.69379   0.00316   0.00000  Uiso   1.00
C7     C     0.30839   0.60191   0.99795   0.00000  Uiso   1.00
C8     C     0.29120   0.55665   0.07280   0.00000  Uiso   1.00
C9     C     0.25271   0.45274   0.17580   0.00000  Uiso   1.00
C10    C     0.35259   0.88664   0.93956   0.00000  Uiso   1.00
C11    C     0.32970   0.95689   0.88089   0.00000  Uiso   1.00
C12    C     0.32225   0.07399   0.90220   0.00000  Uiso   1.00
C13    C     0.30174   0.26950   0.90645   0.00000  Uiso   1.00
C14    C     0.39177   0.83933   0.07144   0.00000  Uiso   1.00
C15    C     0.43310   0.79046   0.01973   0.00000  Uiso   1.00
C16    C     0.48085   0.78869   0.04359   0.00000  Uiso   1.00
C17    C     0.51320   0.74016   0.98742   0.00000  Uiso   1.00
C18    C     0.35591   0.73888   0.08039   0.00000  Uiso   1.00
C19    C     0.33876   0.69376   0.15526   0.00000  Uiso   1.00
C20    C     0.30613   0.60182   0.15017   0.00000  Uiso   1.00
C21    C     0.36750   0.93173   0.01679   0.00000  Uiso   1.00
C22    C     0.36007   0.04875   0.03819   0.00000  Uiso   1.00
C23    C     0.33718   0.11917   0.97956   0.00000  Uiso   1.00
H24    H     0.35272   0.72120   0.86914   0.00000  Uiso   1.00
H25    H     0.43893   0.66193   0.82653   0.00000  Uiso   1.00
H26    H     0.29686   0.56704   0.93818   0.00000  Uiso   1.00
H27    H     0.31817   0.92197   0.82113   0.00000  Uiso   1.00
H28    H     0.54108   0.61608   0.81336   0.00000  Uiso   1.00
H29    H     0.24151   0.41601   0.04878   0.00000  Uiso   1.00
H30    H     0.28644   0.16445   0.80196   0.00000  Uiso   1.00
H31    H     0.40338   0.87444   0.13157   0.00000  Uiso   1.00
H32    H     0.49237   0.82359   0.10336   0.00000  Uiso   1.00
H33    H     0.35030   0.72868   0.21501   0.00000  Uiso   1.00
H34    H     0.37161   0.08361   0.09796   0.00000  Uiso   1.00
H35    H     0.58446   0.74728   0.03804   0.00000  Uiso   1.00
H36    H     0.28489   0.54721   0.27347   0.00000  Uiso   1.00
H37    H     0.32982   0.29564   0.02665   0.00000  Uiso   1.00
O38    O     0.62039   0.64543   0.90242   0.00000  Uiso   1.00
O39    O     0.22736   0.38296   0.21128   0.00000  Uiso   1.00
O40    O     0.28632   0.36489   0.88746   0.00000  Uiso   1.00
N41    N     0.53908   0.65396   0.87010   0.00000  Uiso   1.00
N42    N     0.25900   0.46689   0.09021   0.00000  Uiso   1.00
N43    N     0.30100   0.16661   0.85946   0.00000  Uiso   1.00
N44    N     0.56242   0.72456   0.99100   0.00000  Uiso   1.00
N45    N     0.28234   0.53749   0.21111   0.00000  Uiso   1.00
N46    N     0.32434   0.23721   0.98036   0.00000  Uiso   1.00
C47    C     0.13567   0.74369   0.42926   0.00000  Uiso   1.00
C48    C     0.08181   0.75463   0.44250   0.00000  Uiso   1.00
C49    C     0.04952   0.80317   0.38628   0.00000  Uiso   1.00
C50    C     0.00174   0.80502   0.41006   0.00000  Uiso   1.00
C51    C     0.92037   0.82892   0.41888   0.00000  Uiso   1.00
C52    C     0.15899   0.80621   0.50316   0.00000  Uiso   1.00
C53    C     0.19161   0.89809   0.49795   0.00000  Uiso   1.00
C54    C     0.20880   0.94335   0.57280   0.00000  Uiso   1.00
C55    C     0.24729   0.04726   0.67580   0.00000  Uiso   1.00
C56    C     0.14741   0.61336   0.43956   0.00000  Uiso   1.00
C57    C     0.17030   0.54311   0.38089   0.00000  Uiso   1.00
C58    C     0.17775   0.42601   0.40220   0.00000  Uiso   1.00
C59    C     0.19826   0.23050   0.40645   0.00000  Uiso   1.00
C60    C     0.10823   0.66067   0.57144   0.00000  Uiso   1.00
C61    C     0.06690   0.70954   0.51973   0.00000  Uiso   1.00
C62    C     0.01915   0.71131   0.54359   0.00000  Uiso   1.00
C63    C     0.98680   0.75984   0.48742   0.00000  Uiso   1.00
C64    C     0.14409   0.76112   0.58039   0.00000  Uiso   1.00
C65    C     0.16124   0.80624   0.65526   0.00000  Uiso   1.00
C66    C     0.19387   0.89818   0.65017   0.00000  Uiso   1.00
C67    C     0.13250   0.56827   0.51679   0.00000  Uiso   1.00
C68    C     0.13993   0.45125   0.53819   0.00000  Uiso   1.00
C69    C     0.16282   0.38083   0.47956   0.00000  Uiso   1.00
H70    H     0.14728   0.77880   0.36914   0.00000  Uiso   1.00
H71    H     0.06107   0.83807   0.32653   0.00000  Uiso   1.00
H72    H     0.20314   0.93296   0.43818   0.00000  Uiso   1.00
H73    H     0.18183   0.57803   0.32113   0.00000  Uiso   1.00
H74    H     0.95892   0.88392   0.31336   0.00000  Uiso   1.00
H75    H     0.25849   0.08399   0.54878   0.00000  Uiso   1.00
H76    H     0.21356   0.33555   0.30196   0.00000  Uiso   1.00
H77    H     0.09662   0.62556   0.63157   0.00000  Uiso   1.00
H78    H     0.00763   0.67641   0.60336   0.00000  Uiso   1.00
H79    H     0.14970   0.77132   0.71501   0.00000  Uiso   1.00
H80    H     0.12839   0.41639   0.59796   0.00000  Uiso   1.00
H81    H     0.91554   0.75272   0.53804   0.00000  Uiso   1.00
H82    H     0.21511   0.95279   0.77347   0.00000  Uiso   1.00
H83    H     0.17018   0.20436   0.52665   0.00000  Uiso   1.00
O84    O     0.87961   0.85457   0.40242   0.00000  Uiso   1.00
O85    O     0.27264   0.11704   0.71128   0.00000  Uiso   1.00
O86    O     0.21368   0.13511   0.38746   0.00000  Uiso   1.00
N87    N     0.96092   0.84604   0.37010   0.00000  Uiso   1.00
N88    N     0.24100   0.03311   0.59021   0.00000  Uiso   1.00
N89    N     0.19900   0.33339   0.35946   0.00000  Uiso   1.00
N90    N     0.93758   0.77544   0.49100   0.00000  Uiso   1.00
N91    N     0.21766   0.96251   0.71111   0.00000  Uiso   1.00
N92    N     0.17566   0.26279   0.48036   0.00000  Uiso   1.00
C93    C     0.63567   0.75631   0.57074   0.00000  Uiso   1.00
C94    C     0.58181   0.74537   0.55750   0.00000  Uiso   1.00
C95    C     0.54952   0.69683   0.61372   0.00000  Uiso   1.00
C96    C     0.50174   0.69498   0.58994   0.00000  Uiso   1.00
C97    C     0.42037   0.67108   0.58112   0.00000  Uiso   1.00
C98    C     0.65899   0.69379   0.49684   0.00000  Uiso   1.00
C99    C     0.69161   0.60191   0.50205   0.00000  Uiso   1.00
C100   C     0.70880   0.55665   0.42720   0.00000  Uiso   1.00
C101   C     0.74729   0.45274   0.32420   0.00000  Uiso   1.00
C102   C     0.64741   0.88664   0.56044   0.00000  Uiso   1.00
C103   C     0.67030   0.95689   0.61911   0.00000  Uiso   1.00
C104   C     0.67775   0.07399   0.59780   0.00000  Uiso   1.00
C105   C     0.69826   0.26950   0.59355   0.00000  Uiso   1.00
C106   C     0.60823   0.83933   0.42856   0.00000  Uiso   1.00
C107   C     0.56690   0.79046   0.48027   0.00000  Uiso   1.00
C108   C     0.51915   0.78869   0.45641   0.00000  Uiso   1.00
C109   C     0.48680   0.74016   0.51258   0.00000  Uiso   1.00
C110   C     0.64409   0.73888   0.41961   0.00000  Uiso   1.00
C111   C     0.66124   0.69376   0.34474   0.00000  Uiso   1.00
C112   C     0.69387   0.60182   0.34983   0.00000  Uiso   1.00
C113   C     0.63250   0.93173   0.48321   0.00000  Uiso   1.00
C114   C     0.63993   0.04875   0.46181   0.00000  Uiso   1.00
C115   C     0.66282   0.11917   0.52044   0.00000  Uiso   1.00
H116   H     0.64728   0.72120   0.63086   0.00000  Uiso   1.00
H117   H     0.56107   0.66193   0.67347   0.00000  Uiso   1.00
H118   H     0.70314   0.56704   0.56182   0.00000  Uiso   1.00
H119   H     0.68183   0.92197   0.67887   0.00000  Uiso   1.00
H120   H     0.45892   0.61608   0.68664   0.00000  Uiso   1.00
H121   H     0.75849   0.41601   0.45122   0.00000  Uiso   1.00
H122   H     0.71356   0.16445   0.69804   0.00000  Uiso   1.00
H123   H     0.59662   0.87444   0.36843   0.00000  Uiso   1.00
H124   H     0.50763   0.82359   0.39664   0.00000  Uiso   1.00
H125   H     0.64970   0.72868   0.28499   0.00000  Uiso   1.00
H126   H     0.62839   0.08361   0.40204   0.00000  Uiso   1.00
H127   H     0.41554   0.74728   0.46196   0.00000  Uiso   1.00
H128   H     0.71511   0.54721   0.22653   0.00000  Uiso   1.00
H129   H     0.67018   0.29564   0.47335   0.00000  Uiso   1.00
O130   O     0.37961   0.64543   0.59758   0.00000  Uiso   1.00
O131   O     0.77264   0.38296   0.28872   0.00000  Uiso   1.00
O132   O     0.71368   0.36489   0.61254   0.00000  Uiso   1.00
N133   N     0.46092   0.65396   0.62990   0.00000  Uiso   1.00
N134   N     0.74100   0.46689   0.40979   0.00000  Uiso   1.00
N135   N     0.69900   0.16661   0.64054   0.00000  Uiso   1.00
N136   N     0.43758   0.72456   0.50900   0.00000  Uiso   1.00
N137   N     0.71766   0.53749   0.28889   0.00000  Uiso   1.00
N138   N     0.67566   0.23721   0.51964   0.00000  Uiso   1.00
C139   C     0.86433   0.74369   0.07074   0.00000  Uiso   1.00
C140   C     0.91819   0.75463   0.05750   0.00000  Uiso   1.00
C141   C     0.95048   0.80317   0.11372   0.00000  Uiso   1.00
C142   C     0.99826   0.80502   0.08994   0.00000  Uiso   1.00
C143   C     0.07963   0.82892   0.08112   0.00000  Uiso   1.00
C144   C     0.84101   0.80621   0.99684   0.00000  Uiso   1.00
C145   C     0.80839   0.89809   0.00205   0.00000  Uiso   1.00
C146   C     0.79120   0.94335   0.92720   0.00000  Uiso   1.00
C147   C     0.75271   0.04726   0.82420   0.00000  Uiso   1.00
C148   C     0.85259   0.61336   0.06044   0.00000  Uiso   1.00
C149   C     0.82970   0.54311   0.11911   0.00000  Uiso   1.00
C150   C     0.82225   0.42601   0.09780   0.00000  Uiso   1.00
C151   C     0.80174   0.23050   0.09355   0.00000  Uiso   1.00
C152   C     0.89177   0.66067   0.92856   0.00000  Uiso   1.00
C153   C     0.93310   0.70954   0.98027   0.00000  Uiso   1.00
C154   C     0.98085   0.71131   0.95641   0.00000  Uiso   1.00
C155   C     0.01320   0.75984   0.01258   0.00000  Uiso   1.00
C156   C     0.85591   0.76112   0.91961   0.00000  Uiso   1.00
C157   C     0.83876   0.80624   0.84474   0.00000  Uiso   1.00
C158   C     0.80613   0.89818   0.84983   0.00000  Uiso   1.00
C159   C     0.86750   0.56827   0.98321   0.00000  Uiso   1.00
C160   C     0.86007   0.45125   0.96181   0.00000  Uiso   1.00
C161   C     0.83718   0.38083   0.02044   0.00000  Uiso   1.00
H162   H     0.85272   0.77880   0.13086   0.00000  Uiso   1.00
H163   H     0.93893   0.83807   0.17347   0.00000  Uiso   1.00
H164   H     0.79686   0.93296   0.06182   0.00000  Uiso   1.00
H165   H     0.81817   0.57803   0.17887   0.00000  Uiso   1.00
H166   H     0.04108   0.88392   0.18664   0.00000  Uiso   1.00
H167   H     0.74151   0.08399   0.95122   0.00000  Uiso   1.00
H168   H     0.78644   0.33555   0.19804   0.00000  Uiso   1.00
H169   H     0.90338   0.62556   0.86843   0.00000  Uiso   1.00
H170   H     0.99237   0.67641   0.89664   0.00000  Uiso   1.00
H171   H     0.85030   0.77132   0.78499   0.00000  Uiso   1.00
H172   H     0.87161   0.41639   0.90204   0.00000  Uiso   1.00
H173   H     0.08446   0.75272   0.96196   0.00000  Uiso   1.00
H174   H     0.78489   0.95279   0.72653   0.00000  Uiso   1.00
H175   H     0.82982   0.20436   0.97335   0.00000  Uiso   1.00
O176   O     0.12039   0.85457   0.09758   0.00000  Uiso   1.00
O177   O     0.72736   0.11704   0.78872   0.00000  Uiso   1.00
O178   O     0.78632   0.13511   0.11254   0.00000  Uiso   1.00
N179   N     0.03908   0.84604   0.12990   0.00000  Uiso   1.00
N180   N     0.75900   0.03311   0.90979   0.00000  Uiso   1.00
N181   N     0.80100   0.33339   0.14054   0.00000  Uiso   1.00
N182   N     0.06242   0.77544   0.00900   0.00000  Uiso   1.00
N183   N     0.78234   0.96251   0.78889   0.00000  Uiso   1.00
N184   N     0.82434   0.26279   0.01964   0.00000  Uiso   1.00
C185   C     0.63567   0.24369   0.07074   0.00000  Uiso   1.00
C186   C     0.58181   0.25463   0.05750   0.00000  Uiso   1.00
C187   C     0.54952   0.30317   0.11372   0.00000  Uiso   1.00
C188   C     0.50174   0.30502   0.08994   0.00000  Uiso   1.00
C189   C     0.42037   0.32892   0.08112   0.00000  Uiso   1.00
C190   C     0.65899   0.30621   0.99684   0.00000  Uiso   1.00
C191   C     0.69161   0.39809   0.00205   0.00000  Uiso   1.00
C192   C     0.70880   0.44335   0.92720   0.00000  Uiso   1.00
C193   C     0.74729   0.54726   0.82420   0.00000  Uiso   1.00
C194   C     0.64741   0.11336   0.06044   0.00000  Uiso   1.00
C195   C     0.67030   0.04311   0.11911   0.00000  Uiso   1.00
C196   C     0.67775   0.92601   0.09780   0.00000  Uiso   1.00
C197   C     0.69826   0.73050   0.09355   0.00000  Uiso   1.00
C198   C     0.60823   0.16067   0.92856   0.00000  Uiso   1.00
C199   C     0.56690   0.20954   0.98027   0.00000  Uiso   1.00
C200   C     0.51915   0.21131   0.95641   0.00000  Uiso   1.00
C201   C     0.48680   0.25984   0.01258   0.00000  Uiso   1.00
C202   C     0.64409   0.26112   0.91961   0.00000  Uiso   1.00
C203   C     0.66124   0.30624   0.84474   0.00000  Uiso   1.00
C204   C     0.69387   0.39818   0.84983   0.00000  Uiso   1.00
C205   C     0.63250   0.06827   0.98321   0.00000  Uiso   1.00
C206   C     0.63993   0.95125   0.96181   0.00000  Uiso   1.00
C207   C     0.66282   0.88083   0.02044   0.00000  Uiso   1.00
H208   H     0.64728   0.27880   0.13086   0.00000  Uiso   1.00
H209   H     0.56107   0.33807   0.17347   0.00000  Uiso   1.00
H210   H     0.70314   0.43296   0.06182   0.00000  Uiso   1.00
H211   H     0.68183   0.07803   0.17887   0.00000  Uiso   1.00
H212   H     0.45892   0.38392   0.18664   0.00000  Uiso   1.00
H213   H     0.75849   0.58399   0.95122   0.00000  Uiso   1.00
H214   H     0.71356   0.83555   0.19804   0.00000  Uiso   1.00
H215   H     0.59662   0.12556   0.86843   0.00000  Uiso   1.00
H216   H     0.50763   0.17641   0.89664   0.00000  Uiso   1.00
H217   H     0.64970   0.27132   0.78499   0.00000  Uiso   1.00
H218   H     0.62839   0.91639   0.90204   0.00000  Uiso   1.00
H219   H     0.41554   0.25272   0.96196   0.00000  Uiso   1.00
H220   H     0.71511   0.45279   0.72653   0.00000  Uiso   1.00
H221   H     0.67018   0.70436   0.97335   0.00000  Uiso   1.00
O222   O     0.37961   0.35457   0.09758   0.00000  Uiso   1.00
O223   O     0.77264   0.61704   0.78872   0.00000  Uiso   1.00
O224   O     0.71368   0.63511   0.11254   0.00000  Uiso   1.00
N225   N     0.46092   0.34604   0.12990   0.00000  Uiso   1.00
N226   N     0.74100   0.53311   0.90979   0.00000  Uiso   1.00
N227   N     0.69900   0.83339   0.14054   0.00000  Uiso   1.00
N228   N     0.43758   0.27544   0.00900   0.00000  Uiso   1.00
N229   N     0.71766   0.46251   0.78889   0.00000  Uiso   1.00
N230   N     0.67566   0.76279   0.01964   0.00000  Uiso   1.00
C231   C     0.86433   0.25631   0.57074   0.00000  Uiso   1.00
C232   C     0.91819   0.24537   0.55750   0.00000  Uiso   1.00
C233   C     0.95048   0.19683   0.61372   0.00000  Uiso   1.00
C234   C     0.99826   0.19498   0.58994   0.00000  Uiso   1.00
C235   C     0.07963   0.17108   0.58112   0.00000  Uiso   1.00
C236   C     0.84101   0.19379   0.49684   0.00000  Uiso   1.00
C237   C     0.80839   0.10191   0.50205   0.00000  Uiso   1.00
C238   C     0.79120   0.05665   0.42720   0.00000  Uiso   1.00
C239   C     0.75271   0.95274   0.32420   0.00000  Uiso   1.00
C240   C     0.85259   0.38664   0.56044   0.00000  Uiso   1.00
C241   C     0.82970   0.45689   0.61911   0.00000  Uiso   1.00
C242   C     0.82225   0.57399   0.59780   0.00000  Uiso   1.00
C243   C     0.80174   0.76950   0.59355   0.00000  Uiso   1.00
C244   C     0.89177   0.33933   0.42856   0.00000  Uiso   1.00
C245   C     0.93310   0.29046   0.48027   0.00000  Uiso   1.00
C246   C     0.98085   0.28869   0.45641   0.00000  Uiso   1.00
C247   C     0.01320   0.24016   0.51258   0.00000  Uiso   1.00
C248   C     0.85591   0.23888   0.41961   0.00000  Uiso   1.00
C249   C     0.83876   0.19376   0.34474   0.00000  Uiso   1.00
C250   C     0.80613   0.10182   0.34983   0.00000  Uiso   1.00
C251   C     0.86750   0.43173   0.48321   0.00000  Uiso   1.00
C252   C     0.86007   0.54875   0.46181   0.00000  Uiso   1.00
C253   C     0.83718   0.61917   0.52044   0.00000  Uiso   1.00
H254   H     0.85272   0.22120   0.63086   0.00000  Uiso   1.00
H255   H     0.93893   0.16193   0.67347   0.00000  Uiso   1.00
H256   H     0.79686   0.06704   0.56182   0.00000  Uiso   1.00
H257   H     0.81817   0.42197   0.67887   0.00000  Uiso   1.00
H258   H     0.04108   0.11608   0.68664   0.00000  Uiso   1.00
H259   H     0.74151   0.91601   0.45122   0.00000  Uiso   1.00
H260   H     0.78644   0.66445   0.69804   0.00000  Uiso   1.00
H261   H     0.90338   0.37444   0.36843   0.00000  Uiso   1.00
H262   H     0.99237   0.32359   0.39664   0.00000  Uiso   1.00
H263   H     0.85030   0.22868   0.28499   0.00000  Uiso   1.00
H264   H     0.87161   0.58361   0.40204   0.00000  Uiso   1.00
H265   H     0.08446   0.24728   0.46196   0.00000  Uiso   1.00
H266   H     0.78489   0.04721   0.22653   0.00000  Uiso   1.00
H267   H     0.82982   0.79564   0.47335   0.00000  Uiso   1.00
O268   O     0.12039   0.14543   0.59758   0.00000  Uiso   1.00
O269   O     0.72736   0.88296   0.28872   0.00000  Uiso   1.00
O270   O     0.78632   0.86489   0.61254   0.00000  Uiso   1.00
N271   N     0.03908   0.15396   0.62990   0.00000  Uiso   1.00
N272   N     0.75900   0.96689   0.40979   0.00000  Uiso   1.00
N273   N     0.80100   0.66661   0.64054   0.00000  Uiso   1.00
N274   N     0.06242   0.22456   0.50900   0.00000  Uiso   1.00
N275   N     0.78234   0.03749   0.28889   0.00000  Uiso   1.00
N276   N     0.82434   0.73721   0.51964   0.00000  Uiso   1.00
C277   C     0.36433   0.24369   0.42926   0.00000  Uiso   1.00
C278   C     0.41819   0.25463   0.44250   0.00000  Uiso   1.00
C279   C     0.45048   0.30317   0.38628   0.00000  Uiso   1.00
C280   C     0.49826   0.30502   0.41006   0.00000  Uiso   1.00
C281   C     0.57963   0.32892   0.41888   0.00000  Uiso   1.00
C282   C     0.34101   0.30621   0.50316   0.00000  Uiso   1.00
C283   C     0.30839   0.39809   0.49795   0.00000  Uiso   1.00
C284   C     0.29120   0.44335   0.57280   0.00000  Uiso   1.00
C285   C     0.25271   0.54726   0.67580   0.00000  Uiso   1.00
C286   C     0.35259   0.11336   0.43956   0.00000  Uiso   1.00
C287   C     0.32970   0.04311   0.38089   0.00000  Uiso   1.00
C288   C     0.32225   0.92601   0.40220   0.00000  Uiso   1.00
C289   C     0.30174   0.73050   0.40645   0.00000  Uiso   1.00
C290   C     0.39177   0.16067   0.57144   0.00000  Uiso   1.00
C291   C     0.43310   0.20954   0.51973   0.00000  Uiso   1.00
C292   C     0.48085   0.21131   0.54359   0.00000  Uiso   1.00
C293   C     0.51320   0.25984   0.48742   0.00000  Uiso   1.00
C294   C     0.35591   0.26112   0.58039   0.00000  Uiso   1.00
C295   C     0.33876   0.30624   0.65526   0.00000  Uiso   1.00
C296   C     0.30613   0.39818   0.65017   0.00000  Uiso   1.00
C297   C     0.36750   0.06827   0.51679   0.00000  Uiso   1.00
C298   C     0.36007   0.95125   0.53819   0.00000  Uiso   1.00
C299   C     0.33718   0.88083   0.47956   0.00000  Uiso   1.00
H300   H     0.35272   0.27880   0.36914   0.00000  Uiso   1.00
H301   H     0.43893   0.33807   0.32653   0.00000  Uiso   1.00
H302   H     0.29686   0.43296   0.43818   0.00000  Uiso   1.00
H303   H     0.31817   0.07803   0.32113   0.00000  Uiso   1.00
H304   H     0.54108   0.38392   0.31336   0.00000  Uiso   1.00
H305   H     0.24151   0.58399   0.54878   0.00000  Uiso   1.00
H306   H     0.28644   0.83555   0.30196   0.00000  Uiso   1.00
H307   H     0.40338   0.12556   0.63157   0.00000  Uiso   1.00
H308   H     0.49237   0.17641   0.60336   0.00000  Uiso   1.00
H309   H     0.35030   0.27132   0.71501   0.00000  Uiso   1.00
H310   H     0.37161   0.91639   0.59796   0.00000  Uiso   1.00
H311   H     0.58446   0.25272   0.53804   0.00000  Uiso   1.00
H312   H     0.28489   0.45279   0.77347   0.00000  Uiso   1.00
H313   H     0.32982   0.70436   0.52665   0.00000  Uiso   1.00
O314   O     0.62039   0.35457   0.40242   0.00000  Uiso   1.00
O315   O     0.22736   0.61704   0.71128   0.00000  Uiso   1.00
O316   O     0.28632   0.63511   0.38746   0.00000  Uiso   1.00
N317   N     0.53908   0.34604   0.37010   0.00000  Uiso   1.00
N318   N     0.25900   0.53311   0.59021   0.00000  Uiso   1.00
N319   N     0.30100   0.83339   0.35946   0.00000  Uiso   1.00
N320   N     0.56242   0.27544   0.49100   0.00000  Uiso   1.00
N321   N     0.28234   0.46251   0.71111   0.00000  Uiso   1.00
N322   N     0.32434   0.76279   0.48036   0.00000  Uiso   1.00
C323   C     0.13567   0.25631   0.92926   0.00000  Uiso   1.00
C324   C     0.08181   0.24537   0.94250   0.00000  Uiso   1.00
C325   C     0.04952   0.19683   0.88628   0.00000  Uiso   1.00
C326   C     0.00174   0.19498   0.91006   0.00000  Uiso   1.00
C327   C     0.92037   0.17108   0.91888   0.00000  Uiso   1.00
C328   C     0.15899   0.19379   0.00316   0.00000  Uiso   1.00
C329   C     0.19161   0.10191   0.99795   0.00000  Uiso   1.00
C330   C     0.20880   0.05665   0.07280   0.00000  Uiso   1.00
C331   C     0.24729   0.95274   0.17580   0.00000  Uiso   1.00
C332   C     0.14741   0.38664   0.93956   0.00000  Uiso   1.00
C333   C     0.17030   0.45689   0.88089   0.00000  Uiso   1.00
C334   C     0.17775   0.57399   0.90220   0.00000  Uiso   1.00
C335   C     0.19826   0.76950   0.90645   0.00000  Uiso   1.00
C336   C     0.10823   0.33933   0.07144   0.00000  Uiso   1.00
C337   C     0.06690   0.29046   0.01973   0.00000  Uiso   1.00
C338   C     0.01915   0.28869   0.04359   0.00000  Uiso   1.00
C339   C     0.98680   0.24016   0.98742   0.00000  Uiso   1.00
C340   C     0.14409   0.23888   0.08039   0.00000  Uiso   1.00
C341   C     0.16124   0.19376   0.15526   0.00000  Uiso   1.00
C342   C     0.19387   0.10182   0.15017   0.00000  Uiso   1.00
C343   C     0.13250   0.43173   0.01679   0.00000  Uiso   1.00
C344   C     0.13993   0.54875   0.03819   0.00000  Uiso   1.00
C345   C     0.16282   0.61917   0.97956   0.00000  Uiso   1.00
H346   H     0.14728   0.22120   0.86914   0.00000  Uiso   1.00
H347   H     0.06107   0.16193   0.82653   0.00000  Uiso   1.00
H348   H     0.20314   0.06704   0.93818   0.00000  Uiso   1.00
H349   H     0.18183   0.42197   0.82113   0.00000  Uiso   1.00
H350   H     0.95892   0.11608   0.81336   0.00000  Uiso   1.00
H351   H     0.25849   0.91601   0.04878   0.00000  Uiso   1.00
H352   H     0.21356   0.66445   0.80196   0.00000  Uiso   1.00
H353   H     0.09662   0.37444   0.13157   0.00000  Uiso   1.00
H354   H     0.00763   0.32359   0.10336   0.00000  Uiso   1.00
H355   H     0.14970   0.22868   0.21501   0.00000  Uiso   1.00
H356   H     0.12839   0.58361   0.09796   0.00000  Uiso   1.00
H357   H     0.91554   0.24728   0.03804   0.00000  Uiso   1.00
H358   H     0.21511   0.04721   0.27347   0.00000  Uiso   1.00
H359   H     0.17018   0.79564   0.02665   0.00000  Uiso   1.00
O360   O     0.87961   0.14543   0.90242   0.00000  Uiso   1.00
O361   O     0.27264   0.88296   0.21128   0.00000  Uiso   1.00
O362   O     0.21368   0.86489   0.88746   0.00000  Uiso   1.00
N363   N     0.96092   0.15396   0.87010   0.00000  Uiso   1.00
N364   N     0.24100   0.96689   0.09021   0.00000  Uiso   1.00
N365   N     0.19900   0.66661   0.85946   0.00000  Uiso   1.00
N366   N     0.93758   0.22456   0.99100   0.00000  Uiso   1.00
N367   N     0.21766   0.03749   0.21111   0.00000  Uiso   1.00
N368   N     0.17566   0.73721   0.98036   0.00000  Uiso   1.00
