data_job_02029
_audit_creation_date              2018-12-19
_audit_creation_method            'Materials Studio'
_symmetry_space_group_name_H-M    'P1'
_symmetry_Int_Tables_number       1
_symmetry_cell_setting            triclinic
loop_
_symmetry_equiv_pos_as_xyz
  x,y,z
_cell_length_a                    23.3908
_cell_length_b                    30.5869
_cell_length_c                    9.5431
_cell_angle_alpha                 90.0000
_cell_angle_beta                  90.0000
_cell_angle_gamma                 90.0000
loop_
_atom_site_label
_atom_site_type_symbol
_atom_site_fract_x
_atom_site_fract_y
_atom_site_fract_z
_atom_site_U_iso_or_equiv
_atom_site_adp_type
_atom_site_occupancy
C1     C     0.68398   0.81297   0.70680   0.00000  Uiso   1.00
C2     C     0.68082   0.85101   0.60380   0.00000  Uiso   1.00
C3     C     0.68043   0.84751   0.45882   0.00000  Uiso   1.00
C4     C     0.67735   0.88619   0.38306   0.00000  Uiso   1.00
C5     C     0.67287   0.93907   0.21295   0.00000  Uiso   1.00
C6     C     0.73593   0.82178   0.79913   0.00000  Uiso   1.00
C7     C     0.78187   0.79370   0.81839   0.00000  Uiso   1.00
C8     C     0.82518   0.80777   0.90707   0.00000  Uiso   1.00
C9     C     0.90622   0.81526   0.04029   0.00000  Uiso   1.00
C10    C     0.63194   0.81746   0.80193   0.00000  Uiso   1.00
C11    C     0.59044   0.78574   0.82358   0.00000  Uiso   1.00
C12    C     0.54620   0.79617   0.91465   0.00000  Uiso   1.00
C13    C     0.46579   0.79694   0.05223   0.00000  Uiso   1.00
C14    C     0.67921   0.88789   0.83007   0.00000  Uiso   1.00
C15    C     0.67823   0.89171   0.67076   0.00000  Uiso   1.00
C16    C     0.67515   0.93040   0.59520   0.00000  Uiso   1.00
C17    C     0.67475   0.92696   0.45013   0.00000  Uiso   1.00
C18    C     0.73334   0.86247   0.86608   0.00000  Uiso   1.00
C19    C     0.77659   0.87659   0.95477   0.00000  Uiso   1.00
C20    C     0.82258   0.84854   0.97414   0.00000  Uiso   1.00
C21    C     0.62934   0.85815   0.86889   0.00000  Uiso   1.00
C22    C     0.58516   0.86863   0.95996   0.00000  Uiso   1.00
C23    C     0.54361   0.83693   0.98173   0.00000  Uiso   1.00
H24    H     0.68600   0.78129   0.65468   0.00000  Uiso   1.00
H25    H     0.68244   0.81601   0.40704   0.00000  Uiso   1.00
H26    H     0.78386   0.76221   0.76657   0.00000  Uiso   1.00
H27    H     0.59246   0.75425   0.77175   0.00000  Uiso   1.00
H28    H     0.67737   0.87246   0.16202   0.00000  Uiso   1.00
H29    H     0.89120   0.75901   0.92013   0.00000  Uiso   1.00
H30    H     0.48761   0.74222   0.93108   0.00000  Uiso   1.00
H31    H     0.67719   0.91957   0.88220   0.00000  Uiso   1.00
H32    H     0.67315   0.96189   0.64704   0.00000  Uiso   1.00
H33    H     0.77457   0.90808   0.00657   0.00000  Uiso   1.00
H34    H     0.58317   0.90013   0.01175   0.00000  Uiso   1.00
H35    H     0.66983   0.99085   0.35681   0.00000  Uiso   1.00
H36    H     0.88366   0.87740   0.11493   0.00000  Uiso   1.00
H37    H     0.48007   0.86062   0.12587   0.00000  Uiso   1.00
O38    O     0.67112   0.95700   0.10062   0.00000  Uiso   1.00
O39    O     0.95165   0.80815   0.09525   0.00000  Uiso   1.00
O40    O     0.42214   0.78613   0.10960   0.00000  Uiso   1.00
N41    N     0.67614   0.89451   0.24014   0.00000  Uiso   1.00
N42    N     0.87606   0.78845   0.94891   0.00000  Uiso   1.00
N43    N     0.49875   0.77275   0.95917   0.00000  Uiso   1.00
N44    N     0.67208   0.95822   0.34495   0.00000  Uiso   1.00
N45    N     0.87201   0.85216   0.05373   0.00000  Uiso   1.00
N46    N     0.49469   0.83646   0.06398   0.00000  Uiso   1.00
C47    C     0.81602   0.68703   0.20680   0.00000  Uiso   1.00
C48    C     0.81918   0.64899   0.10380   0.00000  Uiso   1.00
C49    C     0.81957   0.65249   0.95882   0.00000  Uiso   1.00
C50    C     0.82265   0.61381   0.88306   0.00000  Uiso   1.00
C51    C     0.82713   0.56093   0.71295   0.00000  Uiso   1.00
C52    C     0.76407   0.67822   0.29913   0.00000  Uiso   1.00
C53    C     0.71813   0.70630   0.31839   0.00000  Uiso   1.00
C54    C     0.67482   0.69223   0.40707   0.00000  Uiso   1.00
C55    C     0.59378   0.68474   0.54029   0.00000  Uiso   1.00
C56    C     0.86806   0.68254   0.30193   0.00000  Uiso   1.00
C57    C     0.90956   0.71426   0.32358   0.00000  Uiso   1.00
C58    C     0.95380   0.70383   0.41465   0.00000  Uiso   1.00
C59    C     0.03421   0.70306   0.55223   0.00000  Uiso   1.00
C60    C     0.82079   0.61211   0.33007   0.00000  Uiso   1.00
C61    C     0.82177   0.60829   0.17076   0.00000  Uiso   1.00
C62    C     0.82485   0.56960   0.09520   0.00000  Uiso   1.00
C63    C     0.82525   0.57304   0.95013   0.00000  Uiso   1.00
C64    C     0.76666   0.63753   0.36608   0.00000  Uiso   1.00
C65    C     0.72341   0.62341   0.45477   0.00000  Uiso   1.00
C66    C     0.67742   0.65146   0.47414   0.00000  Uiso   1.00
C67    C     0.87066   0.64185   0.36889   0.00000  Uiso   1.00
C68    C     0.91484   0.63137   0.45996   0.00000  Uiso   1.00
C69    C     0.95639   0.66307   0.48173   0.00000  Uiso   1.00
H70    H     0.81400   0.71871   0.15468   0.00000  Uiso   1.00
H71    H     0.81756   0.68399   0.90704   0.00000  Uiso   1.00
H72    H     0.71614   0.73779   0.26657   0.00000  Uiso   1.00
H73    H     0.90754   0.74575   0.27175   0.00000  Uiso   1.00
H74    H     0.82263   0.62754   0.66202   0.00000  Uiso   1.00
H75    H     0.60880   0.74099   0.42013   0.00000  Uiso   1.00
H76    H     0.01239   0.75778   0.43108   0.00000  Uiso   1.00
H77    H     0.82281   0.58043   0.38220   0.00000  Uiso   1.00
H78    H     0.82685   0.53811   0.14704   0.00000  Uiso   1.00
H79    H     0.72543   0.59192   0.50657   0.00000  Uiso   1.00
H80    H     0.91683   0.59987   0.51175   0.00000  Uiso   1.00
H81    H     0.83017   0.50915   0.85681   0.00000  Uiso   1.00
H82    H     0.61634   0.62260   0.61493   0.00000  Uiso   1.00
H83    H     0.01993   0.63938   0.62587   0.00000  Uiso   1.00
O84    O     0.82888   0.54300   0.60062   0.00000  Uiso   1.00
O85    O     0.54835   0.69185   0.59525   0.00000  Uiso   1.00
O86    O     0.07786   0.71387   0.60960   0.00000  Uiso   1.00
N87    N     0.82386   0.60549   0.74014   0.00000  Uiso   1.00
N88    N     0.62394   0.71155   0.44891   0.00000  Uiso   1.00
N89    N     0.00125   0.72725   0.45917   0.00000  Uiso   1.00
N90    N     0.82792   0.54178   0.84495   0.00000  Uiso   1.00
N91    N     0.62799   0.64784   0.55373   0.00000  Uiso   1.00
N92    N     0.00531   0.66354   0.56398   0.00000  Uiso   1.00
C93    C     0.31602   0.81297   0.79320   0.00000  Uiso   1.00
C94    C     0.31918   0.85101   0.89620   0.00000  Uiso   1.00
C95    C     0.31957   0.84751   0.04118   0.00000  Uiso   1.00
C96    C     0.32265   0.88619   0.11694   0.00000  Uiso   1.00
C97    C     0.32713   0.93907   0.28705   0.00000  Uiso   1.00
C98    C     0.26407   0.82178   0.70087   0.00000  Uiso   1.00
C99    C     0.21813   0.79370   0.68161   0.00000  Uiso   1.00
C100   C     0.17482   0.80777   0.59293   0.00000  Uiso   1.00
C101   C     0.09378   0.81526   0.45971   0.00000  Uiso   1.00
C102   C     0.36806   0.81746   0.69807   0.00000  Uiso   1.00
C103   C     0.40956   0.78574   0.67642   0.00000  Uiso   1.00
C104   C     0.45380   0.79617   0.58535   0.00000  Uiso   1.00
C105   C     0.53421   0.79694   0.44777   0.00000  Uiso   1.00
C106   C     0.32079   0.88789   0.66993   0.00000  Uiso   1.00
C107   C     0.32177   0.89171   0.82924   0.00000  Uiso   1.00
C108   C     0.32485   0.93040   0.90480   0.00000  Uiso   1.00
C109   C     0.32525   0.92696   0.04987   0.00000  Uiso   1.00
C110   C     0.26666   0.86247   0.63392   0.00000  Uiso   1.00
C111   C     0.22341   0.87659   0.54523   0.00000  Uiso   1.00
C112   C     0.17742   0.84854   0.52586   0.00000  Uiso   1.00
C113   C     0.37066   0.85815   0.63111   0.00000  Uiso   1.00
C114   C     0.41484   0.86863   0.54004   0.00000  Uiso   1.00
C115   C     0.45639   0.83693   0.51827   0.00000  Uiso   1.00
H116   H     0.31400   0.78129   0.84532   0.00000  Uiso   1.00
H117   H     0.31756   0.81601   0.09296   0.00000  Uiso   1.00
H118   H     0.21614   0.76221   0.73343   0.00000  Uiso   1.00
H119   H     0.40754   0.75425   0.72825   0.00000  Uiso   1.00
H120   H     0.32263   0.87246   0.33798   0.00000  Uiso   1.00
H121   H     0.10880   0.75901   0.57987   0.00000  Uiso   1.00
H122   H     0.51239   0.74222   0.56892   0.00000  Uiso   1.00
H123   H     0.32281   0.91957   0.61780   0.00000  Uiso   1.00
H124   H     0.32685   0.96189   0.85296   0.00000  Uiso   1.00
H125   H     0.22543   0.90808   0.49343   0.00000  Uiso   1.00
H126   H     0.41683   0.90013   0.48825   0.00000  Uiso   1.00
H127   H     0.33017   0.99085   0.14319   0.00000  Uiso   1.00
H128   H     0.11634   0.87740   0.38507   0.00000  Uiso   1.00
H129   H     0.51993   0.86062   0.37413   0.00000  Uiso   1.00
O130   O     0.32888   0.95700   0.39938   0.00000  Uiso   1.00
O131   O     0.04835   0.80815   0.40475   0.00000  Uiso   1.00
O132   O     0.57786   0.78613   0.39040   0.00000  Uiso   1.00
N133   N     0.32386   0.89451   0.25986   0.00000  Uiso   1.00
N134   N     0.12394   0.78845   0.55109   0.00000  Uiso   1.00
N135   N     0.50125   0.77275   0.54083   0.00000  Uiso   1.00
N136   N     0.32792   0.95822   0.15505   0.00000  Uiso   1.00
N137   N     0.12799   0.85216   0.44627   0.00000  Uiso   1.00
N138   N     0.50531   0.83646   0.43602   0.00000  Uiso   1.00
C139   C     0.18398   0.68703   0.29320   0.00000  Uiso   1.00
C140   C     0.18082   0.64899   0.39620   0.00000  Uiso   1.00
C141   C     0.18043   0.65249   0.54118   0.00000  Uiso   1.00
C142   C     0.17735   0.61381   0.61694   0.00000  Uiso   1.00
C143   C     0.17287   0.56093   0.78705   0.00000  Uiso   1.00
C144   C     0.23593   0.67822   0.20087   0.00000  Uiso   1.00
C145   C     0.28187   0.70630   0.18161   0.00000  Uiso   1.00
C146   C     0.32518   0.69223   0.09293   0.00000  Uiso   1.00
C147   C     0.40622   0.68474   0.95971   0.00000  Uiso   1.00
C148   C     0.13194   0.68254   0.19807   0.00000  Uiso   1.00
C149   C     0.09044   0.71426   0.17642   0.00000  Uiso   1.00
C150   C     0.04620   0.70383   0.08535   0.00000  Uiso   1.00
C151   C     0.96579   0.70306   0.94777   0.00000  Uiso   1.00
C152   C     0.17921   0.61211   0.16993   0.00000  Uiso   1.00
C153   C     0.17823   0.60829   0.32924   0.00000  Uiso   1.00
C154   C     0.17515   0.56960   0.40480   0.00000  Uiso   1.00
C155   C     0.17475   0.57304   0.54987   0.00000  Uiso   1.00
C156   C     0.23334   0.63753   0.13392   0.00000  Uiso   1.00
C157   C     0.27659   0.62341   0.04523   0.00000  Uiso   1.00
C158   C     0.32258   0.65146   0.02586   0.00000  Uiso   1.00
C159   C     0.12934   0.64185   0.13111   0.00000  Uiso   1.00
C160   C     0.08516   0.63137   0.04004   0.00000  Uiso   1.00
C161   C     0.04361   0.66307   0.01827   0.00000  Uiso   1.00
H162   H     0.18600   0.71871   0.34532   0.00000  Uiso   1.00
H163   H     0.18244   0.68399   0.59296   0.00000  Uiso   1.00
H164   H     0.28386   0.73779   0.23343   0.00000  Uiso   1.00
H165   H     0.09246   0.74575   0.22825   0.00000  Uiso   1.00
H166   H     0.17737   0.62754   0.83798   0.00000  Uiso   1.00
H167   H     0.39120   0.74099   0.07987   0.00000  Uiso   1.00
H168   H     0.98761   0.75778   0.06892   0.00000  Uiso   1.00
H169   H     0.17719   0.58043   0.11780   0.00000  Uiso   1.00
H170   H     0.17315   0.53811   0.35296   0.00000  Uiso   1.00
H171   H     0.27457   0.59192   0.99343   0.00000  Uiso   1.00
H172   H     0.08317   0.59987   0.98825   0.00000  Uiso   1.00
H173   H     0.16983   0.50915   0.64319   0.00000  Uiso   1.00
H174   H     0.38366   0.62260   0.88507   0.00000  Uiso   1.00
H175   H     0.98007   0.63938   0.87413   0.00000  Uiso   1.00
O176   O     0.17112   0.54300   0.89938   0.00000  Uiso   1.00
O177   O     0.45165   0.69185   0.90475   0.00000  Uiso   1.00
O178   O     0.92214   0.71387   0.89040   0.00000  Uiso   1.00
N179   N     0.17614   0.60549   0.75986   0.00000  Uiso   1.00
N180   N     0.37606   0.71155   0.05109   0.00000  Uiso   1.00
N181   N     0.99875   0.72725   0.04083   0.00000  Uiso   1.00
N182   N     0.17208   0.54178   0.65505   0.00000  Uiso   1.00
N183   N     0.37201   0.64784   0.94627   0.00000  Uiso   1.00
N184   N     0.99469   0.66354   0.93602   0.00000  Uiso   1.00
C185   C     0.31602   0.18703   0.29320   0.00000  Uiso   1.00
C186   C     0.31918   0.14899   0.39620   0.00000  Uiso   1.00
C187   C     0.31957   0.15249   0.54118   0.00000  Uiso   1.00
C188   C     0.32265   0.11381   0.61694   0.00000  Uiso   1.00
C189   C     0.32713   0.06093   0.78705   0.00000  Uiso   1.00
C190   C     0.26407   0.17822   0.20087   0.00000  Uiso   1.00
C191   C     0.21813   0.20630   0.18161   0.00000  Uiso   1.00
C192   C     0.17482   0.19223   0.09293   0.00000  Uiso   1.00
C193   C     0.09378   0.18474   0.95971   0.00000  Uiso   1.00
C194   C     0.36806   0.18254   0.19807   0.00000  Uiso   1.00
C195   C     0.40956   0.21426   0.17642   0.00000  Uiso   1.00
C196   C     0.45380   0.20383   0.08535   0.00000  Uiso   1.00
C197   C     0.53421   0.20306   0.94777   0.00000  Uiso   1.00
C198   C     0.32079   0.11211   0.16993   0.00000  Uiso   1.00
C199   C     0.32177   0.10829   0.32924   0.00000  Uiso   1.00
C200   C     0.32485   0.06960   0.40480   0.00000  Uiso   1.00
C201   C     0.32525   0.07304   0.54987   0.00000  Uiso   1.00
C202   C     0.26666   0.13753   0.13392   0.00000  Uiso   1.00
C203   C     0.22341   0.12341   0.04523   0.00000  Uiso   1.00
C204   C     0.17742   0.15146   0.02586   0.00000  Uiso   1.00
C205   C     0.37066   0.14185   0.13111   0.00000  Uiso   1.00
C206   C     0.41484   0.13137   0.04004   0.00000  Uiso   1.00
C207   C     0.45639   0.16307   0.01827   0.00000  Uiso   1.00
H208   H     0.31400   0.21871   0.34532   0.00000  Uiso   1.00
H209   H     0.31756   0.18399   0.59296   0.00000  Uiso   1.00
H210   H     0.21614   0.23779   0.23343   0.00000  Uiso   1.00
H211   H     0.40754   0.24575   0.22825   0.00000  Uiso   1.00
H212   H     0.32263   0.12754   0.83798   0.00000  Uiso   1.00
H213   H     0.10880   0.24099   0.07987   0.00000  Uiso   1.00
H214   H     0.51239   0.25778   0.06892   0.00000  Uiso   1.00
H215   H     0.32281   0.08043   0.11780   0.00000  Uiso   1.00
H216   H     0.32685   0.03811   0.35296   0.00000  Uiso   1.00
H217   H     0.22543   0.09192   0.99343   0.00000  Uiso   1.00
H218   H     0.41683   0.09987   0.98825   0.00000  Uiso   1.00
H219   H     0.33017   0.00915   0.64319   0.00000  Uiso   1.00
H220   H     0.11634   0.12260   0.88507   0.00000  Uiso   1.00
H221   H     0.51993   0.13938   0.87413   0.00000  Uiso   1.00
O222   O     0.32888   0.04300   0.89938   0.00000  Uiso   1.00
O223   O     0.04835   0.19185   0.90475   0.00000  Uiso   1.00
O224   O     0.57786   0.21387   0.89040   0.00000  Uiso   1.00
N225   N     0.32386   0.10549   0.75986   0.00000  Uiso   1.00
N226   N     0.12394   0.21155   0.05109   0.00000  Uiso   1.00
N227   N     0.50125   0.22725   0.04083   0.00000  Uiso   1.00
N228   N     0.32792   0.04178   0.65505   0.00000  Uiso   1.00
N229   N     0.12799   0.14784   0.94627   0.00000  Uiso   1.00
N230   N     0.50531   0.16354   0.93602   0.00000  Uiso   1.00
C231   C     0.18398   0.31297   0.79320   0.00000  Uiso   1.00
C232   C     0.18082   0.35101   0.89620   0.00000  Uiso   1.00
C233   C     0.18043   0.34751   0.04118   0.00000  Uiso   1.00
C234   C     0.17735   0.38619   0.11694   0.00000  Uiso   1.00
C235   C     0.17287   0.43907   0.28705   0.00000  Uiso   1.00
C236   C     0.23593   0.32178   0.70087   0.00000  Uiso   1.00
C237   C     0.28187   0.29370   0.68161   0.00000  Uiso   1.00
C238   C     0.32518   0.30777   0.59293   0.00000  Uiso   1.00
C239   C     0.40622   0.31526   0.45971   0.00000  Uiso   1.00
C240   C     0.13194   0.31746   0.69807   0.00000  Uiso   1.00
C241   C     0.09044   0.28574   0.67642   0.00000  Uiso   1.00
C242   C     0.04620   0.29617   0.58535   0.00000  Uiso   1.00
C243   C     0.96579   0.29694   0.44777   0.00000  Uiso   1.00
C244   C     0.17921   0.38789   0.66993   0.00000  Uiso   1.00
C245   C     0.17823   0.39171   0.82924   0.00000  Uiso   1.00
C246   C     0.17515   0.43040   0.90480   0.00000  Uiso   1.00
C247   C     0.17475   0.42696   0.04987   0.00000  Uiso   1.00
C248   C     0.23334   0.36247   0.63392   0.00000  Uiso   1.00
C249   C     0.27659   0.37659   0.54523   0.00000  Uiso   1.00
C250   C     0.32258   0.34854   0.52586   0.00000  Uiso   1.00
C251   C     0.12934   0.35815   0.63111   0.00000  Uiso   1.00
C252   C     0.08516   0.36863   0.54004   0.00000  Uiso   1.00
C253   C     0.04361   0.33693   0.51827   0.00000  Uiso   1.00
H254   H     0.18600   0.28129   0.84532   0.00000  Uiso   1.00
H255   H     0.18244   0.31601   0.09296   0.00000  Uiso   1.00
H256   H     0.28386   0.26221   0.73343   0.00000  Uiso   1.00
H257   H     0.09246   0.25425   0.72825   0.00000  Uiso   1.00
H258   H     0.17737   0.37246   0.33798   0.00000  Uiso   1.00
H259   H     0.39120   0.25901   0.57987   0.00000  Uiso   1.00
H260   H     0.98761   0.24222   0.56892   0.00000  Uiso   1.00
H261   H     0.17719   0.41957   0.61780   0.00000  Uiso   1.00
H262   H     0.17315   0.46189   0.85296   0.00000  Uiso   1.00
H263   H     0.27457   0.40808   0.49343   0.00000  Uiso   1.00
H264   H     0.08317   0.40013   0.48825   0.00000  Uiso   1.00
H265   H     0.16983   0.49085   0.14319   0.00000  Uiso   1.00
H266   H     0.38366   0.37740   0.38507   0.00000  Uiso   1.00
H267   H     0.98007   0.36062   0.37413   0.00000  Uiso   1.00
O268   O     0.17112   0.45700   0.39938   0.00000  Uiso   1.00
O269   O     0.45165   0.30815   0.40475   0.00000  Uiso   1.00
O270   O     0.92214   0.28613   0.39040   0.00000  Uiso   1.00
N271   N     0.17614   0.39451   0.25986   0.00000  Uiso   1.00
N272   N     0.37606   0.28845   0.55109   0.00000  Uiso   1.00
N273   N     0.99875   0.27275   0.54083   0.00000  Uiso   1.00
N274   N     0.17208   0.45822   0.15505   0.00000  Uiso   1.00
N275   N     0.37201   0.35216   0.44627   0.00000  Uiso   1.00
N276   N     0.99469   0.33646   0.43602   0.00000  Uiso   1.00
C277   C     0.68398   0.18703   0.20680   0.00000  Uiso   1.00
C278   C     0.68082   0.14899   0.10380   0.00000  Uiso   1.00
C279   C     0.68043   0.15249   0.95882   0.00000  Uiso   1.00
C280   C     0.67735   0.11381   0.88306   0.00000  Uiso   1.00
C281   C     0.67287   0.06093   0.71295   0.00000  Uiso   1.00
C282   C     0.73593   0.17822   0.29913   0.00000  Uiso   1.00
C283   C     0.78187   0.20630   0.31839   0.00000  Uiso   1.00
C284   C     0.82518   0.19223   0.40707   0.00000  Uiso   1.00
C285   C     0.90622   0.18474   0.54029   0.00000  Uiso   1.00
C286   C     0.63194   0.18254   0.30193   0.00000  Uiso   1.00
C287   C     0.59044   0.21426   0.32358   0.00000  Uiso   1.00
C288   C     0.54620   0.20383   0.41465   0.00000  Uiso   1.00
C289   C     0.46579   0.20306   0.55223   0.00000  Uiso   1.00
C290   C     0.67921   0.11211   0.33007   0.00000  Uiso   1.00
C291   C     0.67823   0.10829   0.17076   0.00000  Uiso   1.00
C292   C     0.67515   0.06960   0.09520   0.00000  Uiso   1.00
C293   C     0.67475   0.07304   0.95013   0.00000  Uiso   1.00
C294   C     0.73334   0.13753   0.36608   0.00000  Uiso   1.00
C295   C     0.77659   0.12341   0.45477   0.00000  Uiso   1.00
C296   C     0.82258   0.15146   0.47414   0.00000  Uiso   1.00
C297   C     0.62934   0.14185   0.36889   0.00000  Uiso   1.00
C298   C     0.58516   0.13137   0.45996   0.00000  Uiso   1.00
C299   C     0.54361   0.16307   0.48173   0.00000  Uiso   1.00
H300   H     0.68600   0.21871   0.15468   0.00000  Uiso   1.00
H301   H     0.68244   0.18399   0.90704   0.00000  Uiso   1.00
H302   H     0.78386   0.23779   0.26657   0.00000  Uiso   1.00
H303   H     0.59246   0.24575   0.27175   0.00000  Uiso   1.00
H304   H     0.67737   0.12754   0.66202   0.00000  Uiso   1.00
H305   H     0.89120   0.24099   0.42013   0.00000  Uiso   1.00
H306   H     0.48761   0.25778   0.43108   0.00000  Uiso   1.00
H307   H     0.67719   0.08043   0.38220   0.00000  Uiso   1.00
H308   H     0.67315   0.03811   0.14704   0.00000  Uiso   1.00
H309   H     0.77457   0.09192   0.50657   0.00000  Uiso   1.00
H310   H     0.58317   0.09987   0.51175   0.00000  Uiso   1.00
H311   H     0.66983   0.00915   0.85681   0.00000  Uiso   1.00
H312   H     0.88366   0.12260   0.61493   0.00000  Uiso   1.00
H313   H     0.48007   0.13938   0.62587   0.00000  Uiso   1.00
O314   O     0.67112   0.04300   0.60062   0.00000  Uiso   1.00
O315   O     0.95165   0.19185   0.59525   0.00000  Uiso   1.00
O316   O     0.42214   0.21387   0.60960   0.00000  Uiso   1.00
N317   N     0.67614   0.10549   0.74014   0.00000  Uiso   1.00
N318   N     0.87606   0.21155   0.44891   0.00000  Uiso   1.00
N319   N     0.49875   0.22725   0.45917   0.00000  Uiso   1.00
N320   N     0.67208   0.04178   0.84495   0.00000  Uiso   1.00
N321   N     0.87201   0.14784   0.55373   0.00000  Uiso   1.00
N322   N     0.49469   0.16354   0.56398   0.00000  Uiso   1.00
C323   C     0.81602   0.31297   0.70680   0.00000  Uiso   1.00
C324   C     0.81918   0.35101   0.60380   0.00000  Uiso   1.00
C325   C     0.81957   0.34751   0.45882   0.00000  Uiso   1.00
C326   C     0.82265   0.38619   0.38306   0.00000  Uiso   1.00
C327   C     0.82713   0.43907   0.21295   0.00000  Uiso   1.00
C328   C     0.76407   0.32178   0.79913   0.00000  Uiso   1.00
C329   C     0.71813   0.29370   0.81839   0.00000  Uiso   1.00
C330   C     0.67482   0.30777   0.90707   0.00000  Uiso   1.00
C331   C     0.59378   0.31526   0.04029   0.00000  Uiso   1.00
C332   C     0.86806   0.31746   0.80193   0.00000  Uiso   1.00
C333   C     0.90956   0.28574   0.82358   0.00000  Uiso   1.00
C334   C     0.95380   0.29617   0.91465   0.00000  Uiso   1.00
C335   C     0.03421   0.29694   0.05223   0.00000  Uiso   1.00
C336   C     0.82079   0.38789   0.83007   0.00000  Uiso   1.00
C337   C     0.82177   0.39171   0.67076   0.00000  Uiso   1.00
C338   C     0.82485   0.43040   0.59520   0.00000  Uiso   1.00
C339   C     0.82525   0.42696   0.45013   0.00000  Uiso   1.00
C340   C     0.76666   0.36247   0.86608   0.00000  Uiso   1.00
C341   C     0.72341   0.37659   0.95477   0.00000  Uiso   1.00
C342   C     0.67742   0.34854   0.97414   0.00000  Uiso   1.00
C343   C     0.87066   0.35815   0.86889   0.00000  Uiso   1.00
C344   C     0.91484   0.36863   0.95996   0.00000  Uiso   1.00
C345   C     0.95639   0.33693   0.98173   0.00000  Uiso   1.00
H346   H     0.81400   0.28129   0.65468   0.00000  Uiso   1.00
H347   H     0.81756   0.31601   0.40704   0.00000  Uiso   1.00
H348   H     0.71614   0.26221   0.76657   0.00000  Uiso   1.00
H349   H     0.90754   0.25425   0.77175   0.00000  Uiso   1.00
H350   H     0.82263   0.37246   0.16202   0.00000  Uiso   1.00
H351   H     0.60880   0.25901   0.92013   0.00000  Uiso   1.00
H352   H     0.01239   0.24222   0.93108   0.00000  Uiso   1.00
H353   H     0.82281   0.41957   0.88220   0.00000  Uiso   1.00
H354   H     0.82685   0.46189   0.64704   0.00000  Uiso   1.00
H355   H     0.72543   0.40808   0.00657   0.00000  Uiso   1.00
H356   H     0.91683   0.40013   0.01175   0.00000  Uiso   1.00
H357   H     0.83017   0.49085   0.35681   0.00000  Uiso   1.00
H358   H     0.61634   0.37740   0.11493   0.00000  Uiso   1.00
H359   H     0.01993   0.36062   0.12587   0.00000  Uiso   1.00
O360   O     0.82888   0.45700   0.10062   0.00000  Uiso   1.00
O361   O     0.54835   0.30815   0.09525   0.00000  Uiso   1.00
O362   O     0.07786   0.28613   0.10960   0.00000  Uiso   1.00
N363   N     0.82386   0.39451   0.24014   0.00000  Uiso   1.00
N364   N     0.62394   0.28845   0.94891   0.00000  Uiso   1.00
N365   N     0.00125   0.27275   0.95917   0.00000  Uiso   1.00
N366   N     0.82792   0.45822   0.34495   0.00000  Uiso   1.00
N367   N     0.62799   0.35216   0.05373   0.00000  Uiso   1.00
N368   N     0.00531   0.33646   0.06398   0.00000  Uiso   1.00
