data_job_02537
_audit_creation_date              2018-12-19
_audit_creation_method            'Materials Studio'
_symmetry_space_group_name_H-M    'P1'
_symmetry_Int_Tables_number       1
_symmetry_cell_setting            triclinic
loop_
_symmetry_equiv_pos_as_xyz
  x,y,z
_cell_length_a                    21.1262
_cell_length_b                    12.9716
_cell_length_c                    19.2607
_cell_angle_alpha                 90.0000
_cell_angle_beta                  90.0000
_cell_angle_gamma                 90.0000
loop_
_atom_site_label
_atom_site_type_symbol
_atom_site_fract_x
_atom_site_fract_y
_atom_site_fract_z
_atom_site_U_iso_or_equiv
_atom_site_adp_type
_atom_site_occupancy
C1     C     0.81413   0.33161   0.61460   0.00000  Uiso   1.00
C2     C     0.85102   0.34305   0.68221   0.00000  Uiso   1.00
C3     C     0.88125   0.43190   0.70483   0.00000  Uiso   1.00
C4     C     0.91244   0.42668   0.76818   0.00000  Uiso   1.00
C5     C     0.96956   0.45827   0.86721   0.00000  Uiso   1.00
C6     C     0.74804   0.29550   0.63515   0.00000  Uiso   1.00
C7     C     0.69168   0.34437   0.61818   0.00000  Uiso   1.00
C8     C     0.63619   0.29912   0.64190   0.00000  Uiso   1.00
C9     C     0.53343   0.25685   0.66781   0.00000  Uiso   1.00
C10    C     0.84445   0.24166   0.57598   0.00000  Uiso   1.00
C11    C     0.86914   0.24524   0.50925   0.00000  Uiso   1.00
C12    C     0.89481   0.15465   0.48315   0.00000  Uiso   1.00
C13    C     0.94174   0.02878   0.41719   0.00000  Uiso   1.00
C14    C     0.81578   0.16434   0.68688   0.00000  Uiso   1.00
C15    C     0.85191   0.25219   0.72148   0.00000  Uiso   1.00
C16    C     0.88307   0.24683   0.78480   0.00000  Uiso   1.00
C17    C     0.91335   0.33566   0.80751   0.00000  Uiso   1.00
C18    C     0.74893   0.20465   0.67441   0.00000  Uiso   1.00
C19    C     0.69351   0.15930   0.69815   0.00000  Uiso   1.00
C20    C     0.63709   0.20810   0.68123   0.00000  Uiso   1.00
C21    C     0.84535   0.15080   0.61524   0.00000  Uiso   1.00
C22    C     0.87097   0.06018   0.58923   0.00000  Uiso   1.00
C23    C     0.89570   0.06363   0.52248   0.00000  Uiso   1.00
H24    H     0.81342   0.40234   0.58403   0.00000  Uiso   1.00
H25    H     0.88054   0.50220   0.67443   0.00000  Uiso   1.00
H26    H     0.69100   0.41468   0.58779   0.00000  Uiso   1.00
H27    H     0.86844   0.31557   0.47888   0.00000  Uiso   1.00
H28    H     0.95532   0.57284   0.79198   0.00000  Uiso   1.00
H29    H     0.55568   0.38828   0.60927   0.00000  Uiso   1.00
H30    H     0.92983   0.17929   0.37962   0.00000  Uiso   1.00
H31    H     0.81647   0.09360   0.71745   0.00000  Uiso   1.00
H32    H     0.88376   0.17651   0.81518   0.00000  Uiso   1.00
H33    H     0.69422   0.08899   0.72853   0.00000  Uiso   1.00
H34    H     0.87166   0.98988   0.61963   0.00000  Uiso   1.00
H35    H     0.95793   0.30851   0.90622   0.00000  Uiso   1.00
H36    H     0.55829   0.12394   0.72350   0.00000  Uiso   1.00
H37    H     0.93245   0.91495   0.49385   0.00000  Uiso   1.00
O38    O     0.00081   0.50080   0.91099   0.00000  Uiso   1.00
O39    O     0.47650   0.25865   0.67126   0.00000  Uiso   1.00
O40    O     0.96739   0.98446   0.36997   0.00000  Uiso   1.00
N41    N     0.94671   0.49925   0.80545   0.00000  Uiso   1.00
N42    N     0.57307   0.32670   0.63463   0.00000  Uiso   1.00
N43    N     0.92286   0.13131   0.41992   0.00000  Uiso   1.00
N44    N     0.94812   0.35701   0.86692   0.00000  Uiso   1.00
N45    N     0.57447   0.18447   0.69610   0.00000  Uiso   1.00
N46    N     0.92427   0.98907   0.48139   0.00000  Uiso   1.00
C47    C     0.68587   0.66839   0.61460   0.00000  Uiso   1.00
C48    C     0.64898   0.65695   0.68221   0.00000  Uiso   1.00
C49    C     0.61875   0.56810   0.70483   0.00000  Uiso   1.00
C50    C     0.58756   0.57332   0.76818   0.00000  Uiso   1.00
C51    C     0.53044   0.54173   0.86721   0.00000  Uiso   1.00
C52    C     0.75196   0.70450   0.63515   0.00000  Uiso   1.00
C53    C     0.80832   0.65563   0.61818   0.00000  Uiso   1.00
C54    C     0.86381   0.70088   0.64190   0.00000  Uiso   1.00
C55    C     0.96657   0.74315   0.66781   0.00000  Uiso   1.00
C56    C     0.65555   0.75834   0.57598   0.00000  Uiso   1.00
C57    C     0.63086   0.75476   0.50925   0.00000  Uiso   1.00
C58    C     0.60519   0.84535   0.48315   0.00000  Uiso   1.00
C59    C     0.55826   0.97122   0.41719   0.00000  Uiso   1.00
C60    C     0.68422   0.83566   0.68688   0.00000  Uiso   1.00
C61    C     0.64809   0.74781   0.72148   0.00000  Uiso   1.00
C62    C     0.61693   0.75317   0.78480   0.00000  Uiso   1.00
C63    C     0.58665   0.66434   0.80751   0.00000  Uiso   1.00
C64    C     0.75107   0.79535   0.67441   0.00000  Uiso   1.00
C65    C     0.80649   0.84070   0.69815   0.00000  Uiso   1.00
C66    C     0.86291   0.79190   0.68123   0.00000  Uiso   1.00
C67    C     0.65465   0.84920   0.61524   0.00000  Uiso   1.00
C68    C     0.62903   0.93982   0.58923   0.00000  Uiso   1.00
C69    C     0.60430   0.93637   0.52248   0.00000  Uiso   1.00
H70    H     0.68658   0.59766   0.58403   0.00000  Uiso   1.00
H71    H     0.61946   0.49780   0.67443   0.00000  Uiso   1.00
H72    H     0.80900   0.58532   0.58779   0.00000  Uiso   1.00
H73    H     0.63156   0.68443   0.47888   0.00000  Uiso   1.00
H74    H     0.54468   0.42716   0.79198   0.00000  Uiso   1.00
H75    H     0.94432   0.61172   0.60927   0.00000  Uiso   1.00
H76    H     0.57017   0.82071   0.37962   0.00000  Uiso   1.00
H77    H     0.68353   0.90640   0.71745   0.00000  Uiso   1.00
H78    H     0.61624   0.82349   0.81518   0.00000  Uiso   1.00
H79    H     0.80578   0.91101   0.72853   0.00000  Uiso   1.00
H80    H     0.62834   0.01012   0.61963   0.00000  Uiso   1.00
H81    H     0.54207   0.69149   0.90622   0.00000  Uiso   1.00
H82    H     0.94171   0.87606   0.72350   0.00000  Uiso   1.00
H83    H     0.56755   0.08505   0.49385   0.00000  Uiso   1.00
O84    O     0.49919   0.49920   0.91099   0.00000  Uiso   1.00
O85    O     0.02350   0.74135   0.67126   0.00000  Uiso   1.00
O86    O     0.53261   0.01554   0.36997   0.00000  Uiso   1.00
N87    N     0.55329   0.50075   0.80545   0.00000  Uiso   1.00
N88    N     0.92693   0.67330   0.63463   0.00000  Uiso   1.00
N89    N     0.57714   0.86869   0.41992   0.00000  Uiso   1.00
N90    N     0.55188   0.64299   0.86692   0.00000  Uiso   1.00
N91    N     0.92553   0.81553   0.69610   0.00000  Uiso   1.00
N92    N     0.57573   0.01093   0.48139   0.00000  Uiso   1.00
C93    C     0.18587   0.33161   0.88540   0.00000  Uiso   1.00
C94    C     0.14898   0.34305   0.81779   0.00000  Uiso   1.00
C95    C     0.11875   0.43190   0.79517   0.00000  Uiso   1.00
C96    C     0.08756   0.42668   0.73182   0.00000  Uiso   1.00
C97    C     0.03044   0.45827   0.63279   0.00000  Uiso   1.00
C98    C     0.25196   0.29550   0.86485   0.00000  Uiso   1.00
C99    C     0.30832   0.34437   0.88182   0.00000  Uiso   1.00
C100   C     0.36381   0.29912   0.85810   0.00000  Uiso   1.00
C101   C     0.46657   0.25685   0.83219   0.00000  Uiso   1.00
C102   C     0.15555   0.24166   0.92402   0.00000  Uiso   1.00
C103   C     0.13086   0.24524   0.99075   0.00000  Uiso   1.00
C104   C     0.10519   0.15465   0.01685   0.00000  Uiso   1.00
C105   C     0.05826   0.02878   0.08281   0.00000  Uiso   1.00
C106   C     0.18422   0.16434   0.81312   0.00000  Uiso   1.00
C107   C     0.14809   0.25219   0.77852   0.00000  Uiso   1.00
C108   C     0.11693   0.24683   0.71520   0.00000  Uiso   1.00
C109   C     0.08665   0.33566   0.69249   0.00000  Uiso   1.00
C110   C     0.25107   0.20465   0.82559   0.00000  Uiso   1.00
C111   C     0.30649   0.15930   0.80185   0.00000  Uiso   1.00
C112   C     0.36291   0.20810   0.81877   0.00000  Uiso   1.00
C113   C     0.15465   0.15080   0.88476   0.00000  Uiso   1.00
C114   C     0.12903   0.06018   0.91077   0.00000  Uiso   1.00
C115   C     0.10430   0.06363   0.97752   0.00000  Uiso   1.00
H116   H     0.18658   0.40234   0.91597   0.00000  Uiso   1.00
H117   H     0.11946   0.50220   0.82557   0.00000  Uiso   1.00
H118   H     0.30900   0.41468   0.91221   0.00000  Uiso   1.00
H119   H     0.13156   0.31557   0.02112   0.00000  Uiso   1.00
H120   H     0.04468   0.57284   0.70802   0.00000  Uiso   1.00
H121   H     0.44432   0.38828   0.89073   0.00000  Uiso   1.00
H122   H     0.07017   0.17929   0.12038   0.00000  Uiso   1.00
H123   H     0.18353   0.09360   0.78255   0.00000  Uiso   1.00
H124   H     0.11624   0.17651   0.68482   0.00000  Uiso   1.00
H125   H     0.30578   0.08899   0.77147   0.00000  Uiso   1.00
H126   H     0.12834   0.98988   0.88037   0.00000  Uiso   1.00
H127   H     0.04207   0.30851   0.59378   0.00000  Uiso   1.00
H128   H     0.44171   0.12394   0.77650   0.00000  Uiso   1.00
H129   H     0.06755   0.91495   0.00615   0.00000  Uiso   1.00
O130   O     0.99919   0.50080   0.58901   0.00000  Uiso   1.00
O131   O     0.52350   0.25865   0.82874   0.00000  Uiso   1.00
O132   O     0.03261   0.98446   0.13003   0.00000  Uiso   1.00
N133   N     0.05329   0.49925   0.69455   0.00000  Uiso   1.00
N134   N     0.42693   0.32670   0.86537   0.00000  Uiso   1.00
N135   N     0.07714   0.13131   0.08008   0.00000  Uiso   1.00
N136   N     0.05188   0.35701   0.63308   0.00000  Uiso   1.00
N137   N     0.42553   0.18447   0.80390   0.00000  Uiso   1.00
N138   N     0.07573   0.98907   0.01861   0.00000  Uiso   1.00
C139   C     0.31413   0.66839   0.88540   0.00000  Uiso   1.00
C140   C     0.35102   0.65695   0.81779   0.00000  Uiso   1.00
C141   C     0.38125   0.56810   0.79517   0.00000  Uiso   1.00
C142   C     0.41244   0.57332   0.73182   0.00000  Uiso   1.00
C143   C     0.46956   0.54173   0.63279   0.00000  Uiso   1.00
C144   C     0.24804   0.70450   0.86485   0.00000  Uiso   1.00
C145   C     0.19168   0.65563   0.88182   0.00000  Uiso   1.00
C146   C     0.13619   0.70088   0.85810   0.00000  Uiso   1.00
C147   C     0.03343   0.74315   0.83219   0.00000  Uiso   1.00
C148   C     0.34445   0.75834   0.92402   0.00000  Uiso   1.00
C149   C     0.36914   0.75476   0.99075   0.00000  Uiso   1.00
C150   C     0.39481   0.84535   0.01685   0.00000  Uiso   1.00
C151   C     0.44174   0.97122   0.08281   0.00000  Uiso   1.00
C152   C     0.31578   0.83566   0.81312   0.00000  Uiso   1.00
C153   C     0.35191   0.74781   0.77852   0.00000  Uiso   1.00
C154   C     0.38307   0.75317   0.71520   0.00000  Uiso   1.00
C155   C     0.41335   0.66434   0.69249   0.00000  Uiso   1.00
C156   C     0.24893   0.79535   0.82559   0.00000  Uiso   1.00
C157   C     0.19351   0.84070   0.80185   0.00000  Uiso   1.00
C158   C     0.13709   0.79190   0.81877   0.00000  Uiso   1.00
C159   C     0.34535   0.84920   0.88476   0.00000  Uiso   1.00
C160   C     0.37097   0.93982   0.91077   0.00000  Uiso   1.00
C161   C     0.39570   0.93637   0.97752   0.00000  Uiso   1.00
H162   H     0.31342   0.59766   0.91597   0.00000  Uiso   1.00
H163   H     0.38054   0.49780   0.82557   0.00000  Uiso   1.00
H164   H     0.19100   0.58532   0.91221   0.00000  Uiso   1.00
H165   H     0.36844   0.68443   0.02112   0.00000  Uiso   1.00
H166   H     0.45532   0.42716   0.70802   0.00000  Uiso   1.00
H167   H     0.05568   0.61172   0.89073   0.00000  Uiso   1.00
H168   H     0.42983   0.82071   0.12038   0.00000  Uiso   1.00
H169   H     0.31647   0.90640   0.78255   0.00000  Uiso   1.00
H170   H     0.38376   0.82349   0.68482   0.00000  Uiso   1.00
H171   H     0.19422   0.91101   0.77147   0.00000  Uiso   1.00
H172   H     0.37166   0.01012   0.88037   0.00000  Uiso   1.00
H173   H     0.45793   0.69149   0.59378   0.00000  Uiso   1.00
H174   H     0.05829   0.87606   0.77650   0.00000  Uiso   1.00
H175   H     0.43245   0.08505   0.00615   0.00000  Uiso   1.00
O176   O     0.50081   0.49920   0.58901   0.00000  Uiso   1.00
O177   O     0.97650   0.74135   0.82874   0.00000  Uiso   1.00
O178   O     0.46739   0.01554   0.13003   0.00000  Uiso   1.00
N179   N     0.44671   0.50075   0.69455   0.00000  Uiso   1.00
N180   N     0.07307   0.67330   0.86537   0.00000  Uiso   1.00
N181   N     0.42286   0.86869   0.08008   0.00000  Uiso   1.00
N182   N     0.44812   0.64299   0.63308   0.00000  Uiso   1.00
N183   N     0.07447   0.81553   0.80390   0.00000  Uiso   1.00
N184   N     0.42427   0.01093   0.01861   0.00000  Uiso   1.00
C185   C     0.18587   0.66839   0.38540   0.00000  Uiso   1.00
C186   C     0.14898   0.65695   0.31779   0.00000  Uiso   1.00
C187   C     0.11875   0.56810   0.29517   0.00000  Uiso   1.00
C188   C     0.08756   0.57332   0.23182   0.00000  Uiso   1.00
C189   C     0.03044   0.54173   0.13279   0.00000  Uiso   1.00
C190   C     0.25196   0.70450   0.36485   0.00000  Uiso   1.00
C191   C     0.30832   0.65563   0.38182   0.00000  Uiso   1.00
C192   C     0.36381   0.70088   0.35810   0.00000  Uiso   1.00
C193   C     0.46657   0.74315   0.33219   0.00000  Uiso   1.00
C194   C     0.15555   0.75834   0.42402   0.00000  Uiso   1.00
C195   C     0.13086   0.75476   0.49075   0.00000  Uiso   1.00
C196   C     0.10519   0.84535   0.51685   0.00000  Uiso   1.00
C197   C     0.05826   0.97122   0.58281   0.00000  Uiso   1.00
C198   C     0.18422   0.83566   0.31312   0.00000  Uiso   1.00
C199   C     0.14809   0.74781   0.27852   0.00000  Uiso   1.00
C200   C     0.11693   0.75317   0.21520   0.00000  Uiso   1.00
C201   C     0.08665   0.66434   0.19249   0.00000  Uiso   1.00
C202   C     0.25107   0.79535   0.32559   0.00000  Uiso   1.00
C203   C     0.30649   0.84070   0.30185   0.00000  Uiso   1.00
C204   C     0.36291   0.79190   0.31877   0.00000  Uiso   1.00
C205   C     0.15465   0.84920   0.38476   0.00000  Uiso   1.00
C206   C     0.12903   0.93982   0.41077   0.00000  Uiso   1.00
C207   C     0.10430   0.93637   0.47752   0.00000  Uiso   1.00
H208   H     0.18658   0.59766   0.41597   0.00000  Uiso   1.00
H209   H     0.11946   0.49780   0.32557   0.00000  Uiso   1.00
H210   H     0.30900   0.58532   0.41221   0.00000  Uiso   1.00
H211   H     0.13156   0.68443   0.52112   0.00000  Uiso   1.00
H212   H     0.04468   0.42716   0.20802   0.00000  Uiso   1.00
H213   H     0.44432   0.61172   0.39073   0.00000  Uiso   1.00
H214   H     0.07017   0.82071   0.62038   0.00000  Uiso   1.00
H215   H     0.18353   0.90640   0.28255   0.00000  Uiso   1.00
H216   H     0.11624   0.82349   0.18482   0.00000  Uiso   1.00
H217   H     0.30578   0.91101   0.27147   0.00000  Uiso   1.00
H218   H     0.12834   0.01012   0.38037   0.00000  Uiso   1.00
H219   H     0.04207   0.69149   0.09378   0.00000  Uiso   1.00
H220   H     0.44171   0.87606   0.27650   0.00000  Uiso   1.00
H221   H     0.06755   0.08505   0.50615   0.00000  Uiso   1.00
O222   O     0.99919   0.49920   0.08901   0.00000  Uiso   1.00
O223   O     0.52350   0.74135   0.32874   0.00000  Uiso   1.00
O224   O     0.03261   0.01554   0.63003   0.00000  Uiso   1.00
N225   N     0.05329   0.50075   0.19455   0.00000  Uiso   1.00
N226   N     0.42693   0.67330   0.36537   0.00000  Uiso   1.00
N227   N     0.07714   0.86869   0.58008   0.00000  Uiso   1.00
N228   N     0.05188   0.64299   0.13308   0.00000  Uiso   1.00
N229   N     0.42553   0.81553   0.30390   0.00000  Uiso   1.00
N230   N     0.07573   0.01093   0.51861   0.00000  Uiso   1.00
C231   C     0.31413   0.33161   0.38540   0.00000  Uiso   1.00
C232   C     0.35102   0.34305   0.31779   0.00000  Uiso   1.00
C233   C     0.38125   0.43190   0.29517   0.00000  Uiso   1.00
C234   C     0.41244   0.42668   0.23182   0.00000  Uiso   1.00
C235   C     0.46956   0.45827   0.13279   0.00000  Uiso   1.00
C236   C     0.24804   0.29550   0.36485   0.00000  Uiso   1.00
C237   C     0.19168   0.34437   0.38182   0.00000  Uiso   1.00
C238   C     0.13619   0.29912   0.35810   0.00000  Uiso   1.00
C239   C     0.03343   0.25685   0.33219   0.00000  Uiso   1.00
C240   C     0.34445   0.24166   0.42402   0.00000  Uiso   1.00
C241   C     0.36914   0.24524   0.49075   0.00000  Uiso   1.00
C242   C     0.39481   0.15465   0.51685   0.00000  Uiso   1.00
C243   C     0.44174   0.02878   0.58281   0.00000  Uiso   1.00
C244   C     0.31578   0.16434   0.31312   0.00000  Uiso   1.00
C245   C     0.35191   0.25219   0.27852   0.00000  Uiso   1.00
C246   C     0.38307   0.24683   0.21520   0.00000  Uiso   1.00
C247   C     0.41335   0.33566   0.19249   0.00000  Uiso   1.00
C248   C     0.24893   0.20465   0.32559   0.00000  Uiso   1.00
C249   C     0.19351   0.15930   0.30185   0.00000  Uiso   1.00
C250   C     0.13709   0.20810   0.31877   0.00000  Uiso   1.00
C251   C     0.34535   0.15080   0.38476   0.00000  Uiso   1.00
C252   C     0.37097   0.06018   0.41077   0.00000  Uiso   1.00
C253   C     0.39570   0.06363   0.47752   0.00000  Uiso   1.00
H254   H     0.31342   0.40234   0.41597   0.00000  Uiso   1.00
H255   H     0.38054   0.50220   0.32557   0.00000  Uiso   1.00
H256   H     0.19100   0.41468   0.41221   0.00000  Uiso   1.00
H257   H     0.36844   0.31557   0.52112   0.00000  Uiso   1.00
H258   H     0.45532   0.57284   0.20802   0.00000  Uiso   1.00
H259   H     0.05568   0.38828   0.39073   0.00000  Uiso   1.00
H260   H     0.42983   0.17929   0.62038   0.00000  Uiso   1.00
H261   H     0.31647   0.09360   0.28255   0.00000  Uiso   1.00
H262   H     0.38376   0.17651   0.18482   0.00000  Uiso   1.00
H263   H     0.19422   0.08899   0.27147   0.00000  Uiso   1.00
H264   H     0.37166   0.98988   0.38037   0.00000  Uiso   1.00
H265   H     0.45793   0.30851   0.09378   0.00000  Uiso   1.00
H266   H     0.05829   0.12394   0.27650   0.00000  Uiso   1.00
H267   H     0.43245   0.91495   0.50615   0.00000  Uiso   1.00
O268   O     0.50081   0.50080   0.08901   0.00000  Uiso   1.00
O269   O     0.97650   0.25865   0.32874   0.00000  Uiso   1.00
O270   O     0.46739   0.98446   0.63003   0.00000  Uiso   1.00
N271   N     0.44671   0.49925   0.19455   0.00000  Uiso   1.00
N272   N     0.07307   0.32670   0.36537   0.00000  Uiso   1.00
N273   N     0.42286   0.13131   0.58008   0.00000  Uiso   1.00
N274   N     0.44812   0.35701   0.13308   0.00000  Uiso   1.00
N275   N     0.07447   0.18447   0.30390   0.00000  Uiso   1.00
N276   N     0.42427   0.98907   0.51861   0.00000  Uiso   1.00
C277   C     0.81413   0.66839   0.11460   0.00000  Uiso   1.00
C278   C     0.85102   0.65695   0.18221   0.00000  Uiso   1.00
C279   C     0.88125   0.56810   0.20483   0.00000  Uiso   1.00
C280   C     0.91244   0.57332   0.26818   0.00000  Uiso   1.00
C281   C     0.96956   0.54173   0.36721   0.00000  Uiso   1.00
C282   C     0.74804   0.70450   0.13515   0.00000  Uiso   1.00
C283   C     0.69168   0.65563   0.11818   0.00000  Uiso   1.00
C284   C     0.63619   0.70088   0.14190   0.00000  Uiso   1.00
C285   C     0.53343   0.74315   0.16781   0.00000  Uiso   1.00
C286   C     0.84445   0.75834   0.07598   0.00000  Uiso   1.00
C287   C     0.86914   0.75476   0.00925   0.00000  Uiso   1.00
C288   C     0.89481   0.84535   0.98315   0.00000  Uiso   1.00
C289   C     0.94174   0.97122   0.91719   0.00000  Uiso   1.00
C290   C     0.81578   0.83566   0.18688   0.00000  Uiso   1.00
C291   C     0.85191   0.74781   0.22148   0.00000  Uiso   1.00
C292   C     0.88307   0.75317   0.28480   0.00000  Uiso   1.00
C293   C     0.91335   0.66434   0.30751   0.00000  Uiso   1.00
C294   C     0.74893   0.79535   0.17441   0.00000  Uiso   1.00
C295   C     0.69351   0.84070   0.19815   0.00000  Uiso   1.00
C296   C     0.63709   0.79190   0.18123   0.00000  Uiso   1.00
C297   C     0.84535   0.84920   0.11524   0.00000  Uiso   1.00
C298   C     0.87097   0.93982   0.08923   0.00000  Uiso   1.00
C299   C     0.89570   0.93637   0.02248   0.00000  Uiso   1.00
H300   H     0.81342   0.59766   0.08403   0.00000  Uiso   1.00
H301   H     0.88054   0.49780   0.17443   0.00000  Uiso   1.00
H302   H     0.69100   0.58532   0.08779   0.00000  Uiso   1.00
H303   H     0.86844   0.68443   0.97888   0.00000  Uiso   1.00
H304   H     0.95532   0.42716   0.29198   0.00000  Uiso   1.00
H305   H     0.55568   0.61172   0.10927   0.00000  Uiso   1.00
H306   H     0.92983   0.82071   0.87962   0.00000  Uiso   1.00
H307   H     0.81647   0.90640   0.21745   0.00000  Uiso   1.00
H308   H     0.88376   0.82349   0.31518   0.00000  Uiso   1.00
H309   H     0.69422   0.91101   0.22853   0.00000  Uiso   1.00
H310   H     0.87166   0.01012   0.11963   0.00000  Uiso   1.00
H311   H     0.95793   0.69149   0.40622   0.00000  Uiso   1.00
H312   H     0.55829   0.87606   0.22350   0.00000  Uiso   1.00
H313   H     0.93245   0.08505   0.99385   0.00000  Uiso   1.00
O314   O     0.00081   0.49920   0.41099   0.00000  Uiso   1.00
O315   O     0.47650   0.74135   0.17126   0.00000  Uiso   1.00
O316   O     0.96739   0.01554   0.86997   0.00000  Uiso   1.00
N317   N     0.94671   0.50075   0.30545   0.00000  Uiso   1.00
N318   N     0.57307   0.67330   0.13463   0.00000  Uiso   1.00
N319   N     0.92286   0.86869   0.91992   0.00000  Uiso   1.00
N320   N     0.94812   0.64299   0.36692   0.00000  Uiso   1.00
N321   N     0.57447   0.81553   0.19610   0.00000  Uiso   1.00
N322   N     0.92427   0.01093   0.98139   0.00000  Uiso   1.00
C323   C     0.68587   0.33161   0.11460   0.00000  Uiso   1.00
C324   C     0.64898   0.34305   0.18221   0.00000  Uiso   1.00
C325   C     0.61875   0.43190   0.20483   0.00000  Uiso   1.00
C326   C     0.58756   0.42668   0.26818   0.00000  Uiso   1.00
C327   C     0.53044   0.45827   0.36721   0.00000  Uiso   1.00
C328   C     0.75196   0.29550   0.13515   0.00000  Uiso   1.00
C329   C     0.80832   0.34437   0.11818   0.00000  Uiso   1.00
C330   C     0.86381   0.29912   0.14190   0.00000  Uiso   1.00
C331   C     0.96657   0.25685   0.16781   0.00000  Uiso   1.00
C332   C     0.65555   0.24166   0.07598   0.00000  Uiso   1.00
C333   C     0.63086   0.24524   0.00925   0.00000  Uiso   1.00
C334   C     0.60519   0.15465   0.98315   0.00000  Uiso   1.00
C335   C     0.55826   0.02878   0.91719   0.00000  Uiso   1.00
C336   C     0.68422   0.16434   0.18688   0.00000  Uiso   1.00
C337   C     0.64809   0.25219   0.22148   0.00000  Uiso   1.00
C338   C     0.61693   0.24683   0.28480   0.00000  Uiso   1.00
C339   C     0.58665   0.33566   0.30751   0.00000  Uiso   1.00
C340   C     0.75107   0.20465   0.17441   0.00000  Uiso   1.00
C341   C     0.80649   0.15930   0.19815   0.00000  Uiso   1.00
C342   C     0.86291   0.20810   0.18123   0.00000  Uiso   1.00
C343   C     0.65465   0.15080   0.11524   0.00000  Uiso   1.00
C344   C     0.62903   0.06018   0.08923   0.00000  Uiso   1.00
C345   C     0.60430   0.06363   0.02248   0.00000  Uiso   1.00
H346   H     0.68658   0.40234   0.08403   0.00000  Uiso   1.00
H347   H     0.61946   0.50220   0.17443   0.00000  Uiso   1.00
H348   H     0.80900   0.41468   0.08779   0.00000  Uiso   1.00
H349   H     0.63156   0.31557   0.97888   0.00000  Uiso   1.00
H350   H     0.54468   0.57284   0.29198   0.00000  Uiso   1.00
H351   H     0.94432   0.38828   0.10927   0.00000  Uiso   1.00
H352   H     0.57017   0.17929   0.87962   0.00000  Uiso   1.00
H353   H     0.68353   0.09360   0.21745   0.00000  Uiso   1.00
H354   H     0.61624   0.17651   0.31518   0.00000  Uiso   1.00
H355   H     0.80578   0.08899   0.22853   0.00000  Uiso   1.00
H356   H     0.62834   0.98988   0.11963   0.00000  Uiso   1.00
H357   H     0.54207   0.30851   0.40622   0.00000  Uiso   1.00
H358   H     0.94171   0.12394   0.22350   0.00000  Uiso   1.00
H359   H     0.56755   0.91495   0.99385   0.00000  Uiso   1.00
O360   O     0.49919   0.50080   0.41099   0.00000  Uiso   1.00
O361   O     0.02350   0.25865   0.17126   0.00000  Uiso   1.00
O362   O     0.53261   0.98446   0.86997   0.00000  Uiso   1.00
N363   N     0.55329   0.49925   0.30545   0.00000  Uiso   1.00
N364   N     0.92693   0.32670   0.13463   0.00000  Uiso   1.00
N365   N     0.57714   0.13131   0.91992   0.00000  Uiso   1.00
N366   N     0.55188   0.35701   0.36692   0.00000  Uiso   1.00
N367   N     0.92553   0.18447   0.19610   0.00000  Uiso   1.00
N368   N     0.57573   0.98907   0.98139   0.00000  Uiso   1.00
