data_job_01164
_audit_creation_date              2018-12-19
_audit_creation_method            'Materials Studio'
_symmetry_space_group_name_H-M    'P1'
_symmetry_Int_Tables_number       1
_symmetry_cell_setting            triclinic
loop_
_symmetry_equiv_pos_as_xyz
  x,y,z
_cell_length_a                    13.6588
_cell_length_b                    21.0349
_cell_length_c                    17.8866
_cell_angle_alpha                 90.0000
_cell_angle_beta                  79.0169
_cell_angle_gamma                 90.0000
loop_
_atom_site_label
_atom_site_type_symbol
_atom_site_fract_x
_atom_site_fract_y
_atom_site_fract_z
_atom_site_U_iso_or_equiv
_atom_site_adp_type
_atom_site_occupancy
C1     C     0.43360   0.40849   0.87478   0.00000  Uiso   1.00
C2     C     0.39277   0.37506   0.81154   0.00000  Uiso   1.00
C3     C     0.29950   0.34694   0.81900   0.00000  Uiso   1.00
C4     C     0.27618   0.31878   0.75440   0.00000  Uiso   1.00
C5     C     0.20252   0.26683   0.66679   0.00000  Uiso   1.00
C6     C     0.53128   0.37506   0.87953   0.00000  Uiso   1.00
C7     C     0.55448   0.34695   0.94417   0.00000  Uiso   1.00
C8     C     0.64777   0.31880   0.93681   0.00000  Uiso   1.00
C9     C     0.78918   0.26689   0.95478   0.00000  Uiso   1.00
C10    C     0.46203   0.47536   0.84555   0.00000  Uiso   1.00
C11    C     0.42702   0.53159   0.88161   0.00000  Uiso   1.00
C12    C     0.46202   0.58789   0.84564   0.00000  Uiso   1.00
C13    C     0.49591   0.69172   0.81084   0.00000  Uiso   1.00
C14    C     0.55805   0.40850   0.74678   0.00000  Uiso   1.00
C15    C     0.46037   0.37506   0.74202   0.00000  Uiso   1.00
C16    C     0.43719   0.34694   0.67739   0.00000  Uiso   1.00
C17    C     0.34390   0.31878   0.68475   0.00000  Uiso   1.00
C18    C     0.59888   0.37506   0.81002   0.00000  Uiso   1.00
C19    C     0.69216   0.34695   0.80256   0.00000  Uiso   1.00
C20    C     0.71549   0.31880   0.86716   0.00000  Uiso   1.00
C21    C     0.52962   0.47537   0.77602   0.00000  Uiso   1.00
C22    C     0.56470   0.53159   0.73999   0.00000  Uiso   1.00
C23    C     0.52974   0.58789   0.77599   0.00000  Uiso   1.00
H24    H     0.38098   0.40849   0.92890   0.00000  Uiso   1.00
H25    H     0.24721   0.34694   0.87281   0.00000  Uiso   1.00
H26    H     0.50216   0.34696   0.99796   0.00000  Uiso   1.00
H27    H     0.37471   0.53157   0.93541   0.00000  Uiso   1.00
H28    H     0.12873   0.27868   0.77997   0.00000  Uiso   1.00
H29    H     0.66631   0.27873   0.04387   0.00000  Uiso   1.00
H30    H     0.39756   0.66803   0.91196   0.00000  Uiso   1.00
H31    H     0.61068   0.40850   0.69266   0.00000  Uiso   1.00
H32    H     0.48951   0.34695   0.62360   0.00000  Uiso   1.00
H33    H     0.74445   0.34696   0.74875   0.00000  Uiso   1.00
H34    H     0.61701   0.53158   0.68620   0.00000  Uiso   1.00
H35    H     0.32539   0.27868   0.57770   0.00000  Uiso   1.00
H36    H     0.86297   0.27874   0.84160   0.00000  Uiso   1.00
H37    H     0.59422   0.66803   0.70969   0.00000  Uiso   1.00
O38    O     0.14323   0.23817   0.63767   0.00000  Uiso   1.00
O39    O     0.84850   0.23825   0.98390   0.00000  Uiso   1.00
O40    O     0.49592   0.74899   0.81084   0.00000  Uiso   1.00
N41    N     0.19164   0.28714   0.74184   0.00000  Uiso   1.00
N42    N     0.69423   0.28718   0.98856   0.00000  Uiso   1.00
N43    N     0.44300   0.65113   0.86525   0.00000  Uiso   1.00
N44    N     0.29746   0.28714   0.63300   0.00000  Uiso   1.00
N45    N     0.80005   0.28718   0.87972   0.00000  Uiso   1.00
N46    N     0.54882   0.65114   0.75641   0.00000  Uiso   1.00
C47    C     0.93360   0.90849   0.87478   0.00000  Uiso   1.00
C48    C     0.89277   0.87506   0.81154   0.00000  Uiso   1.00
C49    C     0.79950   0.84694   0.81900   0.00000  Uiso   1.00
C50    C     0.77618   0.81878   0.75440   0.00000  Uiso   1.00
C51    C     0.70252   0.76683   0.66679   0.00000  Uiso   1.00
C52    C     0.03128   0.87506   0.87953   0.00000  Uiso   1.00
C53    C     0.05448   0.84695   0.94417   0.00000  Uiso   1.00
C54    C     0.14777   0.81880   0.93681   0.00000  Uiso   1.00
C55    C     0.28918   0.76689   0.95478   0.00000  Uiso   1.00
C56    C     0.96203   0.97536   0.84555   0.00000  Uiso   1.00
C57    C     0.92702   0.03159   0.88161   0.00000  Uiso   1.00
C58    C     0.96202   0.08789   0.84564   0.00000  Uiso   1.00
C59    C     0.99591   0.19172   0.81084   0.00000  Uiso   1.00
C60    C     0.05805   0.90850   0.74678   0.00000  Uiso   1.00
C61    C     0.96037   0.87506   0.74202   0.00000  Uiso   1.00
C62    C     0.93719   0.84694   0.67739   0.00000  Uiso   1.00
C63    C     0.84390   0.81878   0.68475   0.00000  Uiso   1.00
C64    C     0.09888   0.87506   0.81002   0.00000  Uiso   1.00
C65    C     0.19216   0.84695   0.80256   0.00000  Uiso   1.00
C66    C     0.21549   0.81880   0.86716   0.00000  Uiso   1.00
C67    C     0.02962   0.97537   0.77602   0.00000  Uiso   1.00
C68    C     0.06470   0.03159   0.73999   0.00000  Uiso   1.00
C69    C     0.02974   0.08789   0.77599   0.00000  Uiso   1.00
H70    H     0.88098   0.90849   0.92890   0.00000  Uiso   1.00
H71    H     0.74721   0.84694   0.87281   0.00000  Uiso   1.00
H72    H     0.00216   0.84696   0.99796   0.00000  Uiso   1.00
H73    H     0.87471   0.03157   0.93541   0.00000  Uiso   1.00
H74    H     0.62873   0.77868   0.77997   0.00000  Uiso   1.00
H75    H     0.16631   0.77873   0.04387   0.00000  Uiso   1.00
H76    H     0.89756   0.16803   0.91196   0.00000  Uiso   1.00
H77    H     0.11068   0.90850   0.69266   0.00000  Uiso   1.00
H78    H     0.98951   0.84695   0.62360   0.00000  Uiso   1.00
H79    H     0.24445   0.84696   0.74875   0.00000  Uiso   1.00
H80    H     0.11701   0.03158   0.68620   0.00000  Uiso   1.00
H81    H     0.82539   0.77868   0.57770   0.00000  Uiso   1.00
H82    H     0.36297   0.77874   0.84160   0.00000  Uiso   1.00
H83    H     0.09422   0.16803   0.70969   0.00000  Uiso   1.00
O84    O     0.64323   0.73817   0.63767   0.00000  Uiso   1.00
O85    O     0.34850   0.73825   0.98390   0.00000  Uiso   1.00
O86    O     0.99592   0.24899   0.81084   0.00000  Uiso   1.00
N87    N     0.69164   0.78714   0.74184   0.00000  Uiso   1.00
N88    N     0.19423   0.78718   0.98856   0.00000  Uiso   1.00
N89    N     0.94300   0.15113   0.86525   0.00000  Uiso   1.00
N90    N     0.79746   0.78714   0.63300   0.00000  Uiso   1.00
N91    N     0.30005   0.78718   0.87972   0.00000  Uiso   1.00
N92    N     0.04882   0.15114   0.75641   0.00000  Uiso   1.00
C93    C     0.43360   0.59151   0.37478   0.00000  Uiso   1.00
C94    C     0.39277   0.62494   0.31154   0.00000  Uiso   1.00
C95    C     0.29950   0.65306   0.31900   0.00000  Uiso   1.00
C96    C     0.27618   0.68122   0.25440   0.00000  Uiso   1.00
C97    C     0.20252   0.73317   0.16679   0.00000  Uiso   1.00
C98    C     0.53128   0.62494   0.37953   0.00000  Uiso   1.00
C99    C     0.55448   0.65305   0.44417   0.00000  Uiso   1.00
C100   C     0.64777   0.68120   0.43681   0.00000  Uiso   1.00
C101   C     0.78918   0.73311   0.45478   0.00000  Uiso   1.00
C102   C     0.46203   0.52464   0.34555   0.00000  Uiso   1.00
C103   C     0.42702   0.46841   0.38161   0.00000  Uiso   1.00
C104   C     0.46202   0.41211   0.34564   0.00000  Uiso   1.00
C105   C     0.49591   0.30828   0.31084   0.00000  Uiso   1.00
C106   C     0.55805   0.59150   0.24678   0.00000  Uiso   1.00
C107   C     0.46037   0.62494   0.24202   0.00000  Uiso   1.00
C108   C     0.43719   0.65306   0.17739   0.00000  Uiso   1.00
C109   C     0.34390   0.68122   0.18475   0.00000  Uiso   1.00
C110   C     0.59888   0.62494   0.31002   0.00000  Uiso   1.00
C111   C     0.69216   0.65305   0.30256   0.00000  Uiso   1.00
C112   C     0.71549   0.68120   0.36716   0.00000  Uiso   1.00
C113   C     0.52962   0.52463   0.27602   0.00000  Uiso   1.00
C114   C     0.56470   0.46841   0.23999   0.00000  Uiso   1.00
C115   C     0.52974   0.41211   0.27599   0.00000  Uiso   1.00
H116   H     0.38098   0.59151   0.42890   0.00000  Uiso   1.00
H117   H     0.24721   0.65306   0.37281   0.00000  Uiso   1.00
H118   H     0.50216   0.65304   0.49796   0.00000  Uiso   1.00
H119   H     0.37471   0.46843   0.43541   0.00000  Uiso   1.00
H120   H     0.12873   0.72132   0.27997   0.00000  Uiso   1.00
H121   H     0.66631   0.72127   0.54387   0.00000  Uiso   1.00
H122   H     0.39756   0.33197   0.41196   0.00000  Uiso   1.00
H123   H     0.61068   0.59150   0.19266   0.00000  Uiso   1.00
H124   H     0.48951   0.65305   0.12360   0.00000  Uiso   1.00
H125   H     0.74445   0.65304   0.24875   0.00000  Uiso   1.00
H126   H     0.61701   0.46842   0.18620   0.00000  Uiso   1.00
H127   H     0.32539   0.72132   0.07770   0.00000  Uiso   1.00
H128   H     0.86297   0.72126   0.34160   0.00000  Uiso   1.00
H129   H     0.59422   0.33197   0.20969   0.00000  Uiso   1.00
O130   O     0.14323   0.76183   0.13767   0.00000  Uiso   1.00
O131   O     0.84850   0.76175   0.48390   0.00000  Uiso   1.00
O132   O     0.49592   0.25101   0.31084   0.00000  Uiso   1.00
N133   N     0.19164   0.71286   0.24184   0.00000  Uiso   1.00
N134   N     0.69423   0.71282   0.48856   0.00000  Uiso   1.00
N135   N     0.44300   0.34887   0.36525   0.00000  Uiso   1.00
N136   N     0.29746   0.71286   0.13300   0.00000  Uiso   1.00
N137   N     0.80005   0.71282   0.37972   0.00000  Uiso   1.00
N138   N     0.54882   0.34886   0.25641   0.00000  Uiso   1.00
C139   C     0.93360   0.09151   0.37478   0.00000  Uiso   1.00
C140   C     0.89277   0.12494   0.31154   0.00000  Uiso   1.00
C141   C     0.79950   0.15306   0.31900   0.00000  Uiso   1.00
C142   C     0.77618   0.18122   0.25440   0.00000  Uiso   1.00
C143   C     0.70252   0.23317   0.16679   0.00000  Uiso   1.00
C144   C     0.03128   0.12494   0.37953   0.00000  Uiso   1.00
C145   C     0.05448   0.15305   0.44417   0.00000  Uiso   1.00
C146   C     0.14777   0.18120   0.43681   0.00000  Uiso   1.00
C147   C     0.28918   0.23311   0.45478   0.00000  Uiso   1.00
C148   C     0.96203   0.02464   0.34555   0.00000  Uiso   1.00
C149   C     0.92702   0.96841   0.38161   0.00000  Uiso   1.00
C150   C     0.96202   0.91211   0.34564   0.00000  Uiso   1.00
C151   C     0.99591   0.80828   0.31084   0.00000  Uiso   1.00
C152   C     0.05805   0.09150   0.24678   0.00000  Uiso   1.00
C153   C     0.96037   0.12494   0.24202   0.00000  Uiso   1.00
C154   C     0.93719   0.15306   0.17739   0.00000  Uiso   1.00
C155   C     0.84390   0.18122   0.18475   0.00000  Uiso   1.00
C156   C     0.09888   0.12494   0.31002   0.00000  Uiso   1.00
C157   C     0.19216   0.15305   0.30256   0.00000  Uiso   1.00
C158   C     0.21549   0.18120   0.36716   0.00000  Uiso   1.00
C159   C     0.02962   0.02463   0.27602   0.00000  Uiso   1.00
C160   C     0.06470   0.96841   0.23999   0.00000  Uiso   1.00
C161   C     0.02974   0.91211   0.27599   0.00000  Uiso   1.00
H162   H     0.88098   0.09151   0.42890   0.00000  Uiso   1.00
H163   H     0.74721   0.15306   0.37281   0.00000  Uiso   1.00
H164   H     0.00216   0.15304   0.49796   0.00000  Uiso   1.00
H165   H     0.87471   0.96843   0.43541   0.00000  Uiso   1.00
H166   H     0.62873   0.22132   0.27997   0.00000  Uiso   1.00
H167   H     0.16631   0.22127   0.54387   0.00000  Uiso   1.00
H168   H     0.89756   0.83197   0.41196   0.00000  Uiso   1.00
H169   H     0.11068   0.09150   0.19266   0.00000  Uiso   1.00
H170   H     0.98951   0.15305   0.12360   0.00000  Uiso   1.00
H171   H     0.24445   0.15304   0.24875   0.00000  Uiso   1.00
H172   H     0.11701   0.96842   0.18620   0.00000  Uiso   1.00
H173   H     0.82539   0.22132   0.07770   0.00000  Uiso   1.00
H174   H     0.36297   0.22126   0.34160   0.00000  Uiso   1.00
H175   H     0.09422   0.83197   0.20969   0.00000  Uiso   1.00
O176   O     0.64323   0.26183   0.13767   0.00000  Uiso   1.00
O177   O     0.34850   0.26175   0.48390   0.00000  Uiso   1.00
O178   O     0.99592   0.75101   0.31084   0.00000  Uiso   1.00
N179   N     0.69164   0.21286   0.24184   0.00000  Uiso   1.00
N180   N     0.19423   0.21282   0.48856   0.00000  Uiso   1.00
N181   N     0.94300   0.84887   0.36525   0.00000  Uiso   1.00
N182   N     0.79746   0.21286   0.13300   0.00000  Uiso   1.00
N183   N     0.30005   0.21282   0.37972   0.00000  Uiso   1.00
N184   N     0.04882   0.84886   0.25641   0.00000  Uiso   1.00
