data_job_04892
_audit_creation_date              2018-12-19
_audit_creation_method            'Materials Studio'
_symmetry_space_group_name_H-M    'P1'
_symmetry_Int_Tables_number       1
_symmetry_cell_setting            triclinic
loop_
_symmetry_equiv_pos_as_xyz
  x,y,z
_cell_length_a                    13.2213
_cell_length_b                    12.4302
_cell_length_c                    43.4564
_cell_angle_alpha                 90.0000
_cell_angle_beta                  90.0000
_cell_angle_gamma                 90.0000
loop_
_atom_site_label
_atom_site_type_symbol
_atom_site_fract_x
_atom_site_fract_y
_atom_site_fract_z
_atom_site_U_iso_or_equiv
_atom_site_adp_type
_atom_site_occupancy
C1     C     0.09544   0.13132   0.65594   0.00000  Uiso   1.00
C2     C     0.03280   0.04911   0.67370   0.00000  Uiso   1.00
C3     C     0.06830   0.95265   0.68561   0.00000  Uiso   1.00
C4     C     0.99904   0.88856   0.70112   0.00000  Uiso   1.00
C5     C     0.91715   0.75612   0.72815   0.00000  Uiso   1.00
C6     C     0.04172   0.14706   0.62521   0.00000  Uiso   1.00
C7     C     0.08474   0.13297   0.59636   0.00000  Uiso   1.00
C8     C     0.02298   0.15134   0.57106   0.00000  Uiso   1.00
C9     C     0.95497   0.17105   0.52282   0.00000  Uiso   1.00
C10    C     0.08422   0.23732   0.67327   0.00000  Uiso   1.00
C11    C     0.16296   0.29915   0.68481   0.00000  Uiso   1.00
C12    C     0.13699   0.39353   0.69996   0.00000  Uiso   1.00
C13    C     0.13496   0.55339   0.72633   0.00000  Uiso   1.00
C14    C     0.90930   0.18903   0.66231   0.00000  Uiso   1.00
C15    C     0.93170   0.08046   0.67715   0.00000  Uiso   1.00
C16    C     0.86236   0.01650   0.69265   0.00000  Uiso   1.00
C17    C     0.89776   0.91997   0.70459   0.00000  Uiso   1.00
C18    C     0.94062   0.17841   0.62867   0.00000  Uiso   1.00
C19    C     0.87880   0.19682   0.60340   0.00000  Uiso   1.00
C20    C     0.92170   0.18275   0.57452   0.00000  Uiso   1.00
C21    C     0.98312   0.26867   0.67672   0.00000  Uiso   1.00
C22    C     0.95702   0.36299   0.69186   0.00000  Uiso   1.00
C23    C     0.03571   0.42494   0.70342   0.00000  Uiso   1.00
H24    H     0.17415   0.10691   0.65324   0.00000  Uiso   1.00
H25    H     0.14655   0.92842   0.68293   0.00000  Uiso   1.00
H26    H     0.16298   0.10872   0.59369   0.00000  Uiso   1.00
H27    H     0.24119   0.27486   0.68213   0.00000  Uiso   1.00
H28    H     0.07135   0.74433   0.71735   0.00000  Uiso   1.00
H29    H     0.10601   0.12453   0.52919   0.00000  Uiso   1.00
H30    H     0.27094   0.47489   0.71568   0.00000  Uiso   1.00
H31    H     0.83058   0.21344   0.66500   0.00000  Uiso   1.00
H32    H     0.78413   0.04078   0.69532   0.00000  Uiso   1.00
H33    H     0.80056   0.22108   0.60609   0.00000  Uiso   1.00
H34    H     0.87877   0.38722   0.69453   0.00000  Uiso   1.00
H35    H     0.77720   0.83552   0.72741   0.00000  Uiso   1.00
H36    H     0.81186   0.21573   0.53926   0.00000  Uiso   1.00
H37    H     0.97679   0.56608   0.72574   0.00000  Uiso   1.00
O38    O     0.89991   0.67441   0.74211   0.00000  Uiso   1.00
O39    O     0.94539   0.17324   0.49526   0.00000  Uiso   1.00
O40    O     0.16177   0.63289   0.73992   0.00000  Uiso   1.00
N41    N     0.00850   0.78949   0.71556   0.00000  Uiso   1.00
N42    N     0.04090   0.14495   0.53965   0.00000  Uiso   1.00
N43    N     0.19510   0.47251   0.71399   0.00000  Uiso   1.00
N44    N     0.85022   0.83857   0.72097   0.00000  Uiso   1.00
N45    N     0.88262   0.19402   0.54506   0.00000  Uiso   1.00
N46    N     0.03682   0.52159   0.71940   0.00000  Uiso   1.00
C47    C     0.96237   0.09176   0.34786   0.00000  Uiso   1.00
C48    C     0.01176   0.16894   0.32509   0.00000  Uiso   1.00
C49    C     0.96807   0.26170   0.31330   0.00000  Uiso   1.00
C50    C     0.02563   0.32146   0.29276   0.00000  Uiso   1.00
C51    C     0.08747   0.44619   0.25871   0.00000  Uiso   1.00
C52    C     0.03412   0.08473   0.37526   0.00000  Uiso   1.00
C53    C     0.00922   0.10668   0.40564   0.00000  Uiso   1.00
C54    C     0.08561   0.09554   0.42733   0.00000  Uiso   1.00
C55    C     0.18214   0.08946   0.47116   0.00000  Uiso   1.00
C56    C     0.96454   0.98131   0.33260   0.00000  Uiso   1.00
C57    C     0.88114   0.91628   0.32713   0.00000  Uiso   1.00
C58    C     0.89895   0.81805   0.31291   0.00000  Uiso   1.00
C59    C     0.88745   0.65139   0.29051   0.00000  Uiso   1.00
C60    C     0.14231   0.03295   0.33236   0.00000  Uiso   1.00
C61    C     0.10950   0.13699   0.31668   0.00000  Uiso   1.00
C62    C     0.16714   0.19663   0.29615   0.00000  Uiso   1.00
C63    C     0.12354   0.28946   0.28433   0.00000  Uiso   1.00
C64    C     0.13185   0.05279   0.36684   0.00000  Uiso   1.00
C65    C     0.20830   0.04161   0.38849   0.00000  Uiso   1.00
C66    C     0.18352   0.06354   0.41890   0.00000  Uiso   1.00
C67    C     0.06228   0.94936   0.32418   0.00000  Uiso   1.00
C68    C     0.08022   0.85121   0.30998   0.00000  Uiso   1.00
C69    C     0.99686   0.78604   0.30448   0.00000  Uiso   1.00
H70    H     0.88629   0.11663   0.35441   0.00000  Uiso   1.00
H71    H     0.89243   0.28640   0.31982   0.00000  Uiso   1.00
H72    H     0.93358   0.13139   0.41215   0.00000  Uiso   1.00
H73    H     0.80552   0.94102   0.33365   0.00000  Uiso   1.00
H74    H     0.94236   0.46055   0.27777   0.00000  Uiso   1.00
H75    H     0.02911   0.13367   0.47245   0.00000  Uiso   1.00
H76    H     0.75907   0.73224   0.30691   0.00000  Uiso   1.00
H77    H     0.21840   0.00807   0.32580   0.00000  Uiso   1.00
H78    H     0.24277   0.17189   0.28964   0.00000  Uiso   1.00
H79    H     0.28392   0.01688   0.38197   0.00000  Uiso   1.00
H80    H     0.15586   0.82652   0.30347   0.00000  Uiso   1.00
H81    H     0.22671   0.36761   0.25327   0.00000  Uiso   1.00
H82    H     0.31346   0.04072   0.44795   0.00000  Uiso   1.00
H83    H     0.04342   0.63931   0.28241   0.00000  Uiso   1.00
O84    O     0.09459   0.52382   0.24225   0.00000  Uiso   1.00
O85    O     0.20839   0.09494   0.49767   0.00000  Uiso   1.00
O86    O     0.85411   0.56829   0.28048   0.00000  Uiso   1.00
N87    N     0.00593   0.41619   0.27696   0.00000  Uiso   1.00
N88    N     0.08704   0.11059   0.45897   0.00000  Uiso   1.00
N89    N     0.83458   0.73528   0.30421   0.00000  Uiso   1.00
N90    N     0.15894   0.36618   0.26378   0.00000  Uiso   1.00
N91    N     0.24005   0.06058   0.44579   0.00000  Uiso   1.00
N92    N     0.98759   0.68527   0.29103   0.00000  Uiso   1.00
C93    C     0.40456   0.86868   0.15594   0.00000  Uiso   1.00
C94    C     0.46720   0.95089   0.17370   0.00000  Uiso   1.00
C95    C     0.43170   0.04735   0.18561   0.00000  Uiso   1.00
C96    C     0.50096   0.11144   0.20112   0.00000  Uiso   1.00
C97    C     0.58285   0.24388   0.22815   0.00000  Uiso   1.00
C98    C     0.45828   0.85294   0.12521   0.00000  Uiso   1.00
C99    C     0.41526   0.86703   0.09636   0.00000  Uiso   1.00
C100   C     0.47702   0.84866   0.07106   0.00000  Uiso   1.00
C101   C     0.54503   0.82895   0.02282   0.00000  Uiso   1.00
C102   C     0.41578   0.76268   0.17327   0.00000  Uiso   1.00
C103   C     0.33704   0.70085   0.18481   0.00000  Uiso   1.00
C104   C     0.36301   0.60647   0.19996   0.00000  Uiso   1.00
C105   C     0.36504   0.44661   0.22633   0.00000  Uiso   1.00
C106   C     0.59070   0.81097   0.16231   0.00000  Uiso   1.00
C107   C     0.56830   0.91954   0.17715   0.00000  Uiso   1.00
C108   C     0.63764   0.98350   0.19265   0.00000  Uiso   1.00
C109   C     0.60224   0.08003   0.20459   0.00000  Uiso   1.00
C110   C     0.55938   0.82159   0.12867   0.00000  Uiso   1.00
C111   C     0.62120   0.80318   0.10340   0.00000  Uiso   1.00
C112   C     0.57830   0.81725   0.07452   0.00000  Uiso   1.00
C113   C     0.51688   0.73133   0.17672   0.00000  Uiso   1.00
C114   C     0.54298   0.63701   0.19186   0.00000  Uiso   1.00
C115   C     0.46429   0.57506   0.20342   0.00000  Uiso   1.00
H116   H     0.32585   0.89309   0.15324   0.00000  Uiso   1.00
H117   H     0.35345   0.07158   0.18293   0.00000  Uiso   1.00
H118   H     0.33702   0.89128   0.09369   0.00000  Uiso   1.00
H119   H     0.25881   0.72514   0.18213   0.00000  Uiso   1.00
H120   H     0.42865   0.25567   0.21735   0.00000  Uiso   1.00
H121   H     0.39399   0.87547   0.02919   0.00000  Uiso   1.00
H122   H     0.22906   0.52511   0.21568   0.00000  Uiso   1.00
H123   H     0.66942   0.78656   0.16500   0.00000  Uiso   1.00
H124   H     0.71587   0.95922   0.19532   0.00000  Uiso   1.00
H125   H     0.69944   0.77892   0.10609   0.00000  Uiso   1.00
H126   H     0.62123   0.61278   0.19453   0.00000  Uiso   1.00
H127   H     0.72280   0.16448   0.22741   0.00000  Uiso   1.00
H128   H     0.68814   0.78427   0.03926   0.00000  Uiso   1.00
H129   H     0.52321   0.43392   0.22574   0.00000  Uiso   1.00
O130   O     0.60009   0.32559   0.24211   0.00000  Uiso   1.00
O131   O     0.55461   0.82676   0.99526   0.00000  Uiso   1.00
O132   O     0.33823   0.36711   0.23992   0.00000  Uiso   1.00
N133   N     0.49150   0.21051   0.21556   0.00000  Uiso   1.00
N134   N     0.45910   0.85505   0.03965   0.00000  Uiso   1.00
N135   N     0.30490   0.52749   0.21399   0.00000  Uiso   1.00
N136   N     0.64978   0.16143   0.22097   0.00000  Uiso   1.00
N137   N     0.61738   0.80598   0.04506   0.00000  Uiso   1.00
N138   N     0.46318   0.47841   0.21940   0.00000  Uiso   1.00
C139   C     0.53763   0.90824   0.84786   0.00000  Uiso   1.00
C140   C     0.48824   0.83106   0.82509   0.00000  Uiso   1.00
C141   C     0.53193   0.73830   0.81330   0.00000  Uiso   1.00
C142   C     0.47437   0.67854   0.79276   0.00000  Uiso   1.00
C143   C     0.41253   0.55381   0.75871   0.00000  Uiso   1.00
C144   C     0.46588   0.91527   0.87526   0.00000  Uiso   1.00
C145   C     0.49078   0.89332   0.90564   0.00000  Uiso   1.00
C146   C     0.41439   0.90446   0.92733   0.00000  Uiso   1.00
C147   C     0.31786   0.91054   0.97116   0.00000  Uiso   1.00
C148   C     0.53546   0.01869   0.83260   0.00000  Uiso   1.00
C149   C     0.61886   0.08372   0.82713   0.00000  Uiso   1.00
C150   C     0.60105   0.18195   0.81291   0.00000  Uiso   1.00
C151   C     0.61255   0.34861   0.79051   0.00000  Uiso   1.00
C152   C     0.35769   0.96705   0.83236   0.00000  Uiso   1.00
C153   C     0.39050   0.86301   0.81668   0.00000  Uiso   1.00
C154   C     0.33286   0.80337   0.79615   0.00000  Uiso   1.00
C155   C     0.37646   0.71054   0.78433   0.00000  Uiso   1.00
C156   C     0.36815   0.94721   0.86684   0.00000  Uiso   1.00
C157   C     0.29170   0.95839   0.88849   0.00000  Uiso   1.00
C158   C     0.31648   0.93646   0.91890   0.00000  Uiso   1.00
C159   C     0.43772   0.05064   0.82418   0.00000  Uiso   1.00
C160   C     0.41978   0.14879   0.80998   0.00000  Uiso   1.00
C161   C     0.50314   0.21396   0.80448   0.00000  Uiso   1.00
H162   H     0.61371   0.88337   0.85441   0.00000  Uiso   1.00
H163   H     0.60757   0.71360   0.81982   0.00000  Uiso   1.00
H164   H     0.56642   0.86861   0.91215   0.00000  Uiso   1.00
H165   H     0.69448   0.05898   0.83365   0.00000  Uiso   1.00
H166   H     0.55764   0.53945   0.77777   0.00000  Uiso   1.00
H167   H     0.47089   0.86633   0.97245   0.00000  Uiso   1.00
H168   H     0.74093   0.26776   0.80691   0.00000  Uiso   1.00
H169   H     0.28160   0.99193   0.82580   0.00000  Uiso   1.00
H170   H     0.25723   0.82811   0.78964   0.00000  Uiso   1.00
H171   H     0.21608   0.98312   0.88197   0.00000  Uiso   1.00
H172   H     0.34414   0.17348   0.80347   0.00000  Uiso   1.00
H173   H     0.27329   0.63239   0.75327   0.00000  Uiso   1.00
H174   H     0.18654   0.95928   0.94795   0.00000  Uiso   1.00
H175   H     0.45658   0.36069   0.78241   0.00000  Uiso   1.00
O176   O     0.40541   0.47618   0.74225   0.00000  Uiso   1.00
O177   O     0.29161   0.90506   0.99767   0.00000  Uiso   1.00
O178   O     0.64589   0.43171   0.78048   0.00000  Uiso   1.00
N179   N     0.49407   0.58381   0.77696   0.00000  Uiso   1.00
N180   N     0.41296   0.88941   0.95897   0.00000  Uiso   1.00
N181   N     0.66542   0.26472   0.80421   0.00000  Uiso   1.00
N182   N     0.34106   0.63382   0.76378   0.00000  Uiso   1.00
N183   N     0.25995   0.93942   0.94579   0.00000  Uiso   1.00
N184   N     0.51241   0.31473   0.79103   0.00000  Uiso   1.00
C185   C     0.90456   0.63132   0.84406   0.00000  Uiso   1.00
C186   C     0.96720   0.54911   0.82630   0.00000  Uiso   1.00
C187   C     0.93170   0.45265   0.81439   0.00000  Uiso   1.00
C188   C     0.00096   0.38856   0.79888   0.00000  Uiso   1.00
C189   C     0.08285   0.25612   0.77185   0.00000  Uiso   1.00
C190   C     0.95828   0.64706   0.87479   0.00000  Uiso   1.00
C191   C     0.91526   0.63297   0.90364   0.00000  Uiso   1.00
C192   C     0.97702   0.65134   0.92894   0.00000  Uiso   1.00
C193   C     0.04503   0.67105   0.97718   0.00000  Uiso   1.00
C194   C     0.91578   0.73732   0.82673   0.00000  Uiso   1.00
C195   C     0.83704   0.79915   0.81519   0.00000  Uiso   1.00
C196   C     0.86301   0.89353   0.80004   0.00000  Uiso   1.00
C197   C     0.86504   0.05339   0.77367   0.00000  Uiso   1.00
C198   C     0.09070   0.68903   0.83769   0.00000  Uiso   1.00
C199   C     0.06830   0.58046   0.82285   0.00000  Uiso   1.00
C200   C     0.13764   0.51650   0.80735   0.00000  Uiso   1.00
C201   C     0.10224   0.41997   0.79541   0.00000  Uiso   1.00
C202   C     0.05938   0.67841   0.87133   0.00000  Uiso   1.00
C203   C     0.12120   0.69682   0.89660   0.00000  Uiso   1.00
C204   C     0.07830   0.68275   0.92548   0.00000  Uiso   1.00
C205   C     0.01688   0.76867   0.82328   0.00000  Uiso   1.00
C206   C     0.04298   0.86299   0.80814   0.00000  Uiso   1.00
C207   C     0.96429   0.92494   0.79658   0.00000  Uiso   1.00
H208   H     0.82585   0.60691   0.84676   0.00000  Uiso   1.00
H209   H     0.85345   0.42842   0.81707   0.00000  Uiso   1.00
H210   H     0.83702   0.60872   0.90631   0.00000  Uiso   1.00
H211   H     0.75881   0.77486   0.81787   0.00000  Uiso   1.00
H212   H     0.92865   0.24433   0.78265   0.00000  Uiso   1.00
H213   H     0.89399   0.62453   0.97081   0.00000  Uiso   1.00
H214   H     0.72906   0.97489   0.78432   0.00000  Uiso   1.00
H215   H     0.16942   0.71344   0.83500   0.00000  Uiso   1.00
H216   H     0.21587   0.54078   0.80468   0.00000  Uiso   1.00
H217   H     0.19944   0.72108   0.89391   0.00000  Uiso   1.00
H218   H     0.12123   0.88722   0.80547   0.00000  Uiso   1.00
H219   H     0.22280   0.33552   0.77259   0.00000  Uiso   1.00
H220   H     0.18814   0.71573   0.96074   0.00000  Uiso   1.00
H221   H     0.02321   0.06608   0.77426   0.00000  Uiso   1.00
O222   O     0.10009   0.17441   0.75789   0.00000  Uiso   1.00
O223   O     0.05461   0.67324   0.00474   0.00000  Uiso   1.00
O224   O     0.83823   0.13289   0.76008   0.00000  Uiso   1.00
N225   N     0.99150   0.28949   0.78444   0.00000  Uiso   1.00
N226   N     0.95910   0.64495   0.96035   0.00000  Uiso   1.00
N227   N     0.80490   0.97251   0.78601   0.00000  Uiso   1.00
N228   N     0.14978   0.33857   0.77903   0.00000  Uiso   1.00
N229   N     0.11738   0.69402   0.95494   0.00000  Uiso   1.00
N230   N     0.96318   0.02159   0.78060   0.00000  Uiso   1.00
C231   C     0.03763   0.59176   0.15214   0.00000  Uiso   1.00
C232   C     0.98824   0.66894   0.17491   0.00000  Uiso   1.00
C233   C     0.03193   0.76170   0.18670   0.00000  Uiso   1.00
C234   C     0.97437   0.82146   0.20724   0.00000  Uiso   1.00
C235   C     0.91253   0.94619   0.24129   0.00000  Uiso   1.00
C236   C     0.96588   0.58473   0.12474   0.00000  Uiso   1.00
C237   C     0.99078   0.60668   0.09436   0.00000  Uiso   1.00
C238   C     0.91439   0.59554   0.07267   0.00000  Uiso   1.00
C239   C     0.81786   0.58946   0.02884   0.00000  Uiso   1.00
C240   C     0.03546   0.48131   0.16740   0.00000  Uiso   1.00
C241   C     0.11886   0.41628   0.17287   0.00000  Uiso   1.00
C242   C     0.10105   0.31805   0.18709   0.00000  Uiso   1.00
C243   C     0.11255   0.15139   0.20949   0.00000  Uiso   1.00
C244   C     0.85769   0.53295   0.16764   0.00000  Uiso   1.00
C245   C     0.89050   0.63699   0.18332   0.00000  Uiso   1.00
C246   C     0.83286   0.69663   0.20385   0.00000  Uiso   1.00
C247   C     0.87646   0.78946   0.21567   0.00000  Uiso   1.00
C248   C     0.86815   0.55279   0.13316   0.00000  Uiso   1.00
C249   C     0.79170   0.54161   0.11151   0.00000  Uiso   1.00
C250   C     0.81648   0.56354   0.08110   0.00000  Uiso   1.00
C251   C     0.93772   0.44936   0.17582   0.00000  Uiso   1.00
C252   C     0.91978   0.35121   0.19002   0.00000  Uiso   1.00
C253   C     0.00314   0.28604   0.19552   0.00000  Uiso   1.00
H254   H     0.11371   0.61663   0.14559   0.00000  Uiso   1.00
H255   H     0.10757   0.78640   0.18018   0.00000  Uiso   1.00
H256   H     0.06642   0.63139   0.08785   0.00000  Uiso   1.00
H257   H     0.19448   0.44102   0.16635   0.00000  Uiso   1.00
H258   H     0.05764   0.96055   0.22223   0.00000  Uiso   1.00
H259   H     0.97089   0.63367   0.02755   0.00000  Uiso   1.00
H260   H     0.24093   0.23224   0.19309   0.00000  Uiso   1.00
H261   H     0.78160   0.50807   0.17420   0.00000  Uiso   1.00
H262   H     0.75723   0.67189   0.21036   0.00000  Uiso   1.00
H263   H     0.71608   0.51688   0.11803   0.00000  Uiso   1.00
H264   H     0.84414   0.32652   0.19653   0.00000  Uiso   1.00
H265   H     0.77329   0.86761   0.24673   0.00000  Uiso   1.00
H266   H     0.68654   0.54072   0.05205   0.00000  Uiso   1.00
H267   H     0.95658   0.13931   0.21759   0.00000  Uiso   1.00
O268   O     0.90541   0.02382   0.25775   0.00000  Uiso   1.00
O269   O     0.79161   0.59494   0.00233   0.00000  Uiso   1.00
O270   O     0.14589   0.06829   0.21952   0.00000  Uiso   1.00
N271   N     0.99407   0.91619   0.22304   0.00000  Uiso   1.00
N272   N     0.91296   0.61059   0.04103   0.00000  Uiso   1.00
N273   N     0.16542   0.23528   0.19579   0.00000  Uiso   1.00
N274   N     0.84106   0.86618   0.23622   0.00000  Uiso   1.00
N275   N     0.75995   0.56058   0.05421   0.00000  Uiso   1.00
N276   N     0.01241   0.18527   0.20897   0.00000  Uiso   1.00
C277   C     0.59544   0.36868   0.34406   0.00000  Uiso   1.00
C278   C     0.53280   0.45089   0.32630   0.00000  Uiso   1.00
C279   C     0.56830   0.54735   0.31439   0.00000  Uiso   1.00
C280   C     0.49904   0.61144   0.29888   0.00000  Uiso   1.00
C281   C     0.41715   0.74388   0.27185   0.00000  Uiso   1.00
C282   C     0.54172   0.35294   0.37479   0.00000  Uiso   1.00
C283   C     0.58474   0.36703   0.40364   0.00000  Uiso   1.00
C284   C     0.52298   0.34866   0.42894   0.00000  Uiso   1.00
C285   C     0.45497   0.32895   0.47718   0.00000  Uiso   1.00
C286   C     0.58422   0.26268   0.32673   0.00000  Uiso   1.00
C287   C     0.66296   0.20085   0.31519   0.00000  Uiso   1.00
C288   C     0.63699   0.10647   0.30004   0.00000  Uiso   1.00
C289   C     0.63496   0.94661   0.27367   0.00000  Uiso   1.00
C290   C     0.40930   0.31097   0.33769   0.00000  Uiso   1.00
C291   C     0.43170   0.41954   0.32285   0.00000  Uiso   1.00
C292   C     0.36236   0.48350   0.30735   0.00000  Uiso   1.00
C293   C     0.39776   0.58003   0.29541   0.00000  Uiso   1.00
C294   C     0.44062   0.32159   0.37133   0.00000  Uiso   1.00
C295   C     0.37880   0.30318   0.39660   0.00000  Uiso   1.00
C296   C     0.42170   0.31725   0.42548   0.00000  Uiso   1.00
C297   C     0.48312   0.23133   0.32328   0.00000  Uiso   1.00
C298   C     0.45702   0.13701   0.30814   0.00000  Uiso   1.00
C299   C     0.53571   0.07506   0.29658   0.00000  Uiso   1.00
H300   H     0.67415   0.39309   0.34676   0.00000  Uiso   1.00
H301   H     0.64655   0.57158   0.31707   0.00000  Uiso   1.00
H302   H     0.66298   0.39128   0.40631   0.00000  Uiso   1.00
H303   H     0.74119   0.22514   0.31787   0.00000  Uiso   1.00
H304   H     0.57135   0.75567   0.28265   0.00000  Uiso   1.00
H305   H     0.60601   0.37547   0.47081   0.00000  Uiso   1.00
H306   H     0.77094   0.02511   0.28432   0.00000  Uiso   1.00
H307   H     0.33058   0.28656   0.33500   0.00000  Uiso   1.00
H308   H     0.28413   0.45922   0.30468   0.00000  Uiso   1.00
H309   H     0.30056   0.27892   0.39391   0.00000  Uiso   1.00
H310   H     0.37877   0.11278   0.30547   0.00000  Uiso   1.00
H311   H     0.27720   0.66448   0.27259   0.00000  Uiso   1.00
H312   H     0.31186   0.28427   0.46074   0.00000  Uiso   1.00
H313   H     0.47679   0.93392   0.27426   0.00000  Uiso   1.00
O314   O     0.39991   0.82559   0.25789   0.00000  Uiso   1.00
O315   O     0.44539   0.32676   0.50474   0.00000  Uiso   1.00
O316   O     0.66177   0.86711   0.26008   0.00000  Uiso   1.00
N317   N     0.50850   0.71051   0.28444   0.00000  Uiso   1.00
N318   N     0.54090   0.35505   0.46035   0.00000  Uiso   1.00
N319   N     0.69510   0.02749   0.28601   0.00000  Uiso   1.00
N320   N     0.35022   0.66143   0.27903   0.00000  Uiso   1.00
N321   N     0.38262   0.30598   0.45494   0.00000  Uiso   1.00
N322   N     0.53682   0.97841   0.28060   0.00000  Uiso   1.00
C323   C     0.46237   0.40824   0.65214   0.00000  Uiso   1.00
C324   C     0.51176   0.33106   0.67491   0.00000  Uiso   1.00
C325   C     0.46807   0.23830   0.68670   0.00000  Uiso   1.00
C326   C     0.52563   0.17854   0.70724   0.00000  Uiso   1.00
C327   C     0.58747   0.05381   0.74129   0.00000  Uiso   1.00
C328   C     0.53412   0.41527   0.62474   0.00000  Uiso   1.00
C329   C     0.50922   0.39332   0.59436   0.00000  Uiso   1.00
C330   C     0.58561   0.40446   0.57267   0.00000  Uiso   1.00
C331   C     0.68214   0.41054   0.52884   0.00000  Uiso   1.00
C332   C     0.46454   0.51869   0.66740   0.00000  Uiso   1.00
C333   C     0.38114   0.58372   0.67287   0.00000  Uiso   1.00
C334   C     0.39895   0.68195   0.68709   0.00000  Uiso   1.00
C335   C     0.38745   0.84861   0.70949   0.00000  Uiso   1.00
C336   C     0.64231   0.46705   0.66764   0.00000  Uiso   1.00
C337   C     0.60950   0.36301   0.68332   0.00000  Uiso   1.00
C338   C     0.66714   0.30337   0.70385   0.00000  Uiso   1.00
C339   C     0.62354   0.21054   0.71567   0.00000  Uiso   1.00
C340   C     0.63185   0.44721   0.63316   0.00000  Uiso   1.00
C341   C     0.70830   0.45839   0.61151   0.00000  Uiso   1.00
C342   C     0.68352   0.43646   0.58110   0.00000  Uiso   1.00
C343   C     0.56228   0.55064   0.67582   0.00000  Uiso   1.00
C344   C     0.58022   0.64879   0.69002   0.00000  Uiso   1.00
C345   C     0.49686   0.71396   0.69552   0.00000  Uiso   1.00
H346   H     0.38629   0.38337   0.64559   0.00000  Uiso   1.00
H347   H     0.39243   0.21360   0.68018   0.00000  Uiso   1.00
H348   H     0.43358   0.36861   0.58785   0.00000  Uiso   1.00
H349   H     0.30552   0.55898   0.66635   0.00000  Uiso   1.00
H350   H     0.44236   0.03945   0.72223   0.00000  Uiso   1.00
H351   H     0.52911   0.36633   0.52755   0.00000  Uiso   1.00
H352   H     0.25907   0.76776   0.69309   0.00000  Uiso   1.00
H353   H     0.71840   0.49193   0.67420   0.00000  Uiso   1.00
H354   H     0.74277   0.32811   0.71036   0.00000  Uiso   1.00
H355   H     0.78392   0.48312   0.61803   0.00000  Uiso   1.00
H356   H     0.65586   0.67348   0.69653   0.00000  Uiso   1.00
H357   H     0.72671   0.13239   0.74673   0.00000  Uiso   1.00
H358   H     0.81346   0.45928   0.55205   0.00000  Uiso   1.00
H359   H     0.54342   0.86069   0.71759   0.00000  Uiso   1.00
O360   O     0.59459   0.97618   0.75775   0.00000  Uiso   1.00
O361   O     0.70839   0.40506   0.50233   0.00000  Uiso   1.00
O362   O     0.35411   0.93171   0.71952   0.00000  Uiso   1.00
N363   N     0.50593   0.08381   0.72304   0.00000  Uiso   1.00
N364   N     0.58704   0.38941   0.54103   0.00000  Uiso   1.00
N365   N     0.33458   0.76472   0.69579   0.00000  Uiso   1.00
N366   N     0.65894   0.13382   0.73622   0.00000  Uiso   1.00
N367   N     0.74005   0.43942   0.55421   0.00000  Uiso   1.00
N368   N     0.48759   0.81473   0.70897   0.00000  Uiso   1.00
