data_job_01402
_audit_creation_date              2018-12-19
_audit_creation_method            'Materials Studio'
_symmetry_space_group_name_H-M    'P1'
_symmetry_Int_Tables_number       1
_symmetry_cell_setting            triclinic
loop_
_symmetry_equiv_pos_as_xyz
  x,y,z
_cell_length_a                    17.3493
_cell_length_b                    24.6308
_cell_length_c                    15.3792
_cell_angle_alpha                 90.0000
_cell_angle_beta                  90.0000
_cell_angle_gamma                 90.0000
loop_
_atom_site_label
_atom_site_type_symbol
_atom_site_fract_x
_atom_site_fract_y
_atom_site_fract_z
_atom_site_U_iso_or_equiv
_atom_site_adp_type
_atom_site_occupancy
C1     C     0.39316   0.84497   0.36198   0.00000  Uiso   1.00
C2     C     0.42669   0.79428   0.31942   0.00000  Uiso   1.00
C3     C     0.40865   0.74108   0.34106   0.00000  Uiso   1.00
C4     C     0.44555   0.70039   0.29447   0.00000  Uiso   1.00
C5     C     0.48958   0.61985   0.23842   0.00000  Uiso   1.00
C6     C     0.46188   0.87763   0.39490   0.00000  Uiso   1.00
C7     C     0.47342   0.89452   0.48001   0.00000  Uiso   1.00
C8     C     0.53996   0.92401   0.49696   0.00000  Uiso   1.00
C9     C     0.63860   0.97290   0.55809   0.00000  Uiso   1.00
C10    C     0.35781   0.87830   0.28856   0.00000  Uiso   1.00
C11    C     0.28185   0.89576   0.28426   0.00000  Uiso   1.00
C12    C     0.26076   0.92582   0.21169   0.00000  Uiso   1.00
C13    C     0.19781   0.97575   0.10771   0.00000  Uiso   1.00
C14    C     0.49078   0.86732   0.24076   0.00000  Uiso   1.00
C15    C     0.47972   0.80642   0.25357   0.00000  Uiso   1.00
C16    C     0.51666   0.76581   0.20694   0.00000  Uiso   1.00
C17    C     0.49867   0.71256   0.22850   0.00000  Uiso   1.00
C18    C     0.51491   0.88977   0.32906   0.00000  Uiso   1.00
C19    C     0.58144   0.91925   0.34589   0.00000  Uiso   1.00
C20    C     0.59308   0.93617   0.43099   0.00000  Uiso   1.00
C21    C     0.41083   0.89044   0.22271   0.00000  Uiso   1.00
C22    C     0.38986   0.92049   0.15014   0.00000  Uiso   1.00
C23    C     0.31388   0.93799   0.14572   0.00000  Uiso   1.00
H24    H     0.35188   0.83552   0.41325   0.00000  Uiso   1.00
H25    H     0.36761   0.73170   0.39202   0.00000  Uiso   1.00
H26    H     0.43238   0.88512   0.53095   0.00000  Uiso   1.00
H27    H     0.24083   0.88636   0.33523   0.00000  Uiso   1.00
H28    H     0.40846   0.62196   0.33947   0.00000  Uiso   1.00
H29    H     0.54501   0.94547   0.63240   0.00000  Uiso   1.00
H30    H     0.14110   0.94808   0.21969   0.00000  Uiso   1.00
H31    H     0.53207   0.87677   0.18949   0.00000  Uiso   1.00
H32    H     0.55769   0.77522   0.15598   0.00000  Uiso   1.00
H33    H     0.62246   0.92864   0.29491   0.00000  Uiso   1.00
H34    H     0.43091   0.92987   0.09920   0.00000  Uiso   1.00
H35    H     0.56274   0.65727   0.14790   0.00000  Uiso   1.00
H36    H     0.69929   0.98079   0.44083   0.00000  Uiso   1.00
H37    H     0.29538   0.98340   0.02812   0.00000  Uiso   1.00
O38    O     0.49922   0.57207   0.22570   0.00000  Uiso   1.00
O39    O     0.67836   0.99651   0.61000   0.00000  Uiso   1.00
O40    O     0.14844   0.99993   0.06854   0.00000  Uiso   1.00
N41    N     0.44124   0.64421   0.29897   0.00000  Uiso   1.00
N42    N     0.56891   0.94666   0.57284   0.00000  Uiso   1.00
N43    N     0.19129   0.94912   0.18701   0.00000  Uiso   1.00
N44    N     0.52426   0.66321   0.19589   0.00000  Uiso   1.00
N45    N     0.65193   0.96567   0.46976   0.00000  Uiso   1.00
N46    N     0.27431   0.96812   0.08392   0.00000  Uiso   1.00
C47    C     0.06836   0.34533   0.13985   0.00000  Uiso   1.00
C48    C     0.03392   0.29498   0.18251   0.00000  Uiso   1.00
C49    C     0.04993   0.24161   0.15991   0.00000  Uiso   1.00
C50    C     0.01249   0.20130   0.20677   0.00000  Uiso   1.00
C51    C     0.96682   0.12120   0.26279   0.00000  Uiso   1.00
C52    C     0.00018   0.37921   0.10870   0.00000  Uiso   1.00
C53    C     0.98783   0.39667   0.02403   0.00000  Uiso   1.00
C54    C     0.92199   0.42726   0.00877   0.00000  Uiso   1.00
C55    C     0.82397   0.47796   0.95020   0.00000  Uiso   1.00
C56    C     0.10591   0.37776   0.21292   0.00000  Uiso   1.00
C57    C     0.18246   0.39401   0.21587   0.00000  Uiso   1.00
C58    C     0.20563   0.42340   0.28835   0.00000  Uiso   1.00
C59    C     0.27178   0.47185   0.39160   0.00000  Uiso   1.00
C60    C     0.97340   0.36863   0.26328   0.00000  Uiso   1.00
C61    C     0.98233   0.30764   0.24955   0.00000  Uiso   1.00
C62    C     0.94486   0.26739   0.29647   0.00000  Uiso   1.00
C63    C     0.96081   0.21398   0.27394   0.00000  Uiso   1.00
C64    C     0.94860   0.39187   0.17574   0.00000  Uiso   1.00
C65    C     0.88276   0.42245   0.16060   0.00000  Uiso   1.00
C66    C     0.87032   0.43994   0.07593   0.00000  Uiso   1.00
C67    C     0.05433   0.39042   0.27996   0.00000  Uiso   1.00
C68    C     0.07739   0.41979   0.35244   0.00000  Uiso   1.00
C69    C     0.15396   0.43608   0.35551   0.00000  Uiso   1.00
H70    H     0.10852   0.33548   0.08765   0.00000  Uiso   1.00
H71    H     0.08985   0.23184   0.10801   0.00000  Uiso   1.00
H72    H     0.02776   0.38687   0.97217   0.00000  Uiso   1.00
H73    H     0.22236   0.38421   0.16398   0.00000  Uiso   1.00
H74    H     0.04637   0.12251   0.16014   0.00000  Uiso   1.00
H75    H     0.91548   0.44943   0.87370   0.00000  Uiso   1.00
H76    H     0.32583   0.44382   0.27817   0.00000  Uiso   1.00
H77    H     0.93324   0.37849   0.31548   0.00000  Uiso   1.00
H78    H     0.90494   0.27720   0.34835   0.00000  Uiso   1.00
H79    H     0.84286   0.43224   0.21250   0.00000  Uiso   1.00
H80    H     0.03746   0.42958   0.40431   0.00000  Uiso   1.00
H81    H     0.89630   0.15933   0.35520   0.00000  Uiso   1.00
H82    H     0.76541   0.48625   0.06876   0.00000  Uiso   1.00
H83    H     0.17575   0.48064   0.47324   0.00000  Uiso   1.00
O84    O     0.95587   0.07352   0.27516   0.00000  Uiso   1.00
O85    O     0.78415   0.50243   0.89937   0.00000  Uiso   1.00
O86    O     0.32251   0.49507   0.43003   0.00000  Uiso   1.00
N87    N     0.01495   0.14508   0.20155   0.00000  Uiso   1.00
N88    N     0.89257   0.45072   0.93374   0.00000  Uiso   1.00
N89    N     0.27620   0.44549   0.31188   0.00000  Uiso   1.00
N90    N     0.93419   0.16489   0.30651   0.00000  Uiso   1.00
N91    N     0.81181   0.47053   0.03870   0.00000  Uiso   1.00
N92    N     0.19544   0.46530   0.41684   0.00000  Uiso   1.00
C93    C     0.60684   0.15503   0.36198   0.00000  Uiso   1.00
C94    C     0.57331   0.20572   0.31942   0.00000  Uiso   1.00
C95    C     0.59135   0.25892   0.34106   0.00000  Uiso   1.00
C96    C     0.55445   0.29961   0.29447   0.00000  Uiso   1.00
C97    C     0.51042   0.38015   0.23842   0.00000  Uiso   1.00
C98    C     0.53812   0.12237   0.39490   0.00000  Uiso   1.00
C99    C     0.52658   0.10548   0.48001   0.00000  Uiso   1.00
C100   C     0.46004   0.07599   0.49696   0.00000  Uiso   1.00
C101   C     0.36140   0.02710   0.55809   0.00000  Uiso   1.00
C102   C     0.64219   0.12170   0.28856   0.00000  Uiso   1.00
C103   C     0.71815   0.10424   0.28426   0.00000  Uiso   1.00
C104   C     0.73924   0.07418   0.21169   0.00000  Uiso   1.00
C105   C     0.80219   0.02425   0.10771   0.00000  Uiso   1.00
C106   C     0.50922   0.13268   0.24076   0.00000  Uiso   1.00
C107   C     0.52028   0.19358   0.25357   0.00000  Uiso   1.00
C108   C     0.48334   0.23419   0.20694   0.00000  Uiso   1.00
C109   C     0.50133   0.28744   0.22850   0.00000  Uiso   1.00
C110   C     0.48509   0.11023   0.32906   0.00000  Uiso   1.00
C111   C     0.41856   0.08075   0.34589   0.00000  Uiso   1.00
C112   C     0.40692   0.06383   0.43099   0.00000  Uiso   1.00
C113   C     0.58917   0.10956   0.22271   0.00000  Uiso   1.00
C114   C     0.61014   0.07951   0.15014   0.00000  Uiso   1.00
C115   C     0.68612   0.06201   0.14572   0.00000  Uiso   1.00
H116   H     0.64812   0.16448   0.41325   0.00000  Uiso   1.00
H117   H     0.63239   0.26830   0.39202   0.00000  Uiso   1.00
H118   H     0.56762   0.11488   0.53095   0.00000  Uiso   1.00
H119   H     0.75917   0.11364   0.33523   0.00000  Uiso   1.00
H120   H     0.59154   0.37804   0.33947   0.00000  Uiso   1.00
H121   H     0.45499   0.05453   0.63240   0.00000  Uiso   1.00
H122   H     0.85890   0.05192   0.21969   0.00000  Uiso   1.00
H123   H     0.46793   0.12323   0.18949   0.00000  Uiso   1.00
H124   H     0.44231   0.22478   0.15598   0.00000  Uiso   1.00
H125   H     0.37754   0.07136   0.29491   0.00000  Uiso   1.00
H126   H     0.56909   0.07013   0.09920   0.00000  Uiso   1.00
H127   H     0.43726   0.34273   0.14790   0.00000  Uiso   1.00
H128   H     0.30071   0.01921   0.44083   0.00000  Uiso   1.00
H129   H     0.70462   0.01660   0.02812   0.00000  Uiso   1.00
O130   O     0.50078   0.42793   0.22570   0.00000  Uiso   1.00
O131   O     0.32164   0.00349   0.61000   0.00000  Uiso   1.00
O132   O     0.85156   0.00007   0.06854   0.00000  Uiso   1.00
N133   N     0.55876   0.35579   0.29897   0.00000  Uiso   1.00
N134   N     0.43109   0.05334   0.57284   0.00000  Uiso   1.00
N135   N     0.80871   0.05088   0.18701   0.00000  Uiso   1.00
N136   N     0.47574   0.33679   0.19589   0.00000  Uiso   1.00
N137   N     0.34807   0.03433   0.46976   0.00000  Uiso   1.00
N138   N     0.72569   0.03188   0.08392   0.00000  Uiso   1.00
C139   C     0.93164   0.65467   0.13985   0.00000  Uiso   1.00
C140   C     0.96608   0.70502   0.18251   0.00000  Uiso   1.00
C141   C     0.95007   0.75839   0.15991   0.00000  Uiso   1.00
C142   C     0.98751   0.79870   0.20677   0.00000  Uiso   1.00
C143   C     0.03318   0.87880   0.26279   0.00000  Uiso   1.00
C144   C     0.99982   0.62079   0.10870   0.00000  Uiso   1.00
C145   C     0.01217   0.60333   0.02403   0.00000  Uiso   1.00
C146   C     0.07801   0.57274   0.00877   0.00000  Uiso   1.00
C147   C     0.17603   0.52204   0.95020   0.00000  Uiso   1.00
C148   C     0.89409   0.62224   0.21292   0.00000  Uiso   1.00
C149   C     0.81754   0.60599   0.21587   0.00000  Uiso   1.00
C150   C     0.79437   0.57660   0.28835   0.00000  Uiso   1.00
C151   C     0.72822   0.52815   0.39160   0.00000  Uiso   1.00
C152   C     0.02660   0.63137   0.26328   0.00000  Uiso   1.00
C153   C     0.01767   0.69236   0.24955   0.00000  Uiso   1.00
C154   C     0.05514   0.73261   0.29647   0.00000  Uiso   1.00
C155   C     0.03919   0.78602   0.27394   0.00000  Uiso   1.00
C156   C     0.05140   0.60813   0.17574   0.00000  Uiso   1.00
C157   C     0.11724   0.57755   0.16060   0.00000  Uiso   1.00
C158   C     0.12968   0.56006   0.07593   0.00000  Uiso   1.00
C159   C     0.94567   0.60958   0.27996   0.00000  Uiso   1.00
C160   C     0.92261   0.58021   0.35244   0.00000  Uiso   1.00
C161   C     0.84604   0.56392   0.35551   0.00000  Uiso   1.00
H162   H     0.89148   0.66452   0.08765   0.00000  Uiso   1.00
H163   H     0.91015   0.76816   0.10801   0.00000  Uiso   1.00
H164   H     0.97224   0.61313   0.97217   0.00000  Uiso   1.00
H165   H     0.77764   0.61579   0.16398   0.00000  Uiso   1.00
H166   H     0.95363   0.87749   0.16014   0.00000  Uiso   1.00
H167   H     0.08452   0.55057   0.87370   0.00000  Uiso   1.00
H168   H     0.67417   0.55618   0.27817   0.00000  Uiso   1.00
H169   H     0.06676   0.62151   0.31548   0.00000  Uiso   1.00
H170   H     0.09506   0.72280   0.34835   0.00000  Uiso   1.00
H171   H     0.15714   0.56776   0.21250   0.00000  Uiso   1.00
H172   H     0.96254   0.57042   0.40431   0.00000  Uiso   1.00
H173   H     0.10370   0.84067   0.35520   0.00000  Uiso   1.00
H174   H     0.23459   0.51375   0.06876   0.00000  Uiso   1.00
H175   H     0.82425   0.51936   0.47324   0.00000  Uiso   1.00
O176   O     0.04413   0.92648   0.27516   0.00000  Uiso   1.00
O177   O     0.21585   0.49757   0.89937   0.00000  Uiso   1.00
O178   O     0.67749   0.50493   0.43003   0.00000  Uiso   1.00
N179   N     0.98505   0.85492   0.20155   0.00000  Uiso   1.00
N180   N     0.10743   0.54928   0.93374   0.00000  Uiso   1.00
N181   N     0.72380   0.55451   0.31188   0.00000  Uiso   1.00
N182   N     0.06581   0.83511   0.30651   0.00000  Uiso   1.00
N183   N     0.18819   0.52947   0.03870   0.00000  Uiso   1.00
N184   N     0.80456   0.53470   0.41684   0.00000  Uiso   1.00
C185   C     0.39316   0.65503   0.86198   0.00000  Uiso   1.00
C186   C     0.42669   0.70572   0.81942   0.00000  Uiso   1.00
C187   C     0.40865   0.75892   0.84106   0.00000  Uiso   1.00
C188   C     0.44555   0.79961   0.79447   0.00000  Uiso   1.00
C189   C     0.48958   0.88015   0.73842   0.00000  Uiso   1.00
C190   C     0.46188   0.62237   0.89490   0.00000  Uiso   1.00
C191   C     0.47342   0.60548   0.98001   0.00000  Uiso   1.00
C192   C     0.53996   0.57599   0.99696   0.00000  Uiso   1.00
C193   C     0.63860   0.52710   0.05809   0.00000  Uiso   1.00
C194   C     0.35781   0.62170   0.78856   0.00000  Uiso   1.00
C195   C     0.28185   0.60424   0.78426   0.00000  Uiso   1.00
C196   C     0.26076   0.57418   0.71169   0.00000  Uiso   1.00
C197   C     0.19781   0.52425   0.60771   0.00000  Uiso   1.00
C198   C     0.49078   0.63268   0.74076   0.00000  Uiso   1.00
C199   C     0.47972   0.69358   0.75357   0.00000  Uiso   1.00
C200   C     0.51666   0.73419   0.70694   0.00000  Uiso   1.00
C201   C     0.49867   0.78744   0.72850   0.00000  Uiso   1.00
C202   C     0.51491   0.61023   0.82906   0.00000  Uiso   1.00
C203   C     0.58144   0.58075   0.84589   0.00000  Uiso   1.00
C204   C     0.59308   0.56383   0.93099   0.00000  Uiso   1.00
C205   C     0.41083   0.60956   0.72271   0.00000  Uiso   1.00
C206   C     0.38986   0.57951   0.65014   0.00000  Uiso   1.00
C207   C     0.31388   0.56201   0.64572   0.00000  Uiso   1.00
H208   H     0.35188   0.66448   0.91325   0.00000  Uiso   1.00
H209   H     0.36761   0.76830   0.89202   0.00000  Uiso   1.00
H210   H     0.43238   0.61488   0.03095   0.00000  Uiso   1.00
H211   H     0.24083   0.61364   0.83523   0.00000  Uiso   1.00
H212   H     0.40846   0.87804   0.83947   0.00000  Uiso   1.00
H213   H     0.54501   0.55453   0.13240   0.00000  Uiso   1.00
H214   H     0.14110   0.55192   0.71969   0.00000  Uiso   1.00
H215   H     0.53207   0.62323   0.68949   0.00000  Uiso   1.00
H216   H     0.55769   0.72478   0.65598   0.00000  Uiso   1.00
H217   H     0.62246   0.57136   0.79491   0.00000  Uiso   1.00
H218   H     0.43091   0.57013   0.59920   0.00000  Uiso   1.00
H219   H     0.56274   0.84273   0.64790   0.00000  Uiso   1.00
H220   H     0.69929   0.51921   0.94083   0.00000  Uiso   1.00
H221   H     0.29538   0.51660   0.52812   0.00000  Uiso   1.00
O222   O     0.49922   0.92793   0.72570   0.00000  Uiso   1.00
O223   O     0.67836   0.50349   0.11000   0.00000  Uiso   1.00
O224   O     0.14844   0.50007   0.56854   0.00000  Uiso   1.00
N225   N     0.44124   0.85579   0.79897   0.00000  Uiso   1.00
N226   N     0.56891   0.55334   0.07284   0.00000  Uiso   1.00
N227   N     0.19129   0.55088   0.68701   0.00000  Uiso   1.00
N228   N     0.52426   0.83679   0.69589   0.00000  Uiso   1.00
N229   N     0.65193   0.53433   0.96976   0.00000  Uiso   1.00
N230   N     0.27431   0.53188   0.58392   0.00000  Uiso   1.00
C231   C     0.06836   0.15467   0.63985   0.00000  Uiso   1.00
C232   C     0.03392   0.20502   0.68251   0.00000  Uiso   1.00
C233   C     0.04993   0.25839   0.65991   0.00000  Uiso   1.00
C234   C     0.01249   0.29870   0.70677   0.00000  Uiso   1.00
C235   C     0.96682   0.37880   0.76279   0.00000  Uiso   1.00
C236   C     0.00018   0.12079   0.60870   0.00000  Uiso   1.00
C237   C     0.98783   0.10333   0.52403   0.00000  Uiso   1.00
C238   C     0.92199   0.07274   0.50877   0.00000  Uiso   1.00
C239   C     0.82397   0.02204   0.45020   0.00000  Uiso   1.00
C240   C     0.10591   0.12224   0.71292   0.00000  Uiso   1.00
C241   C     0.18246   0.10599   0.71587   0.00000  Uiso   1.00
C242   C     0.20563   0.07660   0.78835   0.00000  Uiso   1.00
C243   C     0.27178   0.02815   0.89160   0.00000  Uiso   1.00
C244   C     0.97340   0.13137   0.76328   0.00000  Uiso   1.00
C245   C     0.98233   0.19236   0.74955   0.00000  Uiso   1.00
C246   C     0.94486   0.23261   0.79647   0.00000  Uiso   1.00
C247   C     0.96081   0.28602   0.77394   0.00000  Uiso   1.00
C248   C     0.94860   0.10813   0.67574   0.00000  Uiso   1.00
C249   C     0.88276   0.07755   0.66060   0.00000  Uiso   1.00
C250   C     0.87032   0.06006   0.57593   0.00000  Uiso   1.00
C251   C     0.05433   0.10958   0.77996   0.00000  Uiso   1.00
C252   C     0.07739   0.08021   0.85244   0.00000  Uiso   1.00
C253   C     0.15396   0.06392   0.85551   0.00000  Uiso   1.00
H254   H     0.10852   0.16452   0.58765   0.00000  Uiso   1.00
H255   H     0.08985   0.26816   0.60801   0.00000  Uiso   1.00
H256   H     0.02776   0.11313   0.47217   0.00000  Uiso   1.00
H257   H     0.22236   0.11579   0.66398   0.00000  Uiso   1.00
H258   H     0.04637   0.37749   0.66014   0.00000  Uiso   1.00
H259   H     0.91548   0.05057   0.37370   0.00000  Uiso   1.00
H260   H     0.32583   0.05618   0.77817   0.00000  Uiso   1.00
H261   H     0.93324   0.12151   0.81548   0.00000  Uiso   1.00
H262   H     0.90494   0.22280   0.84835   0.00000  Uiso   1.00
H263   H     0.84286   0.06776   0.71250   0.00000  Uiso   1.00
H264   H     0.03746   0.07042   0.90431   0.00000  Uiso   1.00
H265   H     0.89630   0.34067   0.85520   0.00000  Uiso   1.00
H266   H     0.76541   0.01375   0.56876   0.00000  Uiso   1.00
H267   H     0.17575   0.01936   0.97324   0.00000  Uiso   1.00
O268   O     0.95587   0.42648   0.77516   0.00000  Uiso   1.00
O269   O     0.78415   0.99757   0.39937   0.00000  Uiso   1.00
O270   O     0.32251   0.00493   0.93003   0.00000  Uiso   1.00
N271   N     0.01495   0.35492   0.70155   0.00000  Uiso   1.00
N272   N     0.89257   0.04928   0.43374   0.00000  Uiso   1.00
N273   N     0.27620   0.05451   0.81188   0.00000  Uiso   1.00
N274   N     0.93419   0.33511   0.80651   0.00000  Uiso   1.00
N275   N     0.81181   0.02947   0.53870   0.00000  Uiso   1.00
N276   N     0.19544   0.03470   0.91684   0.00000  Uiso   1.00
C277   C     0.60684   0.34497   0.86198   0.00000  Uiso   1.00
C278   C     0.57331   0.29428   0.81942   0.00000  Uiso   1.00
C279   C     0.59135   0.24108   0.84106   0.00000  Uiso   1.00
C280   C     0.55445   0.20039   0.79447   0.00000  Uiso   1.00
C281   C     0.51042   0.11985   0.73842   0.00000  Uiso   1.00
C282   C     0.53812   0.37763   0.89490   0.00000  Uiso   1.00
C283   C     0.52658   0.39452   0.98001   0.00000  Uiso   1.00
C284   C     0.46004   0.42401   0.99696   0.00000  Uiso   1.00
C285   C     0.36140   0.47290   0.05809   0.00000  Uiso   1.00
C286   C     0.64219   0.37830   0.78856   0.00000  Uiso   1.00
C287   C     0.71815   0.39576   0.78426   0.00000  Uiso   1.00
C288   C     0.73924   0.42582   0.71169   0.00000  Uiso   1.00
C289   C     0.80219   0.47575   0.60771   0.00000  Uiso   1.00
C290   C     0.50922   0.36732   0.74076   0.00000  Uiso   1.00
C291   C     0.52028   0.30642   0.75357   0.00000  Uiso   1.00
C292   C     0.48334   0.26581   0.70694   0.00000  Uiso   1.00
C293   C     0.50133   0.21256   0.72850   0.00000  Uiso   1.00
C294   C     0.48509   0.38977   0.82906   0.00000  Uiso   1.00
C295   C     0.41856   0.41925   0.84589   0.00000  Uiso   1.00
C296   C     0.40692   0.43617   0.93099   0.00000  Uiso   1.00
C297   C     0.58917   0.39044   0.72271   0.00000  Uiso   1.00
C298   C     0.61014   0.42049   0.65014   0.00000  Uiso   1.00
C299   C     0.68612   0.43799   0.64572   0.00000  Uiso   1.00
H300   H     0.64812   0.33552   0.91325   0.00000  Uiso   1.00
H301   H     0.63239   0.23170   0.89202   0.00000  Uiso   1.00
H302   H     0.56762   0.38512   0.03095   0.00000  Uiso   1.00
H303   H     0.75917   0.38636   0.83523   0.00000  Uiso   1.00
H304   H     0.59154   0.12196   0.83947   0.00000  Uiso   1.00
H305   H     0.45499   0.44547   0.13240   0.00000  Uiso   1.00
H306   H     0.85890   0.44808   0.71969   0.00000  Uiso   1.00
H307   H     0.46793   0.37677   0.68949   0.00000  Uiso   1.00
H308   H     0.44231   0.27522   0.65598   0.00000  Uiso   1.00
H309   H     0.37754   0.42864   0.79491   0.00000  Uiso   1.00
H310   H     0.56909   0.42987   0.59920   0.00000  Uiso   1.00
H311   H     0.43726   0.15727   0.64790   0.00000  Uiso   1.00
H312   H     0.30071   0.48079   0.94083   0.00000  Uiso   1.00
H313   H     0.70462   0.48340   0.52812   0.00000  Uiso   1.00
O314   O     0.50078   0.07207   0.72570   0.00000  Uiso   1.00
O315   O     0.32164   0.49651   0.11000   0.00000  Uiso   1.00
O316   O     0.85156   0.49993   0.56854   0.00000  Uiso   1.00
N317   N     0.55876   0.14421   0.79897   0.00000  Uiso   1.00
N318   N     0.43109   0.44666   0.07284   0.00000  Uiso   1.00
N319   N     0.80871   0.44912   0.68701   0.00000  Uiso   1.00
N320   N     0.47574   0.16321   0.69589   0.00000  Uiso   1.00
N321   N     0.34807   0.46567   0.96976   0.00000  Uiso   1.00
N322   N     0.72569   0.46812   0.58392   0.00000  Uiso   1.00
C323   C     0.93164   0.84533   0.63985   0.00000  Uiso   1.00
C324   C     0.96608   0.79498   0.68251   0.00000  Uiso   1.00
C325   C     0.95007   0.74161   0.65991   0.00000  Uiso   1.00
C326   C     0.98751   0.70130   0.70677   0.00000  Uiso   1.00
C327   C     0.03318   0.62120   0.76279   0.00000  Uiso   1.00
C328   C     0.99982   0.87921   0.60870   0.00000  Uiso   1.00
C329   C     0.01217   0.89667   0.52403   0.00000  Uiso   1.00
C330   C     0.07801   0.92726   0.50877   0.00000  Uiso   1.00
C331   C     0.17603   0.97796   0.45020   0.00000  Uiso   1.00
C332   C     0.89409   0.87776   0.71292   0.00000  Uiso   1.00
C333   C     0.81754   0.89401   0.71587   0.00000  Uiso   1.00
C334   C     0.79437   0.92340   0.78835   0.00000  Uiso   1.00
C335   C     0.72822   0.97185   0.89160   0.00000  Uiso   1.00
C336   C     0.02660   0.86863   0.76328   0.00000  Uiso   1.00
C337   C     0.01767   0.80764   0.74955   0.00000  Uiso   1.00
C338   C     0.05514   0.76739   0.79647   0.00000  Uiso   1.00
C339   C     0.03919   0.71398   0.77394   0.00000  Uiso   1.00
C340   C     0.05140   0.89187   0.67574   0.00000  Uiso   1.00
C341   C     0.11724   0.92245   0.66060   0.00000  Uiso   1.00
C342   C     0.12968   0.93994   0.57593   0.00000  Uiso   1.00
C343   C     0.94567   0.89042   0.77996   0.00000  Uiso   1.00
C344   C     0.92261   0.91979   0.85244   0.00000  Uiso   1.00
C345   C     0.84604   0.93608   0.85551   0.00000  Uiso   1.00
H346   H     0.89148   0.83548   0.58765   0.00000  Uiso   1.00
H347   H     0.91015   0.73184   0.60801   0.00000  Uiso   1.00
H348   H     0.97224   0.88687   0.47217   0.00000  Uiso   1.00
H349   H     0.77764   0.88421   0.66398   0.00000  Uiso   1.00
H350   H     0.95363   0.62251   0.66014   0.00000  Uiso   1.00
H351   H     0.08452   0.94943   0.37370   0.00000  Uiso   1.00
H352   H     0.67417   0.94382   0.77817   0.00000  Uiso   1.00
H353   H     0.06676   0.87849   0.81548   0.00000  Uiso   1.00
H354   H     0.09506   0.77720   0.84835   0.00000  Uiso   1.00
H355   H     0.15714   0.93224   0.71250   0.00000  Uiso   1.00
H356   H     0.96254   0.92958   0.90431   0.00000  Uiso   1.00
H357   H     0.10370   0.65933   0.85520   0.00000  Uiso   1.00
H358   H     0.23459   0.98625   0.56876   0.00000  Uiso   1.00
H359   H     0.82425   0.98064   0.97324   0.00000  Uiso   1.00
O360   O     0.04413   0.57352   0.77516   0.00000  Uiso   1.00
O361   O     0.21585   0.00243   0.39937   0.00000  Uiso   1.00
O362   O     0.67749   0.99507   0.93003   0.00000  Uiso   1.00
N363   N     0.98505   0.64508   0.70155   0.00000  Uiso   1.00
N364   N     0.10743   0.95072   0.43374   0.00000  Uiso   1.00
N365   N     0.72380   0.94549   0.81188   0.00000  Uiso   1.00
N366   N     0.06581   0.66489   0.80651   0.00000  Uiso   1.00
N367   N     0.18819   0.97053   0.53870   0.00000  Uiso   1.00
N368   N     0.80456   0.96530   0.91684   0.00000  Uiso   1.00
