data_job_02973
_audit_creation_date              2018-12-19
_audit_creation_method            'Materials Studio'
_symmetry_space_group_name_H-M    'P1'
_symmetry_Int_Tables_number       1
_symmetry_cell_setting            triclinic
loop_
_symmetry_equiv_pos_as_xyz
  x,y,z
_cell_length_a                    14.7688
_cell_length_b                    15.3327
_cell_length_c                    25.4833
_cell_angle_alpha                 90.0000
_cell_angle_beta                  116.3512
_cell_angle_gamma                 90.0000
loop_
_atom_site_label
_atom_site_type_symbol
_atom_site_fract_x
_atom_site_fract_y
_atom_site_fract_z
_atom_site_U_iso_or_equiv
_atom_site_adp_type
_atom_site_occupancy
C1     C     0.86363   0.53448   0.59283   0.00000  Uiso   1.00
C2     C     0.81981   0.51101   0.63507   0.00000  Uiso   1.00
C3     C     0.83422   0.55749   0.68491   0.00000  Uiso   1.00
C4     C     0.78773   0.52531   0.71779   0.00000  Uiso   1.00
C5     C     0.72867   0.50040   0.78589   0.00000  Uiso   1.00
C6     C     0.92322   0.45477   0.59018   0.00000  Uiso   1.00
C7     C     0.02457   0.45397   0.60227   0.00000  Uiso   1.00
C8     C     0.06513   0.37444   0.59735   0.00000  Uiso   1.00
C9     C     0.16659   0.26223   0.59572   0.00000  Uiso   1.00
C10    C     0.77374   0.54185   0.53254   0.00000  Uiso   1.00
C11    C     0.74942   0.61425   0.49614   0.00000  Uiso   1.00
C12    C     0.66414   0.60803   0.44268   0.00000  Uiso   1.00
C13    C     0.53352   0.63102   0.35155   0.00000  Uiso   1.00
C14    C     0.75546   0.39468   0.56262   0.00000  Uiso   1.00
C15    C     0.76106   0.43507   0.61866   0.00000  Uiso   1.00
C16    C     0.71454   0.40282   0.65148   0.00000  Uiso   1.00
C17    C     0.72887   0.44925   0.70135   0.00000  Uiso   1.00
C18    C     0.86447   0.37884   0.57377   0.00000  Uiso   1.00
C19    C     0.90489   0.29930   0.56884   0.00000  Uiso   1.00
C20    C     0.00627   0.29837   0.58091   0.00000  Uiso   1.00
C21    C     0.71498   0.46591   0.51613   0.00000  Uiso   1.00
C22    C     0.62973   0.45958   0.46271   0.00000  Uiso   1.00
C23    C     0.60528   0.53196   0.42624   0.00000  Uiso   1.00
H24    H     0.90938   0.59359   0.60561   0.00000  Uiso   1.00
H25    H     0.87970   0.61625   0.69760   0.00000  Uiso   1.00
H26    H     0.07001   0.51274   0.61496   0.00000  Uiso   1.00
H27    H     0.79490   0.67300   0.50885   0.00000  Uiso   1.00
H28    H     0.82091   0.60786   0.79235   0.00000  Uiso   1.00
H29    H     0.22219   0.38962   0.61809   0.00000  Uiso   1.00
H30    H     0.64207   0.72756   0.39435   0.00000  Uiso   1.00
H31    H     0.70971   0.33556   0.54984   0.00000  Uiso   1.00
H32    H     0.66907   0.34406   0.63877   0.00000  Uiso   1.00
H33    H     0.85939   0.24055   0.55613   0.00000  Uiso   1.00
H34    H     0.58428   0.40081   0.45003   0.00000  Uiso   1.00
H35    H     0.64997   0.38694   0.74461   0.00000  Uiso   1.00
H36    H     0.05125   0.16870   0.57035   0.00000  Uiso   1.00
H37    H     0.47113   0.50663   0.34660   0.00000  Uiso   1.00
O38    O     0.71234   0.50763   0.82800   0.00000  Uiso   1.00
O39    O     0.23879   0.22131   0.59936   0.00000  Uiso   1.00
O40    O     0.47769   0.66468   0.30582   0.00000  Uiso   1.00
N41    N     0.78624   0.55471   0.76890   0.00000  Uiso   1.00
N42    N     0.16142   0.35066   0.60599   0.00000  Uiso   1.00
N43    N     0.61907   0.66660   0.39680   0.00000  Uiso   1.00
N44    N     0.69426   0.43583   0.74321   0.00000  Uiso   1.00
N45    N     0.06943   0.23179   0.58030   0.00000  Uiso   1.00
N46    N     0.52708   0.54772   0.37111   0.00000  Uiso   1.00
C47    C     0.36363   0.03448   0.59283   0.00000  Uiso   1.00
C48    C     0.31981   0.01101   0.63507   0.00000  Uiso   1.00
C49    C     0.33422   0.05749   0.68491   0.00000  Uiso   1.00
C50    C     0.28773   0.02531   0.71779   0.00000  Uiso   1.00
C51    C     0.22867   0.00040   0.78589   0.00000  Uiso   1.00
C52    C     0.42322   0.95477   0.59018   0.00000  Uiso   1.00
C53    C     0.52457   0.95397   0.60227   0.00000  Uiso   1.00
C54    C     0.56513   0.87444   0.59735   0.00000  Uiso   1.00
C55    C     0.66659   0.76223   0.59572   0.00000  Uiso   1.00
C56    C     0.27374   0.04185   0.53254   0.00000  Uiso   1.00
C57    C     0.24942   0.11425   0.49614   0.00000  Uiso   1.00
C58    C     0.16414   0.10803   0.44268   0.00000  Uiso   1.00
C59    C     0.03352   0.13102   0.35155   0.00000  Uiso   1.00
C60    C     0.25546   0.89468   0.56262   0.00000  Uiso   1.00
C61    C     0.26106   0.93507   0.61866   0.00000  Uiso   1.00
C62    C     0.21454   0.90282   0.65148   0.00000  Uiso   1.00
C63    C     0.22887   0.94925   0.70135   0.00000  Uiso   1.00
C64    C     0.36447   0.87884   0.57377   0.00000  Uiso   1.00
C65    C     0.40489   0.79930   0.56884   0.00000  Uiso   1.00
C66    C     0.50627   0.79837   0.58091   0.00000  Uiso   1.00
C67    C     0.21498   0.96591   0.51613   0.00000  Uiso   1.00
C68    C     0.12973   0.95958   0.46271   0.00000  Uiso   1.00
C69    C     0.10528   0.03196   0.42624   0.00000  Uiso   1.00
H70    H     0.40938   0.09359   0.60561   0.00000  Uiso   1.00
H71    H     0.37970   0.11625   0.69760   0.00000  Uiso   1.00
H72    H     0.57001   0.01274   0.61496   0.00000  Uiso   1.00
H73    H     0.29490   0.17300   0.50885   0.00000  Uiso   1.00
H74    H     0.32091   0.10786   0.79235   0.00000  Uiso   1.00
H75    H     0.72219   0.88962   0.61809   0.00000  Uiso   1.00
H76    H     0.14207   0.22756   0.39435   0.00000  Uiso   1.00
H77    H     0.20971   0.83556   0.54984   0.00000  Uiso   1.00
H78    H     0.16907   0.84406   0.63877   0.00000  Uiso   1.00
H79    H     0.35939   0.74055   0.55613   0.00000  Uiso   1.00
H80    H     0.08428   0.90081   0.45003   0.00000  Uiso   1.00
H81    H     0.14997   0.88694   0.74461   0.00000  Uiso   1.00
H82    H     0.55125   0.66870   0.57035   0.00000  Uiso   1.00
H83    H     0.97113   0.00663   0.34660   0.00000  Uiso   1.00
O84    O     0.21234   0.00763   0.82800   0.00000  Uiso   1.00
O85    O     0.73879   0.72131   0.59936   0.00000  Uiso   1.00
O86    O     0.97769   0.16468   0.30582   0.00000  Uiso   1.00
N87    N     0.28624   0.05471   0.76890   0.00000  Uiso   1.00
N88    N     0.66142   0.85066   0.60599   0.00000  Uiso   1.00
N89    N     0.11907   0.16660   0.39680   0.00000  Uiso   1.00
N90    N     0.19426   0.93583   0.74321   0.00000  Uiso   1.00
N91    N     0.56943   0.73179   0.58030   0.00000  Uiso   1.00
N92    N     0.02708   0.04772   0.37111   0.00000  Uiso   1.00
C93    C     0.13637   0.53448   0.90717   0.00000  Uiso   1.00
C94    C     0.18019   0.51101   0.86493   0.00000  Uiso   1.00
C95    C     0.16578   0.55749   0.81509   0.00000  Uiso   1.00
C96    C     0.21227   0.52531   0.78221   0.00000  Uiso   1.00
C97    C     0.27133   0.50040   0.71411   0.00000  Uiso   1.00
C98    C     0.07678   0.45477   0.90982   0.00000  Uiso   1.00
C99    C     0.97543   0.45397   0.89773   0.00000  Uiso   1.00
C100   C     0.93487   0.37444   0.90265   0.00000  Uiso   1.00
C101   C     0.83341   0.26223   0.90428   0.00000  Uiso   1.00
C102   C     0.22626   0.54185   0.96746   0.00000  Uiso   1.00
C103   C     0.25058   0.61425   0.00386   0.00000  Uiso   1.00
C104   C     0.33586   0.60803   0.05732   0.00000  Uiso   1.00
C105   C     0.46648   0.63102   0.14845   0.00000  Uiso   1.00
C106   C     0.24454   0.39468   0.93738   0.00000  Uiso   1.00
C107   C     0.23894   0.43507   0.88134   0.00000  Uiso   1.00
C108   C     0.28546   0.40282   0.84852   0.00000  Uiso   1.00
C109   C     0.27113   0.44925   0.79865   0.00000  Uiso   1.00
C110   C     0.13553   0.37884   0.92623   0.00000  Uiso   1.00
C111   C     0.09511   0.29930   0.93116   0.00000  Uiso   1.00
C112   C     0.99373   0.29837   0.91909   0.00000  Uiso   1.00
C113   C     0.28502   0.46591   0.98387   0.00000  Uiso   1.00
C114   C     0.37027   0.45958   0.03729   0.00000  Uiso   1.00
C115   C     0.39472   0.53196   0.07376   0.00000  Uiso   1.00
H116   H     0.09062   0.59359   0.89439   0.00000  Uiso   1.00
H117   H     0.12030   0.61625   0.80240   0.00000  Uiso   1.00
H118   H     0.92999   0.51274   0.88504   0.00000  Uiso   1.00
H119   H     0.20510   0.67300   0.99115   0.00000  Uiso   1.00
H120   H     0.17909   0.60786   0.70765   0.00000  Uiso   1.00
H121   H     0.77781   0.38962   0.88191   0.00000  Uiso   1.00
H122   H     0.35793   0.72756   0.10565   0.00000  Uiso   1.00
H123   H     0.29029   0.33556   0.95016   0.00000  Uiso   1.00
H124   H     0.33093   0.34406   0.86123   0.00000  Uiso   1.00
H125   H     0.14061   0.24055   0.94387   0.00000  Uiso   1.00
H126   H     0.41572   0.40081   0.04997   0.00000  Uiso   1.00
H127   H     0.35003   0.38694   0.75539   0.00000  Uiso   1.00
H128   H     0.94875   0.16870   0.92965   0.00000  Uiso   1.00
H129   H     0.52887   0.50663   0.15340   0.00000  Uiso   1.00
O130   O     0.28766   0.50763   0.67200   0.00000  Uiso   1.00
O131   O     0.76121   0.22131   0.90064   0.00000  Uiso   1.00
O132   O     0.52231   0.66468   0.19418   0.00000  Uiso   1.00
N133   N     0.21376   0.55471   0.73109   0.00000  Uiso   1.00
N134   N     0.83858   0.35066   0.89401   0.00000  Uiso   1.00
N135   N     0.38093   0.66660   0.10320   0.00000  Uiso   1.00
N136   N     0.30574   0.43583   0.75679   0.00000  Uiso   1.00
N137   N     0.93057   0.23179   0.91970   0.00000  Uiso   1.00
N138   N     0.47292   0.54772   0.12889   0.00000  Uiso   1.00
C139   C     0.63637   0.03448   0.90717   0.00000  Uiso   1.00
C140   C     0.68019   0.01101   0.86493   0.00000  Uiso   1.00
C141   C     0.66578   0.05749   0.81509   0.00000  Uiso   1.00
C142   C     0.71227   0.02531   0.78221   0.00000  Uiso   1.00
C143   C     0.77133   0.00040   0.71411   0.00000  Uiso   1.00
C144   C     0.57678   0.95477   0.90982   0.00000  Uiso   1.00
C145   C     0.47543   0.95397   0.89773   0.00000  Uiso   1.00
C146   C     0.43487   0.87444   0.90265   0.00000  Uiso   1.00
C147   C     0.33341   0.76223   0.90428   0.00000  Uiso   1.00
C148   C     0.72626   0.04185   0.96746   0.00000  Uiso   1.00
C149   C     0.75058   0.11425   0.00386   0.00000  Uiso   1.00
C150   C     0.83586   0.10803   0.05732   0.00000  Uiso   1.00
C151   C     0.96648   0.13102   0.14845   0.00000  Uiso   1.00
C152   C     0.74454   0.89468   0.93738   0.00000  Uiso   1.00
C153   C     0.73894   0.93507   0.88134   0.00000  Uiso   1.00
C154   C     0.78546   0.90282   0.84852   0.00000  Uiso   1.00
C155   C     0.77113   0.94925   0.79865   0.00000  Uiso   1.00
C156   C     0.63553   0.87884   0.92623   0.00000  Uiso   1.00
C157   C     0.59511   0.79930   0.93116   0.00000  Uiso   1.00
C158   C     0.49373   0.79837   0.91909   0.00000  Uiso   1.00
C159   C     0.78502   0.96591   0.98387   0.00000  Uiso   1.00
C160   C     0.87027   0.95958   0.03729   0.00000  Uiso   1.00
C161   C     0.89472   0.03196   0.07376   0.00000  Uiso   1.00
H162   H     0.59062   0.09359   0.89439   0.00000  Uiso   1.00
H163   H     0.62030   0.11625   0.80240   0.00000  Uiso   1.00
H164   H     0.42999   0.01274   0.88504   0.00000  Uiso   1.00
H165   H     0.70510   0.17300   0.99115   0.00000  Uiso   1.00
H166   H     0.67909   0.10786   0.70765   0.00000  Uiso   1.00
H167   H     0.27781   0.88962   0.88191   0.00000  Uiso   1.00
H168   H     0.85793   0.22756   0.10565   0.00000  Uiso   1.00
H169   H     0.79029   0.83556   0.95016   0.00000  Uiso   1.00
H170   H     0.83093   0.84406   0.86123   0.00000  Uiso   1.00
H171   H     0.64061   0.74055   0.94387   0.00000  Uiso   1.00
H172   H     0.91572   0.90081   0.04997   0.00000  Uiso   1.00
H173   H     0.85003   0.88694   0.75539   0.00000  Uiso   1.00
H174   H     0.44875   0.66870   0.92965   0.00000  Uiso   1.00
H175   H     0.02887   0.00663   0.15340   0.00000  Uiso   1.00
O176   O     0.78766   0.00763   0.67200   0.00000  Uiso   1.00
O177   O     0.26121   0.72131   0.90064   0.00000  Uiso   1.00
O178   O     0.02231   0.16468   0.19418   0.00000  Uiso   1.00
N179   N     0.71376   0.05471   0.73109   0.00000  Uiso   1.00
N180   N     0.33858   0.85066   0.89401   0.00000  Uiso   1.00
N181   N     0.88093   0.16660   0.10320   0.00000  Uiso   1.00
N182   N     0.80574   0.93583   0.75679   0.00000  Uiso   1.00
N183   N     0.43057   0.73179   0.91970   0.00000  Uiso   1.00
N184   N     0.97292   0.04772   0.12889   0.00000  Uiso   1.00
C185   C     0.13637   0.46552   0.40717   0.00000  Uiso   1.00
C186   C     0.18019   0.48899   0.36493   0.00000  Uiso   1.00
C187   C     0.16578   0.44251   0.31509   0.00000  Uiso   1.00
C188   C     0.21227   0.47469   0.28221   0.00000  Uiso   1.00
C189   C     0.27133   0.49960   0.21411   0.00000  Uiso   1.00
C190   C     0.07678   0.54523   0.40982   0.00000  Uiso   1.00
C191   C     0.97543   0.54603   0.39773   0.00000  Uiso   1.00
C192   C     0.93487   0.62556   0.40265   0.00000  Uiso   1.00
C193   C     0.83341   0.73777   0.40428   0.00000  Uiso   1.00
C194   C     0.22626   0.45815   0.46746   0.00000  Uiso   1.00
C195   C     0.25058   0.38575   0.50386   0.00000  Uiso   1.00
C196   C     0.33586   0.39197   0.55732   0.00000  Uiso   1.00
C197   C     0.46648   0.36898   0.64845   0.00000  Uiso   1.00
C198   C     0.24454   0.60532   0.43738   0.00000  Uiso   1.00
C199   C     0.23894   0.56493   0.38134   0.00000  Uiso   1.00
C200   C     0.28546   0.59718   0.34852   0.00000  Uiso   1.00
C201   C     0.27113   0.55075   0.29865   0.00000  Uiso   1.00
C202   C     0.13553   0.62116   0.42623   0.00000  Uiso   1.00
C203   C     0.09511   0.70070   0.43116   0.00000  Uiso   1.00
C204   C     0.99373   0.70163   0.41909   0.00000  Uiso   1.00
C205   C     0.28502   0.53409   0.48387   0.00000  Uiso   1.00
C206   C     0.37027   0.54042   0.53729   0.00000  Uiso   1.00
C207   C     0.39472   0.46804   0.57376   0.00000  Uiso   1.00
H208   H     0.09062   0.40641   0.39439   0.00000  Uiso   1.00
H209   H     0.12030   0.38375   0.30240   0.00000  Uiso   1.00
H210   H     0.92999   0.48726   0.38504   0.00000  Uiso   1.00
H211   H     0.20510   0.32700   0.49115   0.00000  Uiso   1.00
H212   H     0.17909   0.39214   0.20765   0.00000  Uiso   1.00
H213   H     0.77781   0.61038   0.38191   0.00000  Uiso   1.00
H214   H     0.35793   0.27244   0.60565   0.00000  Uiso   1.00
H215   H     0.29029   0.66444   0.45016   0.00000  Uiso   1.00
H216   H     0.33093   0.65594   0.36123   0.00000  Uiso   1.00
H217   H     0.14061   0.75945   0.44387   0.00000  Uiso   1.00
H218   H     0.41572   0.59919   0.54997   0.00000  Uiso   1.00
H219   H     0.35003   0.61306   0.25539   0.00000  Uiso   1.00
H220   H     0.94875   0.83130   0.42965   0.00000  Uiso   1.00
H221   H     0.52887   0.49337   0.65340   0.00000  Uiso   1.00
O222   O     0.28766   0.49237   0.17200   0.00000  Uiso   1.00
O223   O     0.76121   0.77869   0.40064   0.00000  Uiso   1.00
O224   O     0.52231   0.33532   0.69418   0.00000  Uiso   1.00
N225   N     0.21376   0.44529   0.23109   0.00000  Uiso   1.00
N226   N     0.83858   0.64934   0.39401   0.00000  Uiso   1.00
N227   N     0.38093   0.33340   0.60320   0.00000  Uiso   1.00
N228   N     0.30574   0.56417   0.25679   0.00000  Uiso   1.00
N229   N     0.93057   0.76821   0.41970   0.00000  Uiso   1.00
N230   N     0.47292   0.45228   0.62889   0.00000  Uiso   1.00
C231   C     0.63637   0.96552   0.40717   0.00000  Uiso   1.00
C232   C     0.68019   0.98899   0.36493   0.00000  Uiso   1.00
C233   C     0.66578   0.94251   0.31509   0.00000  Uiso   1.00
C234   C     0.71227   0.97469   0.28221   0.00000  Uiso   1.00
C235   C     0.77133   0.99960   0.21411   0.00000  Uiso   1.00
C236   C     0.57678   0.04523   0.40982   0.00000  Uiso   1.00
C237   C     0.47543   0.04603   0.39773   0.00000  Uiso   1.00
C238   C     0.43487   0.12556   0.40265   0.00000  Uiso   1.00
C239   C     0.33341   0.23777   0.40428   0.00000  Uiso   1.00
C240   C     0.72626   0.95815   0.46746   0.00000  Uiso   1.00
C241   C     0.75058   0.88575   0.50386   0.00000  Uiso   1.00
C242   C     0.83586   0.89197   0.55732   0.00000  Uiso   1.00
C243   C     0.96648   0.86898   0.64845   0.00000  Uiso   1.00
C244   C     0.74454   0.10532   0.43738   0.00000  Uiso   1.00
C245   C     0.73894   0.06493   0.38134   0.00000  Uiso   1.00
C246   C     0.78546   0.09718   0.34852   0.00000  Uiso   1.00
C247   C     0.77113   0.05075   0.29865   0.00000  Uiso   1.00
C248   C     0.63553   0.12116   0.42623   0.00000  Uiso   1.00
C249   C     0.59511   0.20070   0.43116   0.00000  Uiso   1.00
C250   C     0.49373   0.20163   0.41909   0.00000  Uiso   1.00
C251   C     0.78502   0.03409   0.48387   0.00000  Uiso   1.00
C252   C     0.87027   0.04042   0.53729   0.00000  Uiso   1.00
C253   C     0.89472   0.96804   0.57376   0.00000  Uiso   1.00
H254   H     0.59062   0.90641   0.39439   0.00000  Uiso   1.00
H255   H     0.62030   0.88375   0.30240   0.00000  Uiso   1.00
H256   H     0.42999   0.98726   0.38504   0.00000  Uiso   1.00
H257   H     0.70510   0.82700   0.49115   0.00000  Uiso   1.00
H258   H     0.67909   0.89214   0.20765   0.00000  Uiso   1.00
H259   H     0.27781   0.11038   0.38191   0.00000  Uiso   1.00
H260   H     0.85793   0.77244   0.60565   0.00000  Uiso   1.00
H261   H     0.79029   0.16444   0.45016   0.00000  Uiso   1.00
H262   H     0.83093   0.15594   0.36123   0.00000  Uiso   1.00
H263   H     0.64061   0.25945   0.44387   0.00000  Uiso   1.00
H264   H     0.91572   0.09919   0.54997   0.00000  Uiso   1.00
H265   H     0.85003   0.11306   0.25539   0.00000  Uiso   1.00
H266   H     0.44875   0.33130   0.42965   0.00000  Uiso   1.00
H267   H     0.02887   0.99337   0.65340   0.00000  Uiso   1.00
O268   O     0.78766   0.99237   0.17200   0.00000  Uiso   1.00
O269   O     0.26121   0.27869   0.40064   0.00000  Uiso   1.00
O270   O     0.02231   0.83532   0.69418   0.00000  Uiso   1.00
N271   N     0.71376   0.94529   0.23109   0.00000  Uiso   1.00
N272   N     0.33858   0.14934   0.39401   0.00000  Uiso   1.00
N273   N     0.88093   0.83340   0.60320   0.00000  Uiso   1.00
N274   N     0.80574   0.06417   0.25679   0.00000  Uiso   1.00
N275   N     0.43057   0.26821   0.41970   0.00000  Uiso   1.00
N276   N     0.97292   0.95228   0.62889   0.00000  Uiso   1.00
C277   C     0.86363   0.46552   0.09283   0.00000  Uiso   1.00
C278   C     0.81981   0.48899   0.13507   0.00000  Uiso   1.00
C279   C     0.83422   0.44251   0.18491   0.00000  Uiso   1.00
C280   C     0.78773   0.47469   0.21779   0.00000  Uiso   1.00
C281   C     0.72867   0.49960   0.28589   0.00000  Uiso   1.00
C282   C     0.92322   0.54523   0.09018   0.00000  Uiso   1.00
C283   C     0.02457   0.54603   0.10227   0.00000  Uiso   1.00
C284   C     0.06513   0.62556   0.09735   0.00000  Uiso   1.00
C285   C     0.16659   0.73777   0.09572   0.00000  Uiso   1.00
C286   C     0.77374   0.45815   0.03254   0.00000  Uiso   1.00
C287   C     0.74942   0.38575   0.99614   0.00000  Uiso   1.00
C288   C     0.66414   0.39197   0.94268   0.00000  Uiso   1.00
C289   C     0.53352   0.36898   0.85155   0.00000  Uiso   1.00
C290   C     0.75546   0.60532   0.06262   0.00000  Uiso   1.00
C291   C     0.76106   0.56493   0.11866   0.00000  Uiso   1.00
C292   C     0.71454   0.59718   0.15148   0.00000  Uiso   1.00
C293   C     0.72887   0.55075   0.20135   0.00000  Uiso   1.00
C294   C     0.86447   0.62116   0.07377   0.00000  Uiso   1.00
C295   C     0.90489   0.70070   0.06884   0.00000  Uiso   1.00
C296   C     0.00627   0.70163   0.08091   0.00000  Uiso   1.00
C297   C     0.71498   0.53409   0.01613   0.00000  Uiso   1.00
C298   C     0.62973   0.54042   0.96271   0.00000  Uiso   1.00
C299   C     0.60528   0.46804   0.92624   0.00000  Uiso   1.00
H300   H     0.90938   0.40641   0.10561   0.00000  Uiso   1.00
H301   H     0.87970   0.38375   0.19760   0.00000  Uiso   1.00
H302   H     0.07001   0.48726   0.11496   0.00000  Uiso   1.00
H303   H     0.79490   0.32700   0.00885   0.00000  Uiso   1.00
H304   H     0.82091   0.39214   0.29235   0.00000  Uiso   1.00
H305   H     0.22219   0.61038   0.11809   0.00000  Uiso   1.00
H306   H     0.64207   0.27244   0.89435   0.00000  Uiso   1.00
H307   H     0.70971   0.66444   0.04984   0.00000  Uiso   1.00
H308   H     0.66907   0.65594   0.13877   0.00000  Uiso   1.00
H309   H     0.85939   0.75945   0.05613   0.00000  Uiso   1.00
H310   H     0.58428   0.59919   0.95003   0.00000  Uiso   1.00
H311   H     0.64997   0.61306   0.24461   0.00000  Uiso   1.00
H312   H     0.05125   0.83130   0.07035   0.00000  Uiso   1.00
H313   H     0.47113   0.49337   0.84660   0.00000  Uiso   1.00
O314   O     0.71234   0.49237   0.32800   0.00000  Uiso   1.00
O315   O     0.23879   0.77869   0.09936   0.00000  Uiso   1.00
O316   O     0.47769   0.33532   0.80582   0.00000  Uiso   1.00
N317   N     0.78624   0.44529   0.26891   0.00000  Uiso   1.00
N318   N     0.16142   0.64934   0.10599   0.00000  Uiso   1.00
N319   N     0.61907   0.33340   0.89680   0.00000  Uiso   1.00
N320   N     0.69426   0.56417   0.24321   0.00000  Uiso   1.00
N321   N     0.06943   0.76821   0.08030   0.00000  Uiso   1.00
N322   N     0.52708   0.45228   0.87111   0.00000  Uiso   1.00
C323   C     0.36363   0.96552   0.09283   0.00000  Uiso   1.00
C324   C     0.31981   0.98899   0.13507   0.00000  Uiso   1.00
C325   C     0.33422   0.94251   0.18491   0.00000  Uiso   1.00
C326   C     0.28773   0.97469   0.21779   0.00000  Uiso   1.00
C327   C     0.22867   0.99960   0.28589   0.00000  Uiso   1.00
C328   C     0.42322   0.04523   0.09018   0.00000  Uiso   1.00
C329   C     0.52457   0.04603   0.10227   0.00000  Uiso   1.00
C330   C     0.56513   0.12556   0.09735   0.00000  Uiso   1.00
C331   C     0.66659   0.23777   0.09572   0.00000  Uiso   1.00
C332   C     0.27374   0.95815   0.03254   0.00000  Uiso   1.00
C333   C     0.24942   0.88575   0.99614   0.00000  Uiso   1.00
C334   C     0.16414   0.89197   0.94268   0.00000  Uiso   1.00
C335   C     0.03352   0.86898   0.85155   0.00000  Uiso   1.00
C336   C     0.25546   0.10532   0.06262   0.00000  Uiso   1.00
C337   C     0.26106   0.06493   0.11866   0.00000  Uiso   1.00
C338   C     0.21454   0.09718   0.15148   0.00000  Uiso   1.00
C339   C     0.22887   0.05075   0.20135   0.00000  Uiso   1.00
C340   C     0.36447   0.12116   0.07377   0.00000  Uiso   1.00
C341   C     0.40489   0.20070   0.06884   0.00000  Uiso   1.00
C342   C     0.50627   0.20163   0.08091   0.00000  Uiso   1.00
C343   C     0.21498   0.03409   0.01613   0.00000  Uiso   1.00
C344   C     0.12973   0.04042   0.96271   0.00000  Uiso   1.00
C345   C     0.10528   0.96804   0.92624   0.00000  Uiso   1.00
H346   H     0.40938   0.90641   0.10561   0.00000  Uiso   1.00
H347   H     0.37970   0.88375   0.19760   0.00000  Uiso   1.00
H348   H     0.57001   0.98726   0.11496   0.00000  Uiso   1.00
H349   H     0.29490   0.82700   0.00885   0.00000  Uiso   1.00
H350   H     0.32091   0.89214   0.29235   0.00000  Uiso   1.00
H351   H     0.72219   0.11038   0.11809   0.00000  Uiso   1.00
H352   H     0.14207   0.77244   0.89435   0.00000  Uiso   1.00
H353   H     0.20971   0.16444   0.04984   0.00000  Uiso   1.00
H354   H     0.16907   0.15594   0.13877   0.00000  Uiso   1.00
H355   H     0.35939   0.25945   0.05613   0.00000  Uiso   1.00
H356   H     0.08428   0.09919   0.95003   0.00000  Uiso   1.00
H357   H     0.14997   0.11306   0.24461   0.00000  Uiso   1.00
H358   H     0.55125   0.33130   0.07035   0.00000  Uiso   1.00
H359   H     0.97113   0.99337   0.84660   0.00000  Uiso   1.00
O360   O     0.21234   0.99237   0.32800   0.00000  Uiso   1.00
O361   O     0.73879   0.27869   0.09936   0.00000  Uiso   1.00
O362   O     0.97769   0.83532   0.80582   0.00000  Uiso   1.00
N363   N     0.28624   0.94529   0.26891   0.00000  Uiso   1.00
N364   N     0.66142   0.14934   0.10599   0.00000  Uiso   1.00
N365   N     0.11907   0.83340   0.89680   0.00000  Uiso   1.00
N366   N     0.19426   0.06417   0.24321   0.00000  Uiso   1.00
N367   N     0.56943   0.26821   0.08030   0.00000  Uiso   1.00
N368   N     0.02708   0.95228   0.87111   0.00000  Uiso   1.00
