data_job_02216
_audit_creation_date              2018-12-19
_audit_creation_method            'Materials Studio'
_symmetry_space_group_name_H-M    'P1'
_symmetry_Int_Tables_number       1
_symmetry_cell_setting            triclinic
loop_
_symmetry_equiv_pos_as_xyz
  x,y,z
_cell_length_a                    26.4581
_cell_length_b                    26.4581
_cell_length_c                    7.0014
_cell_angle_alpha                 90.0000
_cell_angle_beta                  90.0000
_cell_angle_gamma                 120.0000
loop_
_atom_site_label
_atom_site_type_symbol
_atom_site_fract_x
_atom_site_fract_y
_atom_site_fract_z
_atom_site_U_iso_or_equiv
_atom_site_adp_type
_atom_site_occupancy
C1     C     0.26762   0.37309   0.05284   0.00000  Uiso   1.00
C2     C     0.26685   0.31996   0.14065   0.00000  Uiso   1.00
C3     C     0.25037   0.26762   0.04793   0.00000  Uiso   1.00
C4     C     0.25269   0.22433   0.15308   0.00000  Uiso   1.00
C5     C     0.24872   0.14050   0.26040   0.00000  Uiso   1.00
C6     C     0.22921   0.38660   0.18072   0.00000  Uiso   1.00
C7     C     0.18108   0.39029   0.12167   0.00000  Uiso   1.00
C8     C     0.15172   0.40311   0.26056   0.00000  Uiso   1.00
C9     C     0.08933   0.42278   0.43005   0.00000  Uiso   1.00
C10    C     0.32969   0.42380   0.07814   0.00000  Uiso   1.00
C11    C     0.36604   0.45878   0.93285   0.00000  Uiso   1.00
C12    C     0.42126   0.50293   0.98538   0.00000  Uiso   1.00
C13    C     0.51487   0.58035   0.99560   0.00000  Uiso   1.00
C14    C     0.30105   0.38930   0.40447   0.00000  Uiso   1.00
C15    C     0.28501   0.32877   0.33164   0.00000  Uiso   1.00
C16    C     0.28736   0.28556   0.43696   0.00000  Uiso   1.00
C17    C     0.27088   0.23315   0.34441   0.00000  Uiso   1.00
C18    C     0.24737   0.39541   0.37170   0.00000  Uiso   1.00
C19    C     0.21807   0.40823   0.51071   0.00000  Uiso   1.00
C20    C     0.16991   0.41194   0.45190   0.00000  Uiso   1.00
C21    C     0.34785   0.43261   0.26913   0.00000  Uiso   1.00
C22    C     0.40302   0.47672   0.32189   0.00000  Uiso   1.00
C23    C     0.43945   0.51175   0.17671   0.00000  Uiso   1.00
H24    H     0.25348   0.36623   0.90416   0.00000  Uiso   1.00
H25    H     0.23632   0.26081   0.90013   0.00000  Uiso   1.00
H26    H     0.16705   0.38348   0.97386   0.00000  Uiso   1.00
H27    H     0.35197   0.45195   0.78507   0.00000  Uiso   1.00
H28    H     0.22528   0.14782   0.97991   0.00000  Uiso   1.00
H29    H     0.07923   0.40648   0.13537   0.00000  Uiso   1.00
H30    H     0.46918   0.55087   0.73727   0.00000  Uiso   1.00
H31    H     0.31518   0.39616   0.55317   0.00000  Uiso   1.00
H32    H     0.30141   0.29239   0.58476   0.00000  Uiso   1.00
H33    H     0.23213   0.41505   0.65849   0.00000  Uiso   1.00
H34    H     0.41706   0.48352   0.46970   0.00000  Uiso   1.00
H35    H     0.27811   0.17344   0.53559   0.00000  Uiso   1.00
H36    H     0.13205   0.43211   0.69104   0.00000  Uiso   1.00
H37    H     0.52200   0.57649   0.29294   0.00000  Uiso   1.00
O38    O     0.24150   0.09182   0.26684   0.00000  Uiso   1.00
O39    O     0.04989   0.43118   0.47078   0.00000  Uiso   1.00
O40    O     0.56150   0.62061   0.94848   0.00000  Uiso   1.00
N41    N     0.23961   0.16810   0.10634   0.00000  Uiso   1.00
N42    N     0.10306   0.40992   0.25169   0.00000  Uiso   1.00
N43    N     0.46762   0.54492   0.87950   0.00000  Uiso   1.00
N44    N     0.26804   0.18188   0.40535   0.00000  Uiso   1.00
N45    N     0.13148   0.42371   0.55069   0.00000  Uiso   1.00
N46    N     0.49605   0.55871   0.17851   0.00000  Uiso   1.00
C47    C     0.62691   0.89453   0.05284   0.00000  Uiso   1.00
C48    C     0.68004   0.94689   0.14065   0.00000  Uiso   1.00
C49    C     0.73238   0.98276   0.04793   0.00000  Uiso   1.00
C50    C     0.77567   0.02836   0.15308   0.00000  Uiso   1.00
C51    C     0.85950   0.10822   0.26040   0.00000  Uiso   1.00
C52    C     0.61340   0.84261   0.18072   0.00000  Uiso   1.00
C53    C     0.60971   0.79079   0.12167   0.00000  Uiso   1.00
C54    C     0.59689   0.74861   0.26056   0.00000  Uiso   1.00
C55    C     0.57722   0.66655   0.43005   0.00000  Uiso   1.00
C56    C     0.57620   0.90589   0.07814   0.00000  Uiso   1.00
C57    C     0.54122   0.90726   0.93285   0.00000  Uiso   1.00
C58    C     0.49707   0.91833   0.98538   0.00000  Uiso   1.00
C59    C     0.41965   0.93453   0.99560   0.00000  Uiso   1.00
C60    C     0.61070   0.91174   0.40447   0.00000  Uiso   1.00
C61    C     0.67123   0.95624   0.33164   0.00000  Uiso   1.00
C62    C     0.71444   0.00180   0.43696   0.00000  Uiso   1.00
C63    C     0.76685   0.03773   0.34441   0.00000  Uiso   1.00
C64    C     0.60459   0.85195   0.37170   0.00000  Uiso   1.00
C65    C     0.59177   0.80984   0.51071   0.00000  Uiso   1.00
C66    C     0.58806   0.75797   0.45190   0.00000  Uiso   1.00
C67    C     0.56739   0.91524   0.26913   0.00000  Uiso   1.00
C68    C     0.52328   0.92631   0.32189   0.00000  Uiso   1.00
C69    C     0.48825   0.92770   0.17671   0.00000  Uiso   1.00
H70    H     0.63377   0.88725   0.90416   0.00000  Uiso   1.00
H71    H     0.73919   0.97550   0.90013   0.00000  Uiso   1.00
H72    H     0.61652   0.78357   0.97386   0.00000  Uiso   1.00
H73    H     0.54805   0.90002   0.78507   0.00000  Uiso   1.00
H74    H     0.85218   0.07746   0.97991   0.00000  Uiso   1.00
H75    H     0.59352   0.67275   0.13537   0.00000  Uiso   1.00
H76    H     0.44913   0.91831   0.73727   0.00000  Uiso   1.00
H77    H     0.60384   0.91902   0.55317   0.00000  Uiso   1.00
H78    H     0.70761   0.00902   0.58476   0.00000  Uiso   1.00
H79    H     0.58495   0.81708   0.65849   0.00000  Uiso   1.00
H80    H     0.51648   0.93354   0.46970   0.00000  Uiso   1.00
H81    H     0.82656   0.10466   0.53559   0.00000  Uiso   1.00
H82    H     0.56789   0.69995   0.69104   0.00000  Uiso   1.00
H83    H     0.42351   0.94551   0.29294   0.00000  Uiso   1.00
O84    O     0.90818   0.14968   0.26684   0.00000  Uiso   1.00
O85    O     0.56882   0.61871   0.47078   0.00000  Uiso   1.00
O86    O     0.37939   0.94088   0.94848   0.00000  Uiso   1.00
N87    N     0.83190   0.07152   0.10634   0.00000  Uiso   1.00
N88    N     0.59008   0.69314   0.25169   0.00000  Uiso   1.00
N89    N     0.45508   0.92270   0.87950   0.00000  Uiso   1.00
N90    N     0.81812   0.08616   0.40535   0.00000  Uiso   1.00
N91    N     0.57629   0.70778   0.55069   0.00000  Uiso   1.00
N92    N     0.44129   0.93734   0.17851   0.00000  Uiso   1.00
C93    C     0.10547   0.73238   0.05284   0.00000  Uiso   1.00
C94    C     0.05311   0.73315   0.14065   0.00000  Uiso   1.00
C95    C     0.01724   0.74963   0.04793   0.00000  Uiso   1.00
C96    C     0.97164   0.74731   0.15308   0.00000  Uiso   1.00
C97    C     0.89178   0.75128   0.26040   0.00000  Uiso   1.00
C98    C     0.15739   0.77079   0.18072   0.00000  Uiso   1.00
C99    C     0.20921   0.81892   0.12167   0.00000  Uiso   1.00
C100   C     0.25139   0.84828   0.26056   0.00000  Uiso   1.00
C101   C     0.33345   0.91067   0.43005   0.00000  Uiso   1.00
C102   C     0.09411   0.67031   0.07814   0.00000  Uiso   1.00
C103   C     0.09274   0.63396   0.93285   0.00000  Uiso   1.00
C104   C     0.08167   0.57874   0.98538   0.00000  Uiso   1.00
C105   C     0.06547   0.48513   0.99560   0.00000  Uiso   1.00
C106   C     0.08826   0.69895   0.40447   0.00000  Uiso   1.00
C107   C     0.04376   0.71499   0.33164   0.00000  Uiso   1.00
C108   C     0.99820   0.71264   0.43696   0.00000  Uiso   1.00
C109   C     0.96227   0.72912   0.34441   0.00000  Uiso   1.00
C110   C     0.14805   0.75263   0.37170   0.00000  Uiso   1.00
C111   C     0.19016   0.78193   0.51071   0.00000  Uiso   1.00
C112   C     0.24203   0.83009   0.45190   0.00000  Uiso   1.00
C113   C     0.08476   0.65215   0.26913   0.00000  Uiso   1.00
C114   C     0.07369   0.59698   0.32189   0.00000  Uiso   1.00
C115   C     0.07230   0.56055   0.17671   0.00000  Uiso   1.00
H116   H     0.11275   0.74652   0.90416   0.00000  Uiso   1.00
H117   H     0.02450   0.76368   0.90013   0.00000  Uiso   1.00
H118   H     0.21643   0.83295   0.97386   0.00000  Uiso   1.00
H119   H     0.09998   0.64803   0.78507   0.00000  Uiso   1.00
H120   H     0.92254   0.77472   0.97991   0.00000  Uiso   1.00
H121   H     0.32725   0.92077   0.13537   0.00000  Uiso   1.00
H122   H     0.08169   0.53082   0.73727   0.00000  Uiso   1.00
H123   H     0.08098   0.68482   0.55317   0.00000  Uiso   1.00
H124   H     0.99098   0.69859   0.58476   0.00000  Uiso   1.00
H125   H     0.18292   0.76787   0.65849   0.00000  Uiso   1.00
H126   H     0.06646   0.58294   0.46970   0.00000  Uiso   1.00
H127   H     0.89534   0.72189   0.53559   0.00000  Uiso   1.00
H128   H     0.30005   0.86795   0.69104   0.00000  Uiso   1.00
H129   H     0.05449   0.47800   0.29294   0.00000  Uiso   1.00
O130   O     0.85032   0.75850   0.26684   0.00000  Uiso   1.00
O131   O     0.38129   0.95011   0.47078   0.00000  Uiso   1.00
O132   O     0.05912   0.43850   0.94848   0.00000  Uiso   1.00
N133   N     0.92848   0.76039   0.10634   0.00000  Uiso   1.00
N134   N     0.30686   0.89694   0.25169   0.00000  Uiso   1.00
N135   N     0.07730   0.53238   0.87950   0.00000  Uiso   1.00
N136   N     0.91384   0.73196   0.40535   0.00000  Uiso   1.00
N137   N     0.29222   0.86852   0.55069   0.00000  Uiso   1.00
N138   N     0.06266   0.50395   0.17851   0.00000  Uiso   1.00
C139   C     0.73238   0.62691   0.94716   0.00000  Uiso   1.00
C140   C     0.73315   0.68004   0.85935   0.00000  Uiso   1.00
C141   C     0.74963   0.73238   0.95207   0.00000  Uiso   1.00
C142   C     0.74731   0.77567   0.84692   0.00000  Uiso   1.00
C143   C     0.75128   0.85950   0.73960   0.00000  Uiso   1.00
C144   C     0.77079   0.61340   0.81928   0.00000  Uiso   1.00
C145   C     0.81892   0.60971   0.87833   0.00000  Uiso   1.00
C146   C     0.84828   0.59689   0.73944   0.00000  Uiso   1.00
C147   C     0.91067   0.57722   0.56995   0.00000  Uiso   1.00
C148   C     0.67031   0.57620   0.92186   0.00000  Uiso   1.00
C149   C     0.63396   0.54122   0.06715   0.00000  Uiso   1.00
C150   C     0.57874   0.49707   0.01462   0.00000  Uiso   1.00
C151   C     0.48513   0.41965   0.00440   0.00000  Uiso   1.00
C152   C     0.69895   0.61070   0.59553   0.00000  Uiso   1.00
C153   C     0.71499   0.67123   0.66836   0.00000  Uiso   1.00
C154   C     0.71264   0.71444   0.56304   0.00000  Uiso   1.00
C155   C     0.72912   0.76685   0.65559   0.00000  Uiso   1.00
C156   C     0.75263   0.60459   0.62830   0.00000  Uiso   1.00
C157   C     0.78193   0.59177   0.48929   0.00000  Uiso   1.00
C158   C     0.83009   0.58806   0.54810   0.00000  Uiso   1.00
C159   C     0.65215   0.56739   0.73087   0.00000  Uiso   1.00
C160   C     0.59698   0.52328   0.67811   0.00000  Uiso   1.00
C161   C     0.56055   0.48825   0.82329   0.00000  Uiso   1.00
H162   H     0.74652   0.63377   0.09584   0.00000  Uiso   1.00
H163   H     0.76368   0.73919   0.09987   0.00000  Uiso   1.00
H164   H     0.83295   0.61652   0.02614   0.00000  Uiso   1.00
H165   H     0.64803   0.54805   0.21493   0.00000  Uiso   1.00
H166   H     0.77472   0.85218   0.02009   0.00000  Uiso   1.00
H167   H     0.92077   0.59352   0.86463   0.00000  Uiso   1.00
H168   H     0.53082   0.44913   0.26273   0.00000  Uiso   1.00
H169   H     0.68482   0.60384   0.44683   0.00000  Uiso   1.00
H170   H     0.69859   0.70761   0.41524   0.00000  Uiso   1.00
H171   H     0.76787   0.58495   0.34151   0.00000  Uiso   1.00
H172   H     0.58294   0.51648   0.53030   0.00000  Uiso   1.00
H173   H     0.72189   0.82656   0.46441   0.00000  Uiso   1.00
H174   H     0.86795   0.56789   0.30896   0.00000  Uiso   1.00
H175   H     0.47800   0.42351   0.70706   0.00000  Uiso   1.00
O176   O     0.75850   0.90818   0.73316   0.00000  Uiso   1.00
O177   O     0.95011   0.56882   0.52922   0.00000  Uiso   1.00
O178   O     0.43850   0.37939   0.05152   0.00000  Uiso   1.00
N179   N     0.76039   0.83190   0.89366   0.00000  Uiso   1.00
N180   N     0.89694   0.59008   0.74831   0.00000  Uiso   1.00
N181   N     0.53238   0.45508   0.12050   0.00000  Uiso   1.00
N182   N     0.73196   0.81812   0.59465   0.00000  Uiso   1.00
N183   N     0.86852   0.57629   0.44931   0.00000  Uiso   1.00
N184   N     0.50395   0.44129   0.82149   0.00000  Uiso   1.00
C185   C     0.37309   0.10547   0.94716   0.00000  Uiso   1.00
C186   C     0.31996   0.05311   0.85935   0.00000  Uiso   1.00
C187   C     0.26762   0.01724   0.95207   0.00000  Uiso   1.00
C188   C     0.22433   0.97164   0.84692   0.00000  Uiso   1.00
C189   C     0.14050   0.89178   0.73960   0.00000  Uiso   1.00
C190   C     0.38660   0.15739   0.81928   0.00000  Uiso   1.00
C191   C     0.39029   0.20921   0.87833   0.00000  Uiso   1.00
C192   C     0.40311   0.25139   0.73944   0.00000  Uiso   1.00
C193   C     0.42278   0.33345   0.56995   0.00000  Uiso   1.00
C194   C     0.42380   0.09411   0.92186   0.00000  Uiso   1.00
C195   C     0.45878   0.09274   0.06715   0.00000  Uiso   1.00
C196   C     0.50293   0.08167   0.01462   0.00000  Uiso   1.00
C197   C     0.58035   0.06547   0.00440   0.00000  Uiso   1.00
C198   C     0.38930   0.08826   0.59553   0.00000  Uiso   1.00
C199   C     0.32877   0.04376   0.66836   0.00000  Uiso   1.00
C200   C     0.28556   0.99820   0.56304   0.00000  Uiso   1.00
C201   C     0.23315   0.96227   0.65559   0.00000  Uiso   1.00
C202   C     0.39541   0.14805   0.62830   0.00000  Uiso   1.00
C203   C     0.40823   0.19016   0.48929   0.00000  Uiso   1.00
C204   C     0.41194   0.24203   0.54810   0.00000  Uiso   1.00
C205   C     0.43261   0.08476   0.73087   0.00000  Uiso   1.00
C206   C     0.47672   0.07369   0.67811   0.00000  Uiso   1.00
C207   C     0.51175   0.07230   0.82329   0.00000  Uiso   1.00
H208   H     0.36623   0.11275   0.09584   0.00000  Uiso   1.00
H209   H     0.26081   0.02450   0.09987   0.00000  Uiso   1.00
H210   H     0.38348   0.21643   0.02614   0.00000  Uiso   1.00
H211   H     0.45195   0.09998   0.21493   0.00000  Uiso   1.00
H212   H     0.14782   0.92254   0.02009   0.00000  Uiso   1.00
H213   H     0.40648   0.32725   0.86463   0.00000  Uiso   1.00
H214   H     0.55087   0.08169   0.26273   0.00000  Uiso   1.00
H215   H     0.39616   0.08098   0.44683   0.00000  Uiso   1.00
H216   H     0.29239   0.99098   0.41524   0.00000  Uiso   1.00
H217   H     0.41505   0.18292   0.34151   0.00000  Uiso   1.00
H218   H     0.48352   0.06646   0.53030   0.00000  Uiso   1.00
H219   H     0.17344   0.89534   0.46441   0.00000  Uiso   1.00
H220   H     0.43211   0.30005   0.30896   0.00000  Uiso   1.00
H221   H     0.57649   0.05449   0.70706   0.00000  Uiso   1.00
O222   O     0.09182   0.85032   0.73316   0.00000  Uiso   1.00
O223   O     0.43118   0.38129   0.52922   0.00000  Uiso   1.00
O224   O     0.62061   0.05912   0.05152   0.00000  Uiso   1.00
N225   N     0.16810   0.92848   0.89366   0.00000  Uiso   1.00
N226   N     0.40992   0.30686   0.74831   0.00000  Uiso   1.00
N227   N     0.54492   0.07730   0.12050   0.00000  Uiso   1.00
N228   N     0.18188   0.91384   0.59465   0.00000  Uiso   1.00
N229   N     0.42371   0.29222   0.44931   0.00000  Uiso   1.00
N230   N     0.55871   0.06266   0.82149   0.00000  Uiso   1.00
C231   C     0.89453   0.26762   0.94716   0.00000  Uiso   1.00
C232   C     0.94689   0.26685   0.85935   0.00000  Uiso   1.00
C233   C     0.98276   0.25037   0.95207   0.00000  Uiso   1.00
C234   C     0.02836   0.25269   0.84692   0.00000  Uiso   1.00
C235   C     0.10822   0.24872   0.73960   0.00000  Uiso   1.00
C236   C     0.84261   0.22921   0.81928   0.00000  Uiso   1.00
C237   C     0.79079   0.18108   0.87833   0.00000  Uiso   1.00
C238   C     0.74861   0.15172   0.73944   0.00000  Uiso   1.00
C239   C     0.66655   0.08933   0.56995   0.00000  Uiso   1.00
C240   C     0.90589   0.32969   0.92186   0.00000  Uiso   1.00
C241   C     0.90726   0.36604   0.06715   0.00000  Uiso   1.00
C242   C     0.91833   0.42126   0.01462   0.00000  Uiso   1.00
C243   C     0.93453   0.51487   0.00440   0.00000  Uiso   1.00
C244   C     0.91174   0.30105   0.59553   0.00000  Uiso   1.00
C245   C     0.95624   0.28501   0.66836   0.00000  Uiso   1.00
C246   C     0.00180   0.28736   0.56304   0.00000  Uiso   1.00
C247   C     0.03773   0.27088   0.65559   0.00000  Uiso   1.00
C248   C     0.85195   0.24737   0.62830   0.00000  Uiso   1.00
C249   C     0.80984   0.21807   0.48929   0.00000  Uiso   1.00
C250   C     0.75797   0.16991   0.54810   0.00000  Uiso   1.00
C251   C     0.91524   0.34785   0.73087   0.00000  Uiso   1.00
C252   C     0.92631   0.40302   0.67811   0.00000  Uiso   1.00
C253   C     0.92770   0.43945   0.82329   0.00000  Uiso   1.00
H254   H     0.88725   0.25348   0.09584   0.00000  Uiso   1.00
H255   H     0.97550   0.23632   0.09987   0.00000  Uiso   1.00
H256   H     0.78357   0.16705   0.02614   0.00000  Uiso   1.00
H257   H     0.90002   0.35197   0.21493   0.00000  Uiso   1.00
H258   H     0.07746   0.22528   0.02009   0.00000  Uiso   1.00
H259   H     0.67275   0.07923   0.86463   0.00000  Uiso   1.00
H260   H     0.91831   0.46918   0.26273   0.00000  Uiso   1.00
H261   H     0.91902   0.31518   0.44683   0.00000  Uiso   1.00
H262   H     0.00902   0.30141   0.41524   0.00000  Uiso   1.00
H263   H     0.81708   0.23213   0.34151   0.00000  Uiso   1.00
H264   H     0.93354   0.41706   0.53030   0.00000  Uiso   1.00
H265   H     0.10466   0.27811   0.46441   0.00000  Uiso   1.00
H266   H     0.69995   0.13205   0.30896   0.00000  Uiso   1.00
H267   H     0.94551   0.52200   0.70706   0.00000  Uiso   1.00
O268   O     0.14968   0.24150   0.73316   0.00000  Uiso   1.00
O269   O     0.61871   0.04989   0.52922   0.00000  Uiso   1.00
O270   O     0.94088   0.56150   0.05152   0.00000  Uiso   1.00
N271   N     0.07152   0.23961   0.89366   0.00000  Uiso   1.00
N272   N     0.69314   0.10306   0.74831   0.00000  Uiso   1.00
N273   N     0.92270   0.46762   0.12050   0.00000  Uiso   1.00
N274   N     0.08616   0.26804   0.59465   0.00000  Uiso   1.00
N275   N     0.70778   0.13148   0.44931   0.00000  Uiso   1.00
N276   N     0.93734   0.49605   0.82149   0.00000  Uiso   1.00
