data_job_03595
_audit_creation_date              2018-12-19
_audit_creation_method            'Materials Studio'
_symmetry_space_group_name_H-M    'P1'
_symmetry_Int_Tables_number       1
_symmetry_cell_setting            triclinic
loop_
_symmetry_equiv_pos_as_xyz
  x,y,z
_cell_length_a                    14.6489
_cell_length_b                    14.9547
_cell_length_c                    9.6953
_cell_angle_alpha                 90.0000
_cell_angle_beta                  90.0000
_cell_angle_gamma                 90.0000
loop_
_atom_site_label
_atom_site_type_symbol
_atom_site_fract_x
_atom_site_fract_y
_atom_site_fract_z
_atom_site_U_iso_or_equiv
_atom_site_adp_type
_atom_site_occupancy
C1     C     0.98563   0.32254   0.96099   0.00000  Uiso   1.00
C2     C     0.03288   0.26055   0.06346   0.00000  Uiso   1.00
C3     C     0.03259   0.27011   0.20584   0.00000  Uiso   1.00
C4     C     0.07988   0.20637   0.28157   0.00000  Uiso   1.00
C5     C     0.14629   0.12090   0.45049   0.00000  Uiso   1.00
C6     C     0.05978   0.35442   0.86215   0.00000  Uiso   1.00
C7     C     0.08210   0.44292   0.83526   0.00000  Uiso   1.00
C8     C     0.15204   0.45819   0.74151   0.00000  Uiso   1.00
C9     C     0.26018   0.51846   0.59782   0.00000  Uiso   1.00
C10    C     0.92215   0.26342   0.87601   0.00000  Uiso   1.00
C11    C     0.82875   0.27541   0.86073   0.00000  Uiso   1.00
C12    C     0.78280   0.21408   0.77862   0.00000  Uiso   1.00
C13    C     0.67724   0.13306   0.65645   0.00000  Uiso   1.00
C14    C     0.07012   0.19233   0.84230   0.00000  Uiso   1.00
C15    C     0.07877   0.18983   0.99899   0.00000  Uiso   1.00
C16    C     0.12607   0.12605   0.07452   0.00000  Uiso   1.00
C17    C     0.12585   0.13552   0.21699   0.00000  Uiso   1.00
C18    C     0.10567   0.28371   0.79769   0.00000  Uiso   1.00
C19    C     0.17558   0.29886   0.70395   0.00000  Uiso   1.00
C20    C     0.19801   0.38734   0.67693   0.00000  Uiso   1.00
C21    C     0.96804   0.19270   0.81154   0.00000  Uiso   1.00
C22    C     0.92223   0.13135   0.72943   0.00000  Uiso   1.00
C23    C     0.82878   0.14323   0.71404   0.00000  Uiso   1.00
H24    H     0.94991   0.37761   0.01117   0.00000  Uiso   1.00
H25    H     0.99707   0.32486   0.25569   0.00000  Uiso   1.00
H26    H     0.04657   0.49763   0.88515   0.00000  Uiso   1.00
H27    H     0.79326   0.33015   0.91064   0.00000  Uiso   1.00
H28    H     0.06963   0.23521   0.49835   0.00000  Uiso   1.00
H29    H     0.17399   0.59951   0.71703   0.00000  Uiso   1.00
H30    H     0.63982   0.24634   0.77075   0.00000  Uiso   1.00
H31    H     0.10585   0.13727   0.79210   0.00000  Uiso   1.00
H32    H     0.16158   0.07133   0.02461   0.00000  Uiso   1.00
H33    H     0.21108   0.24411   0.65407   0.00000  Uiso   1.00
H34    H     0.95776   0.07663   0.67956   0.00000  Uiso   1.00
H35    H     0.20315   0.02944   0.31080   0.00000  Uiso   1.00
H36    H     0.30751   0.39374   0.52946   0.00000  Uiso   1.00
H37    H     0.77334   0.04057   0.58320   0.00000  Uiso   1.00
O38    O     0.17026   0.09330   0.56147   0.00000  Uiso   1.00
O39    O     0.30716   0.57125   0.53638   0.00000  Uiso   1.00
O40    O     0.60634   0.10790   0.60688   0.00000  Uiso   1.00
N41    N     0.09339   0.19582   0.42230   0.00000  Uiso   1.00
N42    N     0.19097   0.53642   0.69183   0.00000  Uiso   1.00
N43    N     0.69157   0.20625   0.74203   0.00000  Uiso   1.00
N44    N     0.16524   0.08510   0.32138   0.00000  Uiso   1.00
N45    N     0.26281   0.42570   0.59091   0.00000  Uiso   1.00
N46    N     0.76342   0.09553   0.64111   0.00000  Uiso   1.00
C47    C     0.01437   0.67746   0.46099   0.00000  Uiso   1.00
C48    C     0.96712   0.73945   0.56346   0.00000  Uiso   1.00
C49    C     0.96741   0.72989   0.70584   0.00000  Uiso   1.00
C50    C     0.92012   0.79363   0.78157   0.00000  Uiso   1.00
C51    C     0.85371   0.87910   0.95049   0.00000  Uiso   1.00
C52    C     0.94022   0.64558   0.36215   0.00000  Uiso   1.00
C53    C     0.91790   0.55708   0.33526   0.00000  Uiso   1.00
C54    C     0.84796   0.54181   0.24151   0.00000  Uiso   1.00
C55    C     0.73982   0.48154   0.09782   0.00000  Uiso   1.00
C56    C     0.07785   0.73658   0.37601   0.00000  Uiso   1.00
C57    C     0.17125   0.72459   0.36073   0.00000  Uiso   1.00
C58    C     0.21720   0.78592   0.27862   0.00000  Uiso   1.00
C59    C     0.32276   0.86694   0.15645   0.00000  Uiso   1.00
C60    C     0.92988   0.80767   0.34230   0.00000  Uiso   1.00
C61    C     0.92123   0.81017   0.49899   0.00000  Uiso   1.00
C62    C     0.87393   0.87395   0.57452   0.00000  Uiso   1.00
C63    C     0.87415   0.86448   0.71699   0.00000  Uiso   1.00
C64    C     0.89433   0.71629   0.29769   0.00000  Uiso   1.00
C65    C     0.82442   0.70114   0.20395   0.00000  Uiso   1.00
C66    C     0.80199   0.61266   0.17693   0.00000  Uiso   1.00
C67    C     0.03196   0.80730   0.31154   0.00000  Uiso   1.00
C68    C     0.07777   0.86865   0.22943   0.00000  Uiso   1.00
C69    C     0.17122   0.85677   0.21404   0.00000  Uiso   1.00
H70    H     0.05009   0.62239   0.51117   0.00000  Uiso   1.00
H71    H     0.00293   0.67514   0.75569   0.00000  Uiso   1.00
H72    H     0.95343   0.50237   0.38515   0.00000  Uiso   1.00
H73    H     0.20674   0.66985   0.41064   0.00000  Uiso   1.00
H74    H     0.93037   0.76479   0.99835   0.00000  Uiso   1.00
H75    H     0.82601   0.40049   0.21703   0.00000  Uiso   1.00
H76    H     0.36018   0.75366   0.27075   0.00000  Uiso   1.00
H77    H     0.89415   0.86273   0.29210   0.00000  Uiso   1.00
H78    H     0.83842   0.92867   0.52461   0.00000  Uiso   1.00
H79    H     0.78892   0.75589   0.15407   0.00000  Uiso   1.00
H80    H     0.04224   0.92337   0.17956   0.00000  Uiso   1.00
H81    H     0.79685   0.97056   0.81080   0.00000  Uiso   1.00
H82    H     0.69249   0.60626   0.02946   0.00000  Uiso   1.00
H83    H     0.22666   0.95943   0.08320   0.00000  Uiso   1.00
O84    O     0.82974   0.90670   0.06147   0.00000  Uiso   1.00
O85    O     0.69284   0.42875   0.03638   0.00000  Uiso   1.00
O86    O     0.39366   0.89210   0.10688   0.00000  Uiso   1.00
N87    N     0.90661   0.80418   0.92230   0.00000  Uiso   1.00
N88    N     0.80903   0.46358   0.19183   0.00000  Uiso   1.00
N89    N     0.30843   0.79375   0.24203   0.00000  Uiso   1.00
N90    N     0.83476   0.91490   0.82138   0.00000  Uiso   1.00
N91    N     0.73719   0.57430   0.09091   0.00000  Uiso   1.00
N92    N     0.23658   0.90447   0.14111   0.00000  Uiso   1.00
C93    C     0.48563   0.67746   0.96099   0.00000  Uiso   1.00
C94    C     0.53288   0.73945   0.06346   0.00000  Uiso   1.00
C95    C     0.53259   0.72989   0.20584   0.00000  Uiso   1.00
C96    C     0.57988   0.79363   0.28157   0.00000  Uiso   1.00
C97    C     0.64629   0.87910   0.45049   0.00000  Uiso   1.00
C98    C     0.55978   0.64558   0.86215   0.00000  Uiso   1.00
C99    C     0.58210   0.55708   0.83526   0.00000  Uiso   1.00
C100   C     0.65204   0.54181   0.74151   0.00000  Uiso   1.00
C101   C     0.76018   0.48154   0.59782   0.00000  Uiso   1.00
C102   C     0.42215   0.73658   0.87601   0.00000  Uiso   1.00
C103   C     0.32875   0.72459   0.86073   0.00000  Uiso   1.00
C104   C     0.28280   0.78592   0.77862   0.00000  Uiso   1.00
C105   C     0.17724   0.86694   0.65645   0.00000  Uiso   1.00
C106   C     0.57012   0.80767   0.84230   0.00000  Uiso   1.00
C107   C     0.57877   0.81017   0.99899   0.00000  Uiso   1.00
C108   C     0.62607   0.87395   0.07452   0.00000  Uiso   1.00
C109   C     0.62585   0.86448   0.21699   0.00000  Uiso   1.00
C110   C     0.60567   0.71629   0.79769   0.00000  Uiso   1.00
C111   C     0.67558   0.70114   0.70395   0.00000  Uiso   1.00
C112   C     0.69801   0.61266   0.67693   0.00000  Uiso   1.00
C113   C     0.46804   0.80730   0.81154   0.00000  Uiso   1.00
C114   C     0.42223   0.86865   0.72943   0.00000  Uiso   1.00
C115   C     0.32878   0.85677   0.71404   0.00000  Uiso   1.00
H116   H     0.44991   0.62239   0.01117   0.00000  Uiso   1.00
H117   H     0.49707   0.67514   0.25569   0.00000  Uiso   1.00
H118   H     0.54657   0.50237   0.88515   0.00000  Uiso   1.00
H119   H     0.29326   0.66985   0.91064   0.00000  Uiso   1.00
H120   H     0.56963   0.76479   0.49835   0.00000  Uiso   1.00
H121   H     0.67399   0.40049   0.71703   0.00000  Uiso   1.00
H122   H     0.13982   0.75366   0.77075   0.00000  Uiso   1.00
H123   H     0.60585   0.86273   0.79210   0.00000  Uiso   1.00
H124   H     0.66158   0.92867   0.02461   0.00000  Uiso   1.00
H125   H     0.71108   0.75589   0.65407   0.00000  Uiso   1.00
H126   H     0.45776   0.92337   0.67956   0.00000  Uiso   1.00
H127   H     0.70315   0.97056   0.31080   0.00000  Uiso   1.00
H128   H     0.80751   0.60626   0.52946   0.00000  Uiso   1.00
H129   H     0.27334   0.95943   0.58320   0.00000  Uiso   1.00
O130   O     0.67026   0.90670   0.56147   0.00000  Uiso   1.00
O131   O     0.80716   0.42875   0.53638   0.00000  Uiso   1.00
O132   O     0.10634   0.89210   0.60688   0.00000  Uiso   1.00
N133   N     0.59339   0.80418   0.42230   0.00000  Uiso   1.00
N134   N     0.69097   0.46358   0.69183   0.00000  Uiso   1.00
N135   N     0.19157   0.79375   0.74203   0.00000  Uiso   1.00
N136   N     0.66524   0.91490   0.32138   0.00000  Uiso   1.00
N137   N     0.76281   0.57430   0.59091   0.00000  Uiso   1.00
N138   N     0.26342   0.90447   0.64111   0.00000  Uiso   1.00
C139   C     0.51437   0.32254   0.46099   0.00000  Uiso   1.00
C140   C     0.46712   0.26055   0.56346   0.00000  Uiso   1.00
C141   C     0.46741   0.27011   0.70584   0.00000  Uiso   1.00
C142   C     0.42012   0.20637   0.78157   0.00000  Uiso   1.00
C143   C     0.35371   0.12090   0.95049   0.00000  Uiso   1.00
C144   C     0.44022   0.35442   0.36215   0.00000  Uiso   1.00
C145   C     0.41790   0.44292   0.33526   0.00000  Uiso   1.00
C146   C     0.34796   0.45819   0.24151   0.00000  Uiso   1.00
C147   C     0.23982   0.51846   0.09782   0.00000  Uiso   1.00
C148   C     0.57785   0.26342   0.37601   0.00000  Uiso   1.00
C149   C     0.67125   0.27541   0.36073   0.00000  Uiso   1.00
C150   C     0.71720   0.21408   0.27862   0.00000  Uiso   1.00
C151   C     0.82276   0.13306   0.15645   0.00000  Uiso   1.00
C152   C     0.42988   0.19233   0.34230   0.00000  Uiso   1.00
C153   C     0.42123   0.18983   0.49899   0.00000  Uiso   1.00
C154   C     0.37393   0.12605   0.57452   0.00000  Uiso   1.00
C155   C     0.37415   0.13552   0.71699   0.00000  Uiso   1.00
C156   C     0.39433   0.28371   0.29769   0.00000  Uiso   1.00
C157   C     0.32442   0.29886   0.20395   0.00000  Uiso   1.00
C158   C     0.30199   0.38734   0.17693   0.00000  Uiso   1.00
C159   C     0.53196   0.19270   0.31154   0.00000  Uiso   1.00
C160   C     0.57777   0.13135   0.22943   0.00000  Uiso   1.00
C161   C     0.67122   0.14323   0.21404   0.00000  Uiso   1.00
H162   H     0.55009   0.37761   0.51117   0.00000  Uiso   1.00
H163   H     0.50293   0.32486   0.75569   0.00000  Uiso   1.00
H164   H     0.45343   0.49763   0.38515   0.00000  Uiso   1.00
H165   H     0.70674   0.33015   0.41064   0.00000  Uiso   1.00
H166   H     0.43037   0.23521   0.99835   0.00000  Uiso   1.00
H167   H     0.32601   0.59951   0.21703   0.00000  Uiso   1.00
H168   H     0.86018   0.24634   0.27075   0.00000  Uiso   1.00
H169   H     0.39415   0.13727   0.29210   0.00000  Uiso   1.00
H170   H     0.33842   0.07133   0.52461   0.00000  Uiso   1.00
H171   H     0.28892   0.24411   0.15407   0.00000  Uiso   1.00
H172   H     0.54224   0.07663   0.17956   0.00000  Uiso   1.00
H173   H     0.29685   0.02944   0.81080   0.00000  Uiso   1.00
H174   H     0.19249   0.39374   0.02946   0.00000  Uiso   1.00
H175   H     0.72666   0.04057   0.08320   0.00000  Uiso   1.00
O176   O     0.32974   0.09330   0.06147   0.00000  Uiso   1.00
O177   O     0.19284   0.57125   0.03638   0.00000  Uiso   1.00
O178   O     0.89366   0.10790   0.10688   0.00000  Uiso   1.00
N179   N     0.40661   0.19582   0.92230   0.00000  Uiso   1.00
N180   N     0.30903   0.53642   0.19183   0.00000  Uiso   1.00
N181   N     0.80843   0.20625   0.24203   0.00000  Uiso   1.00
N182   N     0.33476   0.08510   0.82138   0.00000  Uiso   1.00
N183   N     0.23719   0.42570   0.09091   0.00000  Uiso   1.00
N184   N     0.73658   0.09553   0.14111   0.00000  Uiso   1.00
