data_job_06276
_audit_creation_date              2018-12-19
_audit_creation_method            'Materials Studio'
_symmetry_space_group_name_H-M    'P1'
_symmetry_Int_Tables_number       1
_symmetry_cell_setting            triclinic
loop_
_symmetry_equiv_pos_as_xyz
  x,y,z
_cell_length_a                    16.6471
_cell_length_b                    16.4929
_cell_length_c                    16.0404
_cell_angle_alpha                 88.9839
_cell_angle_beta                  88.6940
_cell_angle_gamma                 87.5846
loop_
_atom_site_label
_atom_site_type_symbol
_atom_site_fract_x
_atom_site_fract_y
_atom_site_fract_z
_atom_site_U_iso_or_equiv
_atom_site_adp_type
_atom_site_occupancy
C1     C     0.28087   0.95831   0.57688   0.00000  Uiso   1.00
C2     C     0.26335   0.03735   0.52865   0.00000  Uiso   1.00
C3     C     0.28143   0.11433   0.55414   0.00000  Uiso   1.00
C4     C     0.26051   0.17890   0.50117   0.00000  Uiso   1.00
C5     C     0.23899   0.30347   0.43782   0.00000  Uiso   1.00
C6     C     0.20037   0.91824   0.58833   0.00000  Uiso   1.00
C7     C     0.16550   0.89507   0.66399   0.00000  Uiso   1.00
C8     C     0.09157   0.85937   0.66124   0.00000  Uiso   1.00
C9     C     0.97230   0.79897   0.69054   0.00000  Uiso   1.00
C10    C     0.33141   0.90411   0.51813   0.00000  Uiso   1.00
C11    C     0.40671   0.86903   0.53478   0.00000  Uiso   1.00
C12    C     0.44310   0.82141   0.47295   0.00000  Uiso   1.00
C13    C     0.52729   0.73906   0.39325   0.00000  Uiso   1.00
C14    C     0.21159   0.93609   0.43747   0.00000  Uiso   1.00
C15    C     0.22572   0.02528   0.45293   0.00000  Uiso   1.00
C16    C     0.20477   0.08975   0.39990   0.00000  Uiso   1.00
C17    C     0.22281   0.16681   0.42530   0.00000  Uiso   1.00
C18    C     0.16274   0.90617   0.51261   0.00000  Uiso   1.00
C19    C     0.08885   0.87049   0.50975   0.00000  Uiso   1.00
C20    C     0.05387   0.84728   0.58538   0.00000  Uiso   1.00
C21    C     0.29378   0.89204   0.44241   0.00000  Uiso   1.00
C22    C     0.33006   0.84445   0.38054   0.00000  Uiso   1.00
C23    C     0.40540   0.80932   0.39709   0.00000  Uiso   1.00
H24    H     0.31017   0.96770   0.63584   0.00000  Uiso   1.00
H25    H     0.31054   0.12364   0.61275   0.00000  Uiso   1.00
H26    H     0.19464   0.90441   0.72258   0.00000  Uiso   1.00
H27    H     0.43581   0.87838   0.59339   0.00000  Uiso   1.00
H28    H     0.29434   0.29121   0.55378   0.00000  Uiso   1.00
H29    H     0.04997   0.82893   0.78535   0.00000  Uiso   1.00
H30    H     0.55853   0.77404   0.51293   0.00000  Uiso   1.00
H31    H     0.18229   0.92669   0.37851   0.00000  Uiso   1.00
H32    H     0.17565   0.08039   0.34130   0.00000  Uiso   1.00
H33    H     0.05975   0.86116   0.45114   0.00000  Uiso   1.00
H34    H     0.30092   0.83513   0.32195   0.00000  Uiso   1.00
H35    H     0.18485   0.25611   0.33346   0.00000  Uiso   1.00
H36    H     0.94048   0.79382   0.56504   0.00000  Uiso   1.00
H37    H     0.44904   0.73893   0.29262   0.00000  Uiso   1.00
O38    O     0.23751   0.37551   0.42380   0.00000  Uiso   1.00
O39    O     0.91691   0.76900   0.72762   0.00000  Uiso   1.00
O40    O     0.58413   0.69698   0.37021   0.00000  Uiso   1.00
N41    N     0.26950   0.26186   0.50702   0.00000  Uiso   1.00
N42    N     0.04102   0.82966   0.72354   0.00000  Uiso   1.00
N43    N     0.51647   0.77832   0.46885   0.00000  Uiso   1.00
N44    N     0.21058   0.24297   0.38847   0.00000  Uiso   1.00
N45    N     0.98210   0.81077   0.60499   0.00000  Uiso   1.00
N46    N     0.45755   0.75943   0.35030   0.00000  Uiso   1.00
C47    C     0.57222   0.28232   0.96221   0.00000  Uiso   1.00
C48    C     0.52530   0.26575   0.04304   0.00000  Uiso   1.00
C49    C     0.54893   0.28469   0.12254   0.00000  Uiso   1.00
C50    C     0.49761   0.26455   0.18844   0.00000  Uiso   1.00
C51    C     0.43578   0.24451   0.31597   0.00000  Uiso   1.00
C52    C     0.58476   0.20056   0.91987   0.00000  Uiso   1.00
C53    C     0.65838   0.16471   0.89580   0.00000  Uiso   1.00
C54    C     0.65710   0.08970   0.85800   0.00000  Uiso   1.00
C55    C     0.68757   0.96849   0.79425   0.00000  Uiso   1.00
C56    C     0.51536   0.33307   0.90702   0.00000  Uiso   1.00
C57    C     0.53064   0.40862   0.87212   0.00000  Uiso   1.00
C58    C     0.47094   0.44517   0.82348   0.00000  Uiso   1.00
C59    C     0.39366   0.52969   0.73978   0.00000  Uiso   1.00
C60    C     0.43906   0.21288   0.93786   0.00000  Uiso   1.00
C61    C     0.45297   0.22803   0.02981   0.00000  Uiso   1.00
C62    C     0.40160   0.20786   0.09560   0.00000  Uiso   1.00
C63    C     0.42515   0.22677   0.17519   0.00000  Uiso   1.00
C64    C     0.51243   0.16284   0.90664   0.00000  Uiso   1.00
C65    C     0.51105   0.08788   0.86886   0.00000  Uiso   1.00
C66    C     0.58464   0.05192   0.84475   0.00000  Uiso   1.00
C67    C     0.44303   0.29535   0.89379   0.00000  Uiso   1.00
C68    C     0.38330   0.33179   0.84519   0.00000  Uiso   1.00
C69    C     0.39848   0.40738   0.81023   0.00000  Uiso   1.00
H70    H     0.62854   0.31168   0.97250   0.00000  Uiso   1.00
H71    H     0.60491   0.31387   0.13275   0.00000  Uiso   1.00
H72    H     0.71434   0.19391   0.90604   0.00000  Uiso   1.00
H73    H     0.58662   0.43779   0.88237   0.00000  Uiso   1.00
H74    H     0.54684   0.29964   0.30459   0.00000  Uiso   1.00
H75    H     0.77756   0.04671   0.82653   0.00000  Uiso   1.00
H76    H     0.50824   0.56096   0.77662   0.00000  Uiso   1.00
H77    H     0.38275   0.18352   0.92756   0.00000  Uiso   1.00
H78    H     0.34563   0.17867   0.08535   0.00000  Uiso   1.00
H79    H     0.45506   0.05871   0.85863   0.00000  Uiso   1.00
H80    H     0.32734   0.30258   0.83497   0.00000  Uiso   1.00
H81    H     0.33640   0.18990   0.26612   0.00000  Uiso   1.00
H82    H     0.56713   0.93698   0.78805   0.00000  Uiso   1.00
H83    H     0.29780   0.45123   0.73814   0.00000  Uiso   1.00
O84    O     0.42165   0.24387   0.38997   0.00000  Uiso   1.00
O85    O     0.72436   0.91205   0.76275   0.00000  Uiso   1.00
O86    O     0.37101   0.58674   0.69728   0.00000  Uiso   1.00
N87    N     0.50240   0.27449   0.27388   0.00000  Uiso   1.00
N88    N     0.71811   0.03801   0.82693   0.00000  Uiso   1.00
N89    N     0.46633   0.51879   0.78025   0.00000  Uiso   1.00
N90    N     0.38916   0.21544   0.25318   0.00000  Uiso   1.00
N91    N     0.60488   0.97897   0.80623   0.00000  Uiso   1.00
N92    N     0.35309   0.45974   0.75955   0.00000  Uiso   1.00
C93    C     0.95797   0.57444   0.28735   0.00000  Uiso   1.00
C94    C     0.03669   0.52646   0.26990   0.00000  Uiso   1.00
C95    C     0.11280   0.55009   0.29000   0.00000  Uiso   1.00
C96    C     0.17721   0.49772   0.26878   0.00000  Uiso   1.00
C97    C     0.30117   0.43440   0.24771   0.00000  Uiso   1.00
C98    C     0.91771   0.58643   0.20332   0.00000  Uiso   1.00
C99    C     0.89378   0.66049   0.16746   0.00000  Uiso   1.00
C100   C     0.85803   0.65860   0.09020   0.00000  Uiso   1.00
C101   C     0.79722   0.68838   0.96580   0.00000  Uiso   1.00
C102   C     0.90516   0.51788   0.33849   0.00000  Uiso   1.00
C103   C     0.87065   0.53430   0.41627   0.00000  Uiso   1.00
C104   C     0.82431   0.47469   0.45280   0.00000  Uiso   1.00
C105   C     0.74401   0.39804   0.53827   0.00000  Uiso   1.00
C106   C     0.93702   0.43939   0.21391   0.00000  Uiso   1.00
C107   C     0.02531   0.45311   0.23001   0.00000  Uiso   1.00
C108   C     0.08962   0.40068   0.20875   0.00000  Uiso   1.00
C109   C     0.16581   0.42423   0.22882   0.00000  Uiso   1.00
C110   C     0.90633   0.51308   0.16343   0.00000  Uiso   1.00
C111   C     0.87060   0.51108   0.08621   0.00000  Uiso   1.00
C112   C     0.84662   0.58511   0.05024   0.00000  Uiso   1.00
C113   C     0.89378   0.44452   0.29860   0.00000  Uiso   1.00
C114   C     0.84748   0.38488   0.33502   0.00000  Uiso   1.00
C115   C     0.81290   0.40121   0.41283   0.00000  Uiso   1.00
H116   H     0.96683   0.63155   0.31840   0.00000  Uiso   1.00
H117   H     0.12158   0.60687   0.32086   0.00000  Uiso   1.00
H118   H     0.90259   0.71725   0.19835   0.00000  Uiso   1.00
H119   H     0.87947   0.59107   0.44711   0.00000  Uiso   1.00
H120   H     0.28814   0.54717   0.30598   0.00000  Uiso   1.00
H121   H     0.82635   0.77991   0.04766   0.00000  Uiso   1.00
H122   H     0.77759   0.51385   0.57223   0.00000  Uiso   1.00
H123   H     0.92816   0.38228   0.18285   0.00000  Uiso   1.00
H124   H     0.08080   0.34392   0.17788   0.00000  Uiso   1.00
H125   H     0.86180   0.45430   0.05536   0.00000  Uiso   1.00
H126   H     0.83868   0.32812   0.30413   0.00000  Uiso   1.00
H127   H     0.25504   0.33375   0.18992   0.00000  Uiso   1.00
H128   H     0.79324   0.56649   0.93160   0.00000  Uiso   1.00
H129   H     0.74449   0.30043   0.45618   0.00000  Uiso   1.00
O130   O     0.37269   0.41974   0.24710   0.00000  Uiso   1.00
O131   O     0.76683   0.72508   0.90820   0.00000  Uiso   1.00
O132   O     0.70287   0.37601   0.59643   0.00000  Uiso   1.00
N133   N     0.25940   0.50220   0.27936   0.00000  Uiso   1.00
N134   N     0.82767   0.71980   0.03784   0.00000  Uiso   1.00
N135   N     0.78206   0.47106   0.52827   0.00000  Uiso   1.00
N136   N     0.24159   0.38736   0.21691   0.00000  Uiso   1.00
N137   N     0.80985   0.60496   0.97539   0.00000  Uiso   1.00
N138   N     0.76425   0.35622   0.46582   0.00000  Uiso   1.00
C139   C     0.71913   0.04169   0.42312   0.00000  Uiso   1.00
C140   C     0.73665   0.96265   0.47135   0.00000  Uiso   1.00
C141   C     0.71857   0.88567   0.44586   0.00000  Uiso   1.00
C142   C     0.73949   0.82110   0.49883   0.00000  Uiso   1.00
C143   C     0.76101   0.69653   0.56218   0.00000  Uiso   1.00
C144   C     0.79963   0.08176   0.41167   0.00000  Uiso   1.00
C145   C     0.83450   0.10493   0.33601   0.00000  Uiso   1.00
C146   C     0.90843   0.14063   0.33876   0.00000  Uiso   1.00
C147   C     0.02770   0.20103   0.30946   0.00000  Uiso   1.00
C148   C     0.66859   0.09589   0.48187   0.00000  Uiso   1.00
C149   C     0.59329   0.13097   0.46522   0.00000  Uiso   1.00
C150   C     0.55690   0.17859   0.52705   0.00000  Uiso   1.00
C151   C     0.47271   0.26094   0.60675   0.00000  Uiso   1.00
C152   C     0.78841   0.06391   0.56253   0.00000  Uiso   1.00
C153   C     0.77428   0.97472   0.54707   0.00000  Uiso   1.00
C154   C     0.79523   0.91025   0.60010   0.00000  Uiso   1.00
C155   C     0.77719   0.83319   0.57470   0.00000  Uiso   1.00
C156   C     0.83726   0.09383   0.48739   0.00000  Uiso   1.00
C157   C     0.91115   0.12951   0.49025   0.00000  Uiso   1.00
C158   C     0.94613   0.15272   0.41461   0.00000  Uiso   1.00
C159   C     0.70622   0.10796   0.55759   0.00000  Uiso   1.00
C160   C     0.66994   0.15555   0.61946   0.00000  Uiso   1.00
C161   C     0.59460   0.19068   0.60291   0.00000  Uiso   1.00
H162   H     0.68983   0.03230   0.36416   0.00000  Uiso   1.00
H163   H     0.68946   0.87636   0.38725   0.00000  Uiso   1.00
H164   H     0.80536   0.09559   0.27742   0.00000  Uiso   1.00
H165   H     0.56419   0.12162   0.40661   0.00000  Uiso   1.00
H166   H     0.70566   0.70879   0.44622   0.00000  Uiso   1.00
H167   H     0.95003   0.17107   0.21465   0.00000  Uiso   1.00
H168   H     0.44147   0.22596   0.48707   0.00000  Uiso   1.00
H169   H     0.81771   0.07331   0.62149   0.00000  Uiso   1.00
H170   H     0.82435   0.91961   0.65870   0.00000  Uiso   1.00
H171   H     0.94026   0.13884   0.54886   0.00000  Uiso   1.00
H172   H     0.69908   0.16487   0.67805   0.00000  Uiso   1.00
H173   H     0.81515   0.74389   0.66654   0.00000  Uiso   1.00
H174   H     0.05952   0.20618   0.43496   0.00000  Uiso   1.00
H175   H     0.55096   0.26107   0.70738   0.00000  Uiso   1.00
O176   O     0.76249   0.62449   0.57620   0.00000  Uiso   1.00
O177   O     0.08309   0.23100   0.27238   0.00000  Uiso   1.00
O178   O     0.41587   0.30302   0.62979   0.00000  Uiso   1.00
N179   N     0.73051   0.73814   0.49298   0.00000  Uiso   1.00
N180   N     0.95898   0.17034   0.27646   0.00000  Uiso   1.00
N181   N     0.48353   0.22168   0.53114   0.00000  Uiso   1.00
N182   N     0.78942   0.75703   0.61153   0.00000  Uiso   1.00
N183   N     0.01790   0.18923   0.39501   0.00000  Uiso   1.00
N184   N     0.54245   0.24057   0.64970   0.00000  Uiso   1.00
C185   C     0.42778   0.71767   0.03779   0.00000  Uiso   1.00
C186   C     0.47470   0.73425   0.95696   0.00000  Uiso   1.00
C187   C     0.45107   0.71531   0.87746   0.00000  Uiso   1.00
C188   C     0.50239   0.73544   0.81156   0.00000  Uiso   1.00
C189   C     0.56423   0.75548   0.68403   0.00000  Uiso   1.00
C190   C     0.41524   0.79944   0.08013   0.00000  Uiso   1.00
C191   C     0.34162   0.83529   0.10420   0.00000  Uiso   1.00
C192   C     0.34290   0.91029   0.14200   0.00000  Uiso   1.00
C193   C     0.31243   0.03151   0.20575   0.00000  Uiso   1.00
C194   C     0.48464   0.66693   0.09298   0.00000  Uiso   1.00
C195   C     0.46936   0.59138   0.12788   0.00000  Uiso   1.00
C196   C     0.52906   0.55483   0.17652   0.00000  Uiso   1.00
C197   C     0.60634   0.47031   0.26022   0.00000  Uiso   1.00
C198   C     0.56094   0.78712   0.06214   0.00000  Uiso   1.00
C199   C     0.54703   0.77197   0.97019   0.00000  Uiso   1.00
C200   C     0.59840   0.79214   0.90440   0.00000  Uiso   1.00
C201   C     0.57485   0.77323   0.82481   0.00000  Uiso   1.00
C202   C     0.48757   0.83715   0.09336   0.00000  Uiso   1.00
C203   C     0.48895   0.91212   0.13114   0.00000  Uiso   1.00
C204   C     0.41536   0.94808   0.15525   0.00000  Uiso   1.00
C205   C     0.55697   0.70465   0.10621   0.00000  Uiso   1.00
C206   C     0.61670   0.66821   0.15481   0.00000  Uiso   1.00
C207   C     0.60152   0.59262   0.18977   0.00000  Uiso   1.00
H208   H     0.37146   0.68831   0.02750   0.00000  Uiso   1.00
H209   H     0.39509   0.68613   0.86724   0.00000  Uiso   1.00
H210   H     0.28566   0.80609   0.09396   0.00000  Uiso   1.00
H211   H     0.41338   0.56221   0.11763   0.00000  Uiso   1.00
H212   H     0.45316   0.70036   0.69540   0.00000  Uiso   1.00
H213   H     0.22244   0.95329   0.17347   0.00000  Uiso   1.00
H214   H     0.49176   0.43904   0.22338   0.00000  Uiso   1.00
H215   H     0.61725   0.81648   0.07244   0.00000  Uiso   1.00
H216   H     0.65437   0.82133   0.91465   0.00000  Uiso   1.00
H217   H     0.54494   0.94129   0.14137   0.00000  Uiso   1.00
H218   H     0.67266   0.69741   0.16503   0.00000  Uiso   1.00
H219   H     0.66360   0.81010   0.73388   0.00000  Uiso   1.00
H220   H     0.43287   0.06302   0.21195   0.00000  Uiso   1.00
H221   H     0.70220   0.54877   0.26186   0.00000  Uiso   1.00
O222   O     0.57835   0.75613   0.61003   0.00000  Uiso   1.00
O223   O     0.27564   0.08795   0.23725   0.00000  Uiso   1.00
O224   O     0.62899   0.41326   0.30272   0.00000  Uiso   1.00
N225   N     0.49760   0.72551   0.72612   0.00000  Uiso   1.00
N226   N     0.28189   0.96199   0.17307   0.00000  Uiso   1.00
N227   N     0.53367   0.48121   0.21975   0.00000  Uiso   1.00
N228   N     0.61084   0.78456   0.74682   0.00000  Uiso   1.00
N229   N     0.39512   0.02103   0.19377   0.00000  Uiso   1.00
N230   N     0.64691   0.54026   0.24045   0.00000  Uiso   1.00
C231   C     0.04203   0.42556   0.71265   0.00000  Uiso   1.00
C232   C     0.96331   0.47354   0.73010   0.00000  Uiso   1.00
C233   C     0.88720   0.44991   0.71000   0.00000  Uiso   1.00
C234   C     0.82279   0.50228   0.73122   0.00000  Uiso   1.00
C235   C     0.69883   0.56560   0.75229   0.00000  Uiso   1.00
C236   C     0.08229   0.41357   0.79667   0.00000  Uiso   1.00
C237   C     0.10622   0.33951   0.83254   0.00000  Uiso   1.00
C238   C     0.14197   0.34140   0.90980   0.00000  Uiso   1.00
C239   C     0.20278   0.31162   0.03420   0.00000  Uiso   1.00
C240   C     0.09484   0.48212   0.66151   0.00000  Uiso   1.00
C241   C     0.12935   0.46570   0.58373   0.00000  Uiso   1.00
C242   C     0.17569   0.52531   0.54720   0.00000  Uiso   1.00
C243   C     0.25599   0.60196   0.46173   0.00000  Uiso   1.00
C244   C     0.06298   0.56061   0.78609   0.00000  Uiso   1.00
C245   C     0.97469   0.54689   0.76999   0.00000  Uiso   1.00
C246   C     0.91038   0.59932   0.79125   0.00000  Uiso   1.00
C247   C     0.83419   0.57577   0.77118   0.00000  Uiso   1.00
C248   C     0.09367   0.48692   0.83656   0.00000  Uiso   1.00
C249   C     0.12940   0.48892   0.91379   0.00000  Uiso   1.00
C250   C     0.15338   0.41489   0.94976   0.00000  Uiso   1.00
C251   C     0.10622   0.55548   0.70140   0.00000  Uiso   1.00
C252   C     0.15252   0.61512   0.66498   0.00000  Uiso   1.00
C253   C     0.18710   0.59879   0.58717   0.00000  Uiso   1.00
H254   H     0.03317   0.36845   0.68160   0.00000  Uiso   1.00
H255   H     0.87842   0.39313   0.67914   0.00000  Uiso   1.00
H256   H     0.09741   0.28275   0.80165   0.00000  Uiso   1.00
H257   H     0.12053   0.40893   0.55289   0.00000  Uiso   1.00
H258   H     0.71186   0.45282   0.69402   0.00000  Uiso   1.00
H259   H     0.17365   0.22009   0.95234   0.00000  Uiso   1.00
H260   H     0.22241   0.48615   0.42777   0.00000  Uiso   1.00
H261   H     0.07184   0.61772   0.81715   0.00000  Uiso   1.00
H262   H     0.91920   0.65608   0.82212   0.00000  Uiso   1.00
H263   H     0.13820   0.54570   0.94464   0.00000  Uiso   1.00
H264   H     0.16132   0.67187   0.69587   0.00000  Uiso   1.00
H265   H     0.74496   0.66624   0.81008   0.00000  Uiso   1.00
H266   H     0.20676   0.43351   0.06840   0.00000  Uiso   1.00
H267   H     0.25551   0.69957   0.54382   0.00000  Uiso   1.00
O268   O     0.62731   0.58026   0.75290   0.00000  Uiso   1.00
O269   O     0.23317   0.27492   0.09180   0.00000  Uiso   1.00
O270   O     0.29713   0.62399   0.40357   0.00000  Uiso   1.00
N271   N     0.74060   0.49780   0.72064   0.00000  Uiso   1.00
N272   N     0.17233   0.28020   0.96216   0.00000  Uiso   1.00
N273   N     0.21794   0.52894   0.47173   0.00000  Uiso   1.00
N274   N     0.75841   0.61264   0.78308   0.00000  Uiso   1.00
N275   N     0.19015   0.39504   0.02461   0.00000  Uiso   1.00
N276   N     0.23575   0.64378   0.53418   0.00000  Uiso   1.00
