data_job_03636
_audit_creation_date              2018-12-19
_audit_creation_method            'Materials Studio'
_symmetry_space_group_name_H-M    'P1'
_symmetry_Int_Tables_number       1
_symmetry_cell_setting            triclinic
loop_
_symmetry_equiv_pos_as_xyz
  x,y,z
_cell_length_a                    13.6070
_cell_length_b                    18.3183
_cell_length_c                    22.6520
_cell_angle_alpha                 90.0000
_cell_angle_beta                  90.0000
_cell_angle_gamma                 90.0000
loop_
_atom_site_label
_atom_site_type_symbol
_atom_site_fract_x
_atom_site_fract_y
_atom_site_fract_z
_atom_site_U_iso_or_equiv
_atom_site_adp_type
_atom_site_occupancy
C1     C     0.70690   0.50455   0.80497   0.00000  Uiso   1.00
C2     C     0.72165   0.54250   0.74571   0.00000  Uiso   1.00
C3     C     0.66024   0.53651   0.69704   0.00000  Uiso   1.00
C4     C     0.68650   0.57555   0.64693   0.00000  Uiso   1.00
C5     C     0.69656   0.62784   0.55511   0.00000  Uiso   1.00
C6     C     0.80053   0.46098   0.81626   0.00000  Uiso   1.00
C7     C     0.80543   0.38646   0.82691   0.00000  Uiso   1.00
C8     C     0.89810   0.35689   0.83620   0.00000  Uiso   1.00
C9     C     0.03060   0.28263   0.85395   0.00000  Uiso   1.00
C10    C     0.70533   0.56497   0.85127   0.00000  Uiso   1.00
C11    C     0.63020   0.57787   0.89137   0.00000  Uiso   1.00
C12    C     0.64274   0.63584   0.93014   0.00000  Uiso   1.00
C13    C     0.62744   0.72304   0.00224   0.00000  Uiso   1.00
C14    C     0.86276   0.58453   0.80253   0.00000  Uiso   1.00
C15    C     0.80631   0.58594   0.74439   0.00000  Uiso   1.00
C16    C     0.83268   0.62500   0.69434   0.00000  Uiso   1.00
C17    C     0.77131   0.61908   0.64560   0.00000  Uiso   1.00
C18    C     0.88519   0.50442   0.81493   0.00000  Uiso   1.00
C19    C     0.97787   0.47495   0.82421   0.00000  Uiso   1.00
C20    C     0.98291   0.40041   0.83487   0.00000  Uiso   1.00
C21    C     0.78999   0.60841   0.84994   0.00000  Uiso   1.00
C22    C     0.80265   0.66637   0.88866   0.00000  Uiso   1.00
C23    C     0.72755   0.67936   0.92881   0.00000  Uiso   1.00
H24    H     0.64099   0.47072   0.80600   0.00000  Uiso   1.00
H25    H     0.59473   0.50288   0.69808   0.00000  Uiso   1.00
H26    H     0.73990   0.35286   0.82794   0.00000  Uiso   1.00
H27    H     0.56470   0.54424   0.89238   0.00000  Uiso   1.00
H28    H     0.58079   0.55767   0.57784   0.00000  Uiso   1.00
H29    H     0.88688   0.24135   0.85167   0.00000  Uiso   1.00
H30    H     0.51745   0.64491   0.98756   0.00000  Uiso   1.00
H31    H     0.92868   0.61835   0.80150   0.00000  Uiso   1.00
H32    H     0.89820   0.65862   0.69333   0.00000  Uiso   1.00
H33    H     0.04337   0.50859   0.82319   0.00000  Uiso   1.00
H34    H     0.86817   0.69997   0.88763   0.00000  Uiso   1.00
H35    H     0.82710   0.68407   0.57398   0.00000  Uiso   1.00
H36    H     0.13319   0.36774   0.84782   0.00000  Uiso   1.00
H37    H     0.76376   0.77131   0.98370   0.00000  Uiso   1.00
O38    O     0.67873   0.64467   0.50482   0.00000  Uiso   1.00
O39    O     0.08030   0.22967   0.86410   0.00000  Uiso   1.00
O40    O     0.59561   0.75914   0.04237   0.00000  Uiso   1.00
N41    N     0.64294   0.58191   0.59178   0.00000  Uiso   1.00
N42    N     0.92911   0.28616   0.84779   0.00000  Uiso   1.00
N43    N     0.58373   0.66345   0.97484   0.00000  Uiso   1.00
N44    N     0.77547   0.64992   0.58970   0.00000  Uiso   1.00
N45    N     0.06165   0.35417   0.84571   0.00000  Uiso   1.00
N46    N     0.71627   0.73146   0.97276   0.00000  Uiso   1.00
C47    C     0.79310   0.99545   0.30497   0.00000  Uiso   1.00
C48    C     0.77835   0.95750   0.24571   0.00000  Uiso   1.00
C49    C     0.83976   0.96349   0.19704   0.00000  Uiso   1.00
C50    C     0.81350   0.92445   0.14693   0.00000  Uiso   1.00
C51    C     0.80344   0.87216   0.05511   0.00000  Uiso   1.00
C52    C     0.69947   0.03902   0.31626   0.00000  Uiso   1.00
C53    C     0.69457   0.11354   0.32691   0.00000  Uiso   1.00
C54    C     0.60190   0.14311   0.33620   0.00000  Uiso   1.00
C55    C     0.46940   0.21737   0.35395   0.00000  Uiso   1.00
C56    C     0.79467   0.93503   0.35127   0.00000  Uiso   1.00
C57    C     0.86980   0.92213   0.39137   0.00000  Uiso   1.00
C58    C     0.85726   0.86416   0.43014   0.00000  Uiso   1.00
C59    C     0.87256   0.77696   0.50224   0.00000  Uiso   1.00
C60    C     0.63724   0.91547   0.30253   0.00000  Uiso   1.00
C61    C     0.69369   0.91406   0.24439   0.00000  Uiso   1.00
C62    C     0.66732   0.87500   0.19434   0.00000  Uiso   1.00
C63    C     0.72869   0.88092   0.14560   0.00000  Uiso   1.00
C64    C     0.61481   0.99558   0.31493   0.00000  Uiso   1.00
C65    C     0.52213   0.02505   0.32421   0.00000  Uiso   1.00
C66    C     0.51709   0.09959   0.33487   0.00000  Uiso   1.00
C67    C     0.71001   0.89159   0.34994   0.00000  Uiso   1.00
C68    C     0.69735   0.83363   0.38866   0.00000  Uiso   1.00
C69    C     0.77245   0.82064   0.42881   0.00000  Uiso   1.00
H70    H     0.85901   0.02928   0.30600   0.00000  Uiso   1.00
H71    H     0.90527   0.99712   0.19808   0.00000  Uiso   1.00
H72    H     0.76010   0.14714   0.32794   0.00000  Uiso   1.00
H73    H     0.93530   0.95576   0.39238   0.00000  Uiso   1.00
H74    H     0.91921   0.94233   0.07784   0.00000  Uiso   1.00
H75    H     0.61312   0.25865   0.35167   0.00000  Uiso   1.00
H76    H     0.98255   0.85509   0.48756   0.00000  Uiso   1.00
H77    H     0.57132   0.88165   0.30150   0.00000  Uiso   1.00
H78    H     0.60180   0.84138   0.19333   0.00000  Uiso   1.00
H79    H     0.45663   0.99141   0.32319   0.00000  Uiso   1.00
H80    H     0.63183   0.80003   0.38763   0.00000  Uiso   1.00
H81    H     0.67290   0.81593   0.07398   0.00000  Uiso   1.00
H82    H     0.36681   0.13226   0.34782   0.00000  Uiso   1.00
H83    H     0.73624   0.72869   0.48370   0.00000  Uiso   1.00
O84    O     0.82127   0.85533   0.00482   0.00000  Uiso   1.00
O85    O     0.41970   0.27033   0.36410   0.00000  Uiso   1.00
O86    O     0.90439   0.74086   0.54237   0.00000  Uiso   1.00
N87    N     0.85706   0.91809   0.09178   0.00000  Uiso   1.00
N88    N     0.57089   0.21384   0.34779   0.00000  Uiso   1.00
N89    N     0.91627   0.83655   0.47484   0.00000  Uiso   1.00
N90    N     0.72453   0.85008   0.08970   0.00000  Uiso   1.00
N91    N     0.43835   0.14583   0.34571   0.00000  Uiso   1.00
N92    N     0.78373   0.76854   0.47276   0.00000  Uiso   1.00
C93    C     0.29310   0.50455   0.69503   0.00000  Uiso   1.00
C94    C     0.27835   0.54250   0.75429   0.00000  Uiso   1.00
C95    C     0.33976   0.53651   0.80296   0.00000  Uiso   1.00
C96    C     0.31350   0.57555   0.85307   0.00000  Uiso   1.00
C97    C     0.30344   0.62784   0.94489   0.00000  Uiso   1.00
C98    C     0.19947   0.46098   0.68374   0.00000  Uiso   1.00
C99    C     0.19457   0.38646   0.67309   0.00000  Uiso   1.00
C100   C     0.10190   0.35689   0.66380   0.00000  Uiso   1.00
C101   C     0.96940   0.28263   0.64605   0.00000  Uiso   1.00
C102   C     0.29467   0.56497   0.64873   0.00000  Uiso   1.00
C103   C     0.36980   0.57787   0.60863   0.00000  Uiso   1.00
C104   C     0.35726   0.63584   0.56986   0.00000  Uiso   1.00
C105   C     0.37256   0.72304   0.49776   0.00000  Uiso   1.00
C106   C     0.13724   0.58453   0.69747   0.00000  Uiso   1.00
C107   C     0.19369   0.58594   0.75561   0.00000  Uiso   1.00
C108   C     0.16732   0.62500   0.80566   0.00000  Uiso   1.00
C109   C     0.22869   0.61908   0.85440   0.00000  Uiso   1.00
C110   C     0.11481   0.50442   0.68507   0.00000  Uiso   1.00
C111   C     0.02213   0.47495   0.67579   0.00000  Uiso   1.00
C112   C     0.01709   0.40041   0.66513   0.00000  Uiso   1.00
C113   C     0.21001   0.60841   0.65006   0.00000  Uiso   1.00
C114   C     0.19735   0.66637   0.61134   0.00000  Uiso   1.00
C115   C     0.27245   0.67936   0.57119   0.00000  Uiso   1.00
H116   H     0.35901   0.47072   0.69400   0.00000  Uiso   1.00
H117   H     0.40527   0.50288   0.80192   0.00000  Uiso   1.00
H118   H     0.26010   0.35286   0.67206   0.00000  Uiso   1.00
H119   H     0.43530   0.54424   0.60762   0.00000  Uiso   1.00
H120   H     0.41921   0.55767   0.92216   0.00000  Uiso   1.00
H121   H     0.11312   0.24135   0.64833   0.00000  Uiso   1.00
H122   H     0.48255   0.64491   0.51244   0.00000  Uiso   1.00
H123   H     0.07132   0.61835   0.69850   0.00000  Uiso   1.00
H124   H     0.10180   0.65862   0.80667   0.00000  Uiso   1.00
H125   H     0.95663   0.50859   0.67681   0.00000  Uiso   1.00
H126   H     0.13183   0.69997   0.61237   0.00000  Uiso   1.00
H127   H     0.17290   0.68407   0.92602   0.00000  Uiso   1.00
H128   H     0.86681   0.36774   0.65218   0.00000  Uiso   1.00
H129   H     0.23624   0.77131   0.51630   0.00000  Uiso   1.00
O130   O     0.32127   0.64467   0.99518   0.00000  Uiso   1.00
O131   O     0.91970   0.22967   0.63590   0.00000  Uiso   1.00
O132   O     0.40439   0.75914   0.45763   0.00000  Uiso   1.00
N133   N     0.35706   0.58191   0.90822   0.00000  Uiso   1.00
N134   N     0.07089   0.28616   0.65221   0.00000  Uiso   1.00
N135   N     0.41627   0.66345   0.52516   0.00000  Uiso   1.00
N136   N     0.22453   0.64992   0.91030   0.00000  Uiso   1.00
N137   N     0.93835   0.35417   0.65429   0.00000  Uiso   1.00
N138   N     0.28373   0.73146   0.52724   0.00000  Uiso   1.00
C139   C     0.20690   0.99545   0.19503   0.00000  Uiso   1.00
C140   C     0.22165   0.95750   0.25429   0.00000  Uiso   1.00
C141   C     0.16024   0.96349   0.30296   0.00000  Uiso   1.00
C142   C     0.18650   0.92445   0.35307   0.00000  Uiso   1.00
C143   C     0.19656   0.87216   0.44489   0.00000  Uiso   1.00
C144   C     0.30053   0.03902   0.18374   0.00000  Uiso   1.00
C145   C     0.30543   0.11354   0.17309   0.00000  Uiso   1.00
C146   C     0.39810   0.14311   0.16380   0.00000  Uiso   1.00
C147   C     0.53060   0.21737   0.14605   0.00000  Uiso   1.00
C148   C     0.20533   0.93503   0.14873   0.00000  Uiso   1.00
C149   C     0.13020   0.92213   0.10863   0.00000  Uiso   1.00
C150   C     0.14274   0.86416   0.06986   0.00000  Uiso   1.00
C151   C     0.12744   0.77696   0.99776   0.00000  Uiso   1.00
C152   C     0.36276   0.91547   0.19747   0.00000  Uiso   1.00
C153   C     0.30631   0.91406   0.25561   0.00000  Uiso   1.00
C154   C     0.33268   0.87500   0.30566   0.00000  Uiso   1.00
C155   C     0.27131   0.88092   0.35440   0.00000  Uiso   1.00
C156   C     0.38519   0.99558   0.18507   0.00000  Uiso   1.00
C157   C     0.47787   0.02505   0.17579   0.00000  Uiso   1.00
C158   C     0.48291   0.09959   0.16513   0.00000  Uiso   1.00
C159   C     0.28999   0.89159   0.15006   0.00000  Uiso   1.00
C160   C     0.30265   0.83363   0.11134   0.00000  Uiso   1.00
C161   C     0.22755   0.82064   0.07119   0.00000  Uiso   1.00
H162   H     0.14099   0.02928   0.19400   0.00000  Uiso   1.00
H163   H     0.09473   0.99712   0.30192   0.00000  Uiso   1.00
H164   H     0.23990   0.14714   0.17206   0.00000  Uiso   1.00
H165   H     0.06470   0.95576   0.10762   0.00000  Uiso   1.00
H166   H     0.08079   0.94233   0.42216   0.00000  Uiso   1.00
H167   H     0.38688   0.25865   0.14833   0.00000  Uiso   1.00
H168   H     0.01745   0.85509   0.01244   0.00000  Uiso   1.00
H169   H     0.42868   0.88165   0.19850   0.00000  Uiso   1.00
H170   H     0.39820   0.84138   0.30667   0.00000  Uiso   1.00
H171   H     0.54337   0.99141   0.17681   0.00000  Uiso   1.00
H172   H     0.36817   0.80003   0.11237   0.00000  Uiso   1.00
H173   H     0.32710   0.81593   0.42602   0.00000  Uiso   1.00
H174   H     0.63319   0.13226   0.15218   0.00000  Uiso   1.00
H175   H     0.26376   0.72869   0.01630   0.00000  Uiso   1.00
O176   O     0.17873   0.85533   0.49518   0.00000  Uiso   1.00
O177   O     0.58030   0.27033   0.13590   0.00000  Uiso   1.00
O178   O     0.09561   0.74086   0.95763   0.00000  Uiso   1.00
N179   N     0.14294   0.91809   0.40822   0.00000  Uiso   1.00
N180   N     0.42911   0.21384   0.15221   0.00000  Uiso   1.00
N181   N     0.08373   0.83655   0.02516   0.00000  Uiso   1.00
N182   N     0.27547   0.85008   0.41030   0.00000  Uiso   1.00
N183   N     0.56165   0.14583   0.15429   0.00000  Uiso   1.00
N184   N     0.21627   0.76854   0.02724   0.00000  Uiso   1.00
C185   C     0.29310   0.49545   0.19503   0.00000  Uiso   1.00
C186   C     0.27835   0.45750   0.25429   0.00000  Uiso   1.00
C187   C     0.33976   0.46349   0.30296   0.00000  Uiso   1.00
C188   C     0.31350   0.42445   0.35307   0.00000  Uiso   1.00
C189   C     0.30344   0.37216   0.44489   0.00000  Uiso   1.00
C190   C     0.19947   0.53902   0.18374   0.00000  Uiso   1.00
C191   C     0.19457   0.61354   0.17309   0.00000  Uiso   1.00
C192   C     0.10190   0.64311   0.16380   0.00000  Uiso   1.00
C193   C     0.96940   0.71737   0.14605   0.00000  Uiso   1.00
C194   C     0.29467   0.43503   0.14873   0.00000  Uiso   1.00
C195   C     0.36980   0.42213   0.10863   0.00000  Uiso   1.00
C196   C     0.35726   0.36416   0.06986   0.00000  Uiso   1.00
C197   C     0.37256   0.27696   0.99776   0.00000  Uiso   1.00
C198   C     0.13724   0.41547   0.19747   0.00000  Uiso   1.00
C199   C     0.19369   0.41406   0.25561   0.00000  Uiso   1.00
C200   C     0.16732   0.37500   0.30566   0.00000  Uiso   1.00
C201   C     0.22869   0.38092   0.35440   0.00000  Uiso   1.00
C202   C     0.11481   0.49558   0.18507   0.00000  Uiso   1.00
C203   C     0.02213   0.52505   0.17579   0.00000  Uiso   1.00
C204   C     0.01709   0.59959   0.16513   0.00000  Uiso   1.00
C205   C     0.21001   0.39159   0.15006   0.00000  Uiso   1.00
C206   C     0.19735   0.33363   0.11134   0.00000  Uiso   1.00
C207   C     0.27245   0.32064   0.07119   0.00000  Uiso   1.00
H208   H     0.35901   0.52928   0.19400   0.00000  Uiso   1.00
H209   H     0.40527   0.49712   0.30192   0.00000  Uiso   1.00
H210   H     0.26010   0.64714   0.17206   0.00000  Uiso   1.00
H211   H     0.43530   0.45576   0.10762   0.00000  Uiso   1.00
H212   H     0.41921   0.44233   0.42216   0.00000  Uiso   1.00
H213   H     0.11312   0.75865   0.14833   0.00000  Uiso   1.00
H214   H     0.48255   0.35509   0.01244   0.00000  Uiso   1.00
H215   H     0.07132   0.38165   0.19850   0.00000  Uiso   1.00
H216   H     0.10180   0.34138   0.30667   0.00000  Uiso   1.00
H217   H     0.95663   0.49141   0.17681   0.00000  Uiso   1.00
H218   H     0.13183   0.30003   0.11237   0.00000  Uiso   1.00
H219   H     0.17290   0.31593   0.42602   0.00000  Uiso   1.00
H220   H     0.86681   0.63226   0.15218   0.00000  Uiso   1.00
H221   H     0.23624   0.22869   0.01630   0.00000  Uiso   1.00
O222   O     0.32127   0.35533   0.49518   0.00000  Uiso   1.00
O223   O     0.91970   0.77033   0.13590   0.00000  Uiso   1.00
O224   O     0.40439   0.24086   0.95763   0.00000  Uiso   1.00
N225   N     0.35706   0.41809   0.40822   0.00000  Uiso   1.00
N226   N     0.07089   0.71384   0.15221   0.00000  Uiso   1.00
N227   N     0.41627   0.33655   0.02516   0.00000  Uiso   1.00
N228   N     0.22453   0.35008   0.41030   0.00000  Uiso   1.00
N229   N     0.93835   0.64583   0.15429   0.00000  Uiso   1.00
N230   N     0.28373   0.26854   0.02724   0.00000  Uiso   1.00
C231   C     0.20690   0.00455   0.69503   0.00000  Uiso   1.00
C232   C     0.22165   0.04250   0.75429   0.00000  Uiso   1.00
C233   C     0.16024   0.03651   0.80296   0.00000  Uiso   1.00
C234   C     0.18650   0.07555   0.85307   0.00000  Uiso   1.00
C235   C     0.19656   0.12784   0.94489   0.00000  Uiso   1.00
C236   C     0.30053   0.96098   0.68374   0.00000  Uiso   1.00
C237   C     0.30543   0.88646   0.67309   0.00000  Uiso   1.00
C238   C     0.39810   0.85689   0.66380   0.00000  Uiso   1.00
C239   C     0.53060   0.78263   0.64605   0.00000  Uiso   1.00
C240   C     0.20533   0.06497   0.64873   0.00000  Uiso   1.00
C241   C     0.13020   0.07787   0.60863   0.00000  Uiso   1.00
C242   C     0.14274   0.13584   0.56986   0.00000  Uiso   1.00
C243   C     0.12744   0.22304   0.49776   0.00000  Uiso   1.00
C244   C     0.36276   0.08453   0.69747   0.00000  Uiso   1.00
C245   C     0.30631   0.08594   0.75561   0.00000  Uiso   1.00
C246   C     0.33268   0.12500   0.80566   0.00000  Uiso   1.00
C247   C     0.27131   0.11908   0.85440   0.00000  Uiso   1.00
C248   C     0.38519   0.00442   0.68507   0.00000  Uiso   1.00
C249   C     0.47787   0.97495   0.67579   0.00000  Uiso   1.00
C250   C     0.48291   0.90041   0.66513   0.00000  Uiso   1.00
C251   C     0.28999   0.10841   0.65006   0.00000  Uiso   1.00
C252   C     0.30265   0.16637   0.61134   0.00000  Uiso   1.00
C253   C     0.22755   0.17936   0.57119   0.00000  Uiso   1.00
H254   H     0.14099   0.97072   0.69400   0.00000  Uiso   1.00
H255   H     0.09473   0.00288   0.80192   0.00000  Uiso   1.00
H256   H     0.23990   0.85286   0.67206   0.00000  Uiso   1.00
H257   H     0.06470   0.04424   0.60762   0.00000  Uiso   1.00
H258   H     0.08079   0.05767   0.92216   0.00000  Uiso   1.00
H259   H     0.38688   0.74135   0.64833   0.00000  Uiso   1.00
H260   H     0.01745   0.14491   0.51244   0.00000  Uiso   1.00
H261   H     0.42868   0.11835   0.69850   0.00000  Uiso   1.00
H262   H     0.39820   0.15862   0.80667   0.00000  Uiso   1.00
H263   H     0.54337   0.00859   0.67681   0.00000  Uiso   1.00
H264   H     0.36817   0.19997   0.61237   0.00000  Uiso   1.00
H265   H     0.32710   0.18407   0.92602   0.00000  Uiso   1.00
H266   H     0.63319   0.86774   0.65218   0.00000  Uiso   1.00
H267   H     0.26376   0.27131   0.51630   0.00000  Uiso   1.00
O268   O     0.17873   0.14467   0.99518   0.00000  Uiso   1.00
O269   O     0.58030   0.72967   0.63590   0.00000  Uiso   1.00
O270   O     0.09561   0.25914   0.45763   0.00000  Uiso   1.00
N271   N     0.14294   0.08191   0.90822   0.00000  Uiso   1.00
N272   N     0.42911   0.78616   0.65221   0.00000  Uiso   1.00
N273   N     0.08373   0.16345   0.52516   0.00000  Uiso   1.00
N274   N     0.27547   0.14992   0.91030   0.00000  Uiso   1.00
N275   N     0.56165   0.85417   0.65429   0.00000  Uiso   1.00
N276   N     0.21627   0.23146   0.52724   0.00000  Uiso   1.00
C277   C     0.70690   0.49545   0.30497   0.00000  Uiso   1.00
C278   C     0.72165   0.45750   0.24571   0.00000  Uiso   1.00
C279   C     0.66024   0.46349   0.19704   0.00000  Uiso   1.00
C280   C     0.68650   0.42445   0.14693   0.00000  Uiso   1.00
C281   C     0.69656   0.37216   0.05511   0.00000  Uiso   1.00
C282   C     0.80053   0.53902   0.31626   0.00000  Uiso   1.00
C283   C     0.80543   0.61354   0.32691   0.00000  Uiso   1.00
C284   C     0.89810   0.64311   0.33620   0.00000  Uiso   1.00
C285   C     0.03060   0.71737   0.35395   0.00000  Uiso   1.00
C286   C     0.70533   0.43503   0.35127   0.00000  Uiso   1.00
C287   C     0.63020   0.42213   0.39137   0.00000  Uiso   1.00
C288   C     0.64274   0.36416   0.43014   0.00000  Uiso   1.00
C289   C     0.62744   0.27696   0.50224   0.00000  Uiso   1.00
C290   C     0.86276   0.41547   0.30253   0.00000  Uiso   1.00
C291   C     0.80631   0.41406   0.24439   0.00000  Uiso   1.00
C292   C     0.83268   0.37500   0.19434   0.00000  Uiso   1.00
C293   C     0.77131   0.38092   0.14560   0.00000  Uiso   1.00
C294   C     0.88519   0.49558   0.31493   0.00000  Uiso   1.00
C295   C     0.97787   0.52505   0.32421   0.00000  Uiso   1.00
C296   C     0.98291   0.59959   0.33487   0.00000  Uiso   1.00
C297   C     0.78999   0.39159   0.34994   0.00000  Uiso   1.00
C298   C     0.80265   0.33363   0.38866   0.00000  Uiso   1.00
C299   C     0.72755   0.32064   0.42881   0.00000  Uiso   1.00
H300   H     0.64099   0.52928   0.30600   0.00000  Uiso   1.00
H301   H     0.59473   0.49712   0.19808   0.00000  Uiso   1.00
H302   H     0.73990   0.64714   0.32794   0.00000  Uiso   1.00
H303   H     0.56470   0.45576   0.39238   0.00000  Uiso   1.00
H304   H     0.58079   0.44233   0.07784   0.00000  Uiso   1.00
H305   H     0.88688   0.75865   0.35167   0.00000  Uiso   1.00
H306   H     0.51745   0.35509   0.48756   0.00000  Uiso   1.00
H307   H     0.92868   0.38165   0.30150   0.00000  Uiso   1.00
H308   H     0.89820   0.34138   0.19333   0.00000  Uiso   1.00
H309   H     0.04337   0.49141   0.32319   0.00000  Uiso   1.00
H310   H     0.86817   0.30003   0.38763   0.00000  Uiso   1.00
H311   H     0.82710   0.31593   0.07398   0.00000  Uiso   1.00
H312   H     0.13319   0.63226   0.34782   0.00000  Uiso   1.00
H313   H     0.76376   0.22869   0.48370   0.00000  Uiso   1.00
O314   O     0.67873   0.35533   0.00482   0.00000  Uiso   1.00
O315   O     0.08030   0.77033   0.36410   0.00000  Uiso   1.00
O316   O     0.59561   0.24086   0.54237   0.00000  Uiso   1.00
N317   N     0.64294   0.41809   0.09178   0.00000  Uiso   1.00
N318   N     0.92911   0.71384   0.34779   0.00000  Uiso   1.00
N319   N     0.58373   0.33655   0.47484   0.00000  Uiso   1.00
N320   N     0.77547   0.35008   0.08970   0.00000  Uiso   1.00
N321   N     0.06165   0.64583   0.34571   0.00000  Uiso   1.00
N322   N     0.71627   0.26854   0.47276   0.00000  Uiso   1.00
C323   C     0.79310   0.00455   0.80497   0.00000  Uiso   1.00
C324   C     0.77835   0.04250   0.74571   0.00000  Uiso   1.00
C325   C     0.83976   0.03651   0.69704   0.00000  Uiso   1.00
C326   C     0.81350   0.07555   0.64693   0.00000  Uiso   1.00
C327   C     0.80344   0.12784   0.55511   0.00000  Uiso   1.00
C328   C     0.69947   0.96098   0.81626   0.00000  Uiso   1.00
C329   C     0.69457   0.88646   0.82691   0.00000  Uiso   1.00
C330   C     0.60190   0.85689   0.83620   0.00000  Uiso   1.00
C331   C     0.46940   0.78263   0.85395   0.00000  Uiso   1.00
C332   C     0.79467   0.06497   0.85127   0.00000  Uiso   1.00
C333   C     0.86980   0.07787   0.89137   0.00000  Uiso   1.00
C334   C     0.85726   0.13584   0.93014   0.00000  Uiso   1.00
C335   C     0.87256   0.22304   0.00224   0.00000  Uiso   1.00
C336   C     0.63724   0.08453   0.80253   0.00000  Uiso   1.00
C337   C     0.69369   0.08594   0.74439   0.00000  Uiso   1.00
C338   C     0.66732   0.12500   0.69434   0.00000  Uiso   1.00
C339   C     0.72869   0.11908   0.64560   0.00000  Uiso   1.00
C340   C     0.61481   0.00442   0.81493   0.00000  Uiso   1.00
C341   C     0.52213   0.97495   0.82421   0.00000  Uiso   1.00
C342   C     0.51709   0.90041   0.83487   0.00000  Uiso   1.00
C343   C     0.71001   0.10841   0.84994   0.00000  Uiso   1.00
C344   C     0.69735   0.16637   0.88866   0.00000  Uiso   1.00
C345   C     0.77245   0.17936   0.92881   0.00000  Uiso   1.00
H346   H     0.85901   0.97072   0.80600   0.00000  Uiso   1.00
H347   H     0.90527   0.00288   0.69808   0.00000  Uiso   1.00
H348   H     0.76010   0.85286   0.82794   0.00000  Uiso   1.00
H349   H     0.93530   0.04424   0.89238   0.00000  Uiso   1.00
H350   H     0.91921   0.05767   0.57784   0.00000  Uiso   1.00
H351   H     0.61312   0.74135   0.85167   0.00000  Uiso   1.00
H352   H     0.98255   0.14491   0.98756   0.00000  Uiso   1.00
H353   H     0.57132   0.11835   0.80150   0.00000  Uiso   1.00
H354   H     0.60180   0.15862   0.69333   0.00000  Uiso   1.00
H355   H     0.45663   0.00859   0.82319   0.00000  Uiso   1.00
H356   H     0.63183   0.19997   0.88763   0.00000  Uiso   1.00
H357   H     0.67290   0.18407   0.57398   0.00000  Uiso   1.00
H358   H     0.36681   0.86774   0.84782   0.00000  Uiso   1.00
H359   H     0.73624   0.27131   0.98370   0.00000  Uiso   1.00
O360   O     0.82127   0.14467   0.50482   0.00000  Uiso   1.00
O361   O     0.41970   0.72967   0.86410   0.00000  Uiso   1.00
O362   O     0.90439   0.25914   0.04237   0.00000  Uiso   1.00
N363   N     0.85706   0.08191   0.59178   0.00000  Uiso   1.00
N364   N     0.57089   0.78616   0.84779   0.00000  Uiso   1.00
N365   N     0.91627   0.16345   0.97484   0.00000  Uiso   1.00
N366   N     0.72453   0.14992   0.58970   0.00000  Uiso   1.00
N367   N     0.43835   0.85417   0.84571   0.00000  Uiso   1.00
N368   N     0.78373   0.23146   0.97276   0.00000  Uiso   1.00
