data_job_00162
_audit_creation_date              2018-12-19
_audit_creation_method            'Materials Studio'
_symmetry_space_group_name_H-M    'P1'
_symmetry_Int_Tables_number       1
_symmetry_cell_setting            triclinic
loop_
_symmetry_equiv_pos_as_xyz
  x,y,z
_cell_length_a                    13.3551
_cell_length_b                    13.3551
_cell_length_c                    13.3511
_cell_angle_alpha                 90.0000
_cell_angle_beta                  90.0000
_cell_angle_gamma                 90.0000
loop_
_atom_site_label
_atom_site_type_symbol
_atom_site_fract_x
_atom_site_fract_y
_atom_site_fract_z
_atom_site_U_iso_or_equiv
_atom_site_adp_type
_atom_site_occupancy
C1     C     0.31932   0.93067   0.54749   0.00000  Uiso   1.00
C2     C     0.34476   0.83073   0.49846   0.00000  Uiso   1.00
C3     C     0.31336   0.79949   0.40443   0.00000  Uiso   1.00
C4     C     0.34466   0.70545   0.37307   0.00000  Uiso   1.00
C5     C     0.37492   0.55946   0.28775   0.00000  Uiso   1.00
C6     C     0.27030   0.90521   0.64746   0.00000  Uiso   1.00
C7     C     0.17629   0.93662   0.67870   0.00000  Uiso   1.00
C8     C     0.14492   0.90528   0.77276   0.00000  Uiso   1.00
C9     C     0.05960   0.87499   0.91878   0.00000  Uiso   1.00
C10    C     0.41925   0.97966   0.57297   0.00000  Uiso   1.00
C11    C     0.45048   0.07369   0.54161   0.00000  Uiso   1.00
C12    C     0.54451   0.10505   0.57298   0.00000  Uiso   1.00
C13    C     0.69047   0.19036   0.60335   0.00000  Uiso   1.00
C14    C     0.43076   0.81919   0.65899   0.00000  Uiso   1.00
C15    C     0.40529   0.77018   0.55903   0.00000  Uiso   1.00
C16    C     0.43665   0.67616   0.52780   0.00000  Uiso   1.00
C17    C     0.40530   0.64479   0.43373   0.00000  Uiso   1.00
C18    C     0.33082   0.84466   0.70802   0.00000  Uiso   1.00
C19    C     0.29958   0.81328   0.80206   0.00000  Uiso   1.00
C20    C     0.20555   0.84462   0.83343   0.00000  Uiso   1.00
C21    C     0.47978   0.91912   0.63353   0.00000  Uiso   1.00
C22    C     0.57378   0.95034   0.66497   0.00000  Uiso   1.00
C23    C     0.60515   0.04439   0.63366   0.00000  Uiso   1.00
H24    H     0.27219   0.97781   0.50035   0.00000  Uiso   1.00
H25    H     0.26651   0.84637   0.35759   0.00000  Uiso   1.00
H26    H     0.12947   0.98348   0.63182   0.00000  Uiso   1.00
H27    H     0.40362   0.12052   0.49475   0.00000  Uiso   1.00
H28    H     0.28687   0.67393   0.22604   0.00000  Uiso   1.00
H29    H     0.99793   0.96306   0.80428   0.00000  Uiso   1.00
H30    H     0.57603   0.25205   0.51524   0.00000  Uiso   1.00
H31    H     0.47788   0.77205   0.70615   0.00000  Uiso   1.00
H32    H     0.48349   0.62932   0.57468   0.00000  Uiso   1.00
H33    H     0.34645   0.76643   0.84891   0.00000  Uiso   1.00
H34    H     0.62060   0.90347   0.71183   0.00000  Uiso   1.00
H35    H     0.46298   0.49776   0.40224   0.00000  Uiso   1.00
H36    H     0.17404   0.78689   0.98048   0.00000  Uiso   1.00
H37    H     0.75214   0.07588   0.69144   0.00000  Uiso   1.00
O38    O     0.37488   0.49565   0.22396   0.00000  Uiso   1.00
O39    O     0.99581   0.87500   0.98259   0.00000  Uiso   1.00
O40    O     0.75426   0.25414   0.60337   0.00000  Uiso   1.00
N41    N     0.32757   0.65207   0.28555   0.00000  Uiso   1.00
N42    N     0.05742   0.92237   0.82615   0.00000  Uiso   1.00
N43    N     0.59788   0.19256   0.55595   0.00000  Uiso   1.00
N44    N     0.42233   0.55727   0.38036   0.00000  Uiso   1.00
N45    N     0.15218   0.82758   0.92096   0.00000  Uiso   1.00
N46    N     0.69265   0.09777   0.65076   0.00000  Uiso   1.00
C47    C     0.68068   0.06933   0.04749   0.00000  Uiso   1.00
C48    C     0.65524   0.16927   0.99846   0.00000  Uiso   1.00
C49    C     0.68664   0.20051   0.90443   0.00000  Uiso   1.00
C50    C     0.65534   0.29455   0.87307   0.00000  Uiso   1.00
C51    C     0.62508   0.44054   0.78775   0.00000  Uiso   1.00
C52    C     0.72970   0.09479   0.14746   0.00000  Uiso   1.00
C53    C     0.82371   0.06338   0.17870   0.00000  Uiso   1.00
C54    C     0.85508   0.09472   0.27276   0.00000  Uiso   1.00
C55    C     0.94040   0.12501   0.41878   0.00000  Uiso   1.00
C56    C     0.58075   0.02034   0.07297   0.00000  Uiso   1.00
C57    C     0.54952   0.92631   0.04161   0.00000  Uiso   1.00
C58    C     0.45549   0.89495   0.07298   0.00000  Uiso   1.00
C59    C     0.30953   0.80964   0.10335   0.00000  Uiso   1.00
C60    C     0.56924   0.18081   0.15899   0.00000  Uiso   1.00
C61    C     0.59471   0.22982   0.05903   0.00000  Uiso   1.00
C62    C     0.56335   0.32384   0.02780   0.00000  Uiso   1.00
C63    C     0.59470   0.35521   0.93373   0.00000  Uiso   1.00
C64    C     0.66918   0.15534   0.20802   0.00000  Uiso   1.00
C65    C     0.70042   0.18672   0.30206   0.00000  Uiso   1.00
C66    C     0.79445   0.15538   0.33343   0.00000  Uiso   1.00
C67    C     0.52022   0.08088   0.13353   0.00000  Uiso   1.00
C68    C     0.42622   0.04966   0.16497   0.00000  Uiso   1.00
C69    C     0.39485   0.95561   0.13366   0.00000  Uiso   1.00
H70    H     0.72781   0.02219   0.00035   0.00000  Uiso   1.00
H71    H     0.73349   0.15363   0.85759   0.00000  Uiso   1.00
H72    H     0.87053   0.01652   0.13182   0.00000  Uiso   1.00
H73    H     0.59638   0.87948   0.99475   0.00000  Uiso   1.00
H74    H     0.71313   0.32607   0.72604   0.00000  Uiso   1.00
H75    H     0.00207   0.03694   0.30428   0.00000  Uiso   1.00
H76    H     0.42397   0.74795   0.01524   0.00000  Uiso   1.00
H77    H     0.52212   0.22795   0.20615   0.00000  Uiso   1.00
H78    H     0.51651   0.37068   0.07468   0.00000  Uiso   1.00
H79    H     0.65355   0.23357   0.34891   0.00000  Uiso   1.00
H80    H     0.37940   0.09653   0.21183   0.00000  Uiso   1.00
H81    H     0.53702   0.50224   0.90224   0.00000  Uiso   1.00
H82    H     0.82596   0.21311   0.48048   0.00000  Uiso   1.00
H83    H     0.24786   0.92412   0.19144   0.00000  Uiso   1.00
O84    O     0.62512   0.50435   0.72396   0.00000  Uiso   1.00
O85    O     0.00419   0.12500   0.48259   0.00000  Uiso   1.00
O86    O     0.24574   0.74586   0.10337   0.00000  Uiso   1.00
N87    N     0.67243   0.34793   0.78555   0.00000  Uiso   1.00
N88    N     0.94258   0.07763   0.32615   0.00000  Uiso   1.00
N89    N     0.40212   0.80744   0.05595   0.00000  Uiso   1.00
N90    N     0.57767   0.44273   0.88036   0.00000  Uiso   1.00
N91    N     0.84782   0.17242   0.42096   0.00000  Uiso   1.00
N92    N     0.30735   0.90223   0.15076   0.00000  Uiso   1.00
C93    C     0.06933   0.31932   0.79749   0.00000  Uiso   1.00
C94    C     0.16927   0.34476   0.74846   0.00000  Uiso   1.00
C95    C     0.20051   0.31336   0.65443   0.00000  Uiso   1.00
C96    C     0.29455   0.34466   0.62307   0.00000  Uiso   1.00
C97    C     0.44054   0.37492   0.53775   0.00000  Uiso   1.00
C98    C     0.09479   0.27030   0.89746   0.00000  Uiso   1.00
C99    C     0.06338   0.17629   0.92870   0.00000  Uiso   1.00
C100   C     0.09472   0.14492   0.02276   0.00000  Uiso   1.00
C101   C     0.12501   0.05960   0.16878   0.00000  Uiso   1.00
C102   C     0.02034   0.41925   0.82297   0.00000  Uiso   1.00
C103   C     0.92631   0.45048   0.79161   0.00000  Uiso   1.00
C104   C     0.89495   0.54451   0.82298   0.00000  Uiso   1.00
C105   C     0.80964   0.69047   0.85335   0.00000  Uiso   1.00
C106   C     0.18081   0.43076   0.90899   0.00000  Uiso   1.00
C107   C     0.22982   0.40529   0.80903   0.00000  Uiso   1.00
C108   C     0.32384   0.43665   0.77780   0.00000  Uiso   1.00
C109   C     0.35521   0.40530   0.68373   0.00000  Uiso   1.00
C110   C     0.15534   0.33082   0.95802   0.00000  Uiso   1.00
C111   C     0.18672   0.29958   0.05206   0.00000  Uiso   1.00
C112   C     0.15538   0.20555   0.08343   0.00000  Uiso   1.00
C113   C     0.08088   0.47978   0.88353   0.00000  Uiso   1.00
C114   C     0.04966   0.57378   0.91497   0.00000  Uiso   1.00
C115   C     0.95561   0.60515   0.88366   0.00000  Uiso   1.00
H116   H     0.02219   0.27219   0.75035   0.00000  Uiso   1.00
H117   H     0.15363   0.26651   0.60759   0.00000  Uiso   1.00
H118   H     0.01652   0.12947   0.88182   0.00000  Uiso   1.00
H119   H     0.87948   0.40362   0.74475   0.00000  Uiso   1.00
H120   H     0.32607   0.28687   0.47604   0.00000  Uiso   1.00
H121   H     0.03694   0.99793   0.05428   0.00000  Uiso   1.00
H122   H     0.74795   0.57603   0.76524   0.00000  Uiso   1.00
H123   H     0.22795   0.47788   0.95615   0.00000  Uiso   1.00
H124   H     0.37068   0.48349   0.82468   0.00000  Uiso   1.00
H125   H     0.23357   0.34645   0.09891   0.00000  Uiso   1.00
H126   H     0.09653   0.62060   0.96183   0.00000  Uiso   1.00
H127   H     0.50224   0.46298   0.65224   0.00000  Uiso   1.00
H128   H     0.21311   0.17404   0.23048   0.00000  Uiso   1.00
H129   H     0.92412   0.75214   0.94144   0.00000  Uiso   1.00
O130   O     0.50435   0.37488   0.47396   0.00000  Uiso   1.00
O131   O     0.12500   0.99581   0.23259   0.00000  Uiso   1.00
O132   O     0.74586   0.75426   0.85337   0.00000  Uiso   1.00
N133   N     0.34793   0.32757   0.53555   0.00000  Uiso   1.00
N134   N     0.07763   0.05742   0.07615   0.00000  Uiso   1.00
N135   N     0.80744   0.59788   0.80595   0.00000  Uiso   1.00
N136   N     0.44273   0.42233   0.63036   0.00000  Uiso   1.00
N137   N     0.17242   0.15218   0.17096   0.00000  Uiso   1.00
N138   N     0.90223   0.69265   0.90076   0.00000  Uiso   1.00
C139   C     0.93067   0.68068   0.29749   0.00000  Uiso   1.00
C140   C     0.83073   0.65524   0.24846   0.00000  Uiso   1.00
C141   C     0.79949   0.68664   0.15443   0.00000  Uiso   1.00
C142   C     0.70545   0.65534   0.12307   0.00000  Uiso   1.00
C143   C     0.55946   0.62508   0.03775   0.00000  Uiso   1.00
C144   C     0.90521   0.72970   0.39746   0.00000  Uiso   1.00
C145   C     0.93662   0.82371   0.42870   0.00000  Uiso   1.00
C146   C     0.90528   0.85508   0.52276   0.00000  Uiso   1.00
C147   C     0.87499   0.94040   0.66878   0.00000  Uiso   1.00
C148   C     0.97966   0.58075   0.32297   0.00000  Uiso   1.00
C149   C     0.07369   0.54952   0.29161   0.00000  Uiso   1.00
C150   C     0.10505   0.45549   0.32298   0.00000  Uiso   1.00
C151   C     0.19036   0.30953   0.35335   0.00000  Uiso   1.00
C152   C     0.81919   0.56924   0.40899   0.00000  Uiso   1.00
C153   C     0.77018   0.59471   0.30903   0.00000  Uiso   1.00
C154   C     0.67616   0.56335   0.27780   0.00000  Uiso   1.00
C155   C     0.64479   0.59470   0.18373   0.00000  Uiso   1.00
C156   C     0.84466   0.66918   0.45802   0.00000  Uiso   1.00
C157   C     0.81328   0.70042   0.55206   0.00000  Uiso   1.00
C158   C     0.84462   0.79445   0.58343   0.00000  Uiso   1.00
C159   C     0.91912   0.52022   0.38353   0.00000  Uiso   1.00
C160   C     0.95034   0.42622   0.41497   0.00000  Uiso   1.00
C161   C     0.04439   0.39485   0.38366   0.00000  Uiso   1.00
H162   H     0.97781   0.72781   0.25035   0.00000  Uiso   1.00
H163   H     0.84637   0.73349   0.10759   0.00000  Uiso   1.00
H164   H     0.98348   0.87053   0.38182   0.00000  Uiso   1.00
H165   H     0.12052   0.59638   0.24475   0.00000  Uiso   1.00
H166   H     0.67393   0.71313   0.97604   0.00000  Uiso   1.00
H167   H     0.96306   0.00207   0.55428   0.00000  Uiso   1.00
H168   H     0.25205   0.42397   0.26524   0.00000  Uiso   1.00
H169   H     0.77205   0.52212   0.45615   0.00000  Uiso   1.00
H170   H     0.62932   0.51651   0.32468   0.00000  Uiso   1.00
H171   H     0.76643   0.65355   0.59891   0.00000  Uiso   1.00
H172   H     0.90347   0.37940   0.46183   0.00000  Uiso   1.00
H173   H     0.49776   0.53702   0.15224   0.00000  Uiso   1.00
H174   H     0.78689   0.82596   0.73048   0.00000  Uiso   1.00
H175   H     0.07588   0.24786   0.44144   0.00000  Uiso   1.00
O176   O     0.49565   0.62512   0.97396   0.00000  Uiso   1.00
O177   O     0.87500   0.00419   0.73259   0.00000  Uiso   1.00
O178   O     0.25414   0.24574   0.35337   0.00000  Uiso   1.00
N179   N     0.65207   0.67243   0.03555   0.00000  Uiso   1.00
N180   N     0.92237   0.94258   0.57615   0.00000  Uiso   1.00
N181   N     0.19256   0.40212   0.30595   0.00000  Uiso   1.00
N182   N     0.55727   0.57767   0.13036   0.00000  Uiso   1.00
N183   N     0.82758   0.84782   0.67096   0.00000  Uiso   1.00
N184   N     0.09777   0.30735   0.40076   0.00000  Uiso   1.00
