data_job_04716
_audit_creation_date              2018-12-19
_audit_creation_method            'Materials Studio'
_symmetry_space_group_name_H-M    'P1'
_symmetry_Int_Tables_number       1
_symmetry_cell_setting            triclinic
loop_
_symmetry_equiv_pos_as_xyz
  x,y,z
_cell_length_a                    24.6056
_cell_length_b                    20.7823
_cell_length_c                    12.5116
_cell_angle_alpha                 90.0000
_cell_angle_beta                  110.5550
_cell_angle_gamma                 90.0000
loop_
_atom_site_label
_atom_site_type_symbol
_atom_site_fract_x
_atom_site_fract_y
_atom_site_fract_z
_atom_site_U_iso_or_equiv
_atom_site_adp_type
_atom_site_occupancy
C1     C     0.24094   0.39348   0.84081   0.00000  Uiso   1.00
C2     C     0.30646   0.38310   0.88444   0.00000  Uiso   1.00
C3     C     0.34016   0.36398   0.99398   0.00000  Uiso   1.00
C4     C     0.39933   0.35721   0.01706   0.00000  Uiso   1.00
C5     C     0.49734   0.33932   0.09753   0.00000  Uiso   1.00
C6     C     0.23106   0.46232   0.79596   0.00000  Uiso   1.00
C7     C     0.20136   0.50979   0.83109   0.00000  Uiso   1.00
C8     C     0.19706   0.56971   0.77968   0.00000  Uiso   1.00
C9     C     0.17797   0.67479   0.72272   0.00000  Uiso   1.00
C10    C     0.21624   0.35008   0.73663   0.00000  Uiso   1.00
C11    C     0.17407   0.30319   0.72187   0.00000  Uiso   1.00
C12    C     0.15728   0.26861   0.62049   0.00000  Uiso   1.00
C13    C     0.11518   0.19942   0.47143   0.00000  Uiso   1.00
C14    C     0.28609   0.41547   0.68701   0.00000  Uiso   1.00
C15    C     0.33098   0.39506   0.80090   0.00000  Uiso   1.00
C16    C     0.39012   0.38831   0.82381   0.00000  Uiso   1.00
C17    C     0.42390   0.36917   0.93337   0.00000  Uiso   1.00
C18    C     0.25559   0.47427   0.71242   0.00000  Uiso   1.00
C19    C     0.25132   0.53413   0.66093   0.00000  Uiso   1.00
C20    C     0.22163   0.58168   0.69599   0.00000  Uiso   1.00
C21    C     0.24077   0.36203   0.65309   0.00000  Uiso   1.00
C22    C     0.22403   0.32752   0.55171   0.00000  Uiso   1.00
C23    C     0.18185   0.28058   0.53680   0.00000  Uiso   1.00
H24    H     0.22184   0.38418   0.90584   0.00000  Uiso   1.00
H25    H     0.32116   0.35474   0.05861   0.00000  Uiso   1.00
H26    H     0.18238   0.50053   0.89574   0.00000  Uiso   1.00
H27    H     0.15510   0.29395   0.78654   0.00000  Uiso   1.00
H28    H     0.44210   0.32739   0.19114   0.00000  Uiso   1.00
H29    H     0.14946   0.63480   0.84769   0.00000  Uiso   1.00
H30    H     0.09192   0.19919   0.61743   0.00000  Uiso   1.00
H31    H     0.30519   0.42478   0.62196   0.00000  Uiso   1.00
H32    H     0.40908   0.39756   0.75915   0.00000  Uiso   1.00
H33    H     0.27030   0.54336   0.59628   0.00000  Uiso   1.00
H34    H     0.24302   0.33678   0.48709   0.00000  Uiso   1.00
H35    H     0.51346   0.36215   0.94809   0.00000  Uiso   1.00
H36    H     0.22081   0.66956   0.60464   0.00000  Uiso   1.00
H37    H     0.16328   0.23395   0.37438   0.00000  Uiso   1.00
O38    O     0.54462   0.32616   0.16499   0.00000  Uiso   1.00
O39    O     0.16068   0.72946   0.71439   0.00000  Uiso   1.00
O40    O     0.08520   0.15795   0.41229   0.00000  Uiso   1.00
N41    N     0.44463   0.33930   0.11510   0.00000  Uiso   1.00
N42    N     0.17104   0.62670   0.79402   0.00000  Uiso   1.00
N43    N     0.11723   0.21946   0.57872   0.00000  Uiso   1.00
N44    N     0.48303   0.35800   0.98432   0.00000  Uiso   1.00
N45    N     0.20943   0.64541   0.66324   0.00000  Uiso   1.00
N46    N     0.15563   0.23816   0.44794   0.00000  Uiso   1.00
C47    C     0.74094   0.89348   0.84081   0.00000  Uiso   1.00
C48    C     0.80646   0.88310   0.88444   0.00000  Uiso   1.00
C49    C     0.84016   0.86398   0.99398   0.00000  Uiso   1.00
C50    C     0.89933   0.85721   0.01706   0.00000  Uiso   1.00
C51    C     0.99734   0.83932   0.09753   0.00000  Uiso   1.00
C52    C     0.73106   0.96232   0.79596   0.00000  Uiso   1.00
C53    C     0.70136   0.00979   0.83109   0.00000  Uiso   1.00
C54    C     0.69706   0.06971   0.77968   0.00000  Uiso   1.00
C55    C     0.67797   0.17479   0.72272   0.00000  Uiso   1.00
C56    C     0.71624   0.85008   0.73663   0.00000  Uiso   1.00
C57    C     0.67407   0.80319   0.72187   0.00000  Uiso   1.00
C58    C     0.65728   0.76861   0.62049   0.00000  Uiso   1.00
C59    C     0.61518   0.69942   0.47143   0.00000  Uiso   1.00
C60    C     0.78609   0.91547   0.68701   0.00000  Uiso   1.00
C61    C     0.83098   0.89506   0.80090   0.00000  Uiso   1.00
C62    C     0.89012   0.88831   0.82381   0.00000  Uiso   1.00
C63    C     0.92390   0.86917   0.93337   0.00000  Uiso   1.00
C64    C     0.75559   0.97427   0.71242   0.00000  Uiso   1.00
C65    C     0.75132   0.03413   0.66093   0.00000  Uiso   1.00
C66    C     0.72163   0.08168   0.69599   0.00000  Uiso   1.00
C67    C     0.74077   0.86203   0.65309   0.00000  Uiso   1.00
C68    C     0.72403   0.82752   0.55171   0.00000  Uiso   1.00
C69    C     0.68185   0.78058   0.53680   0.00000  Uiso   1.00
H70    H     0.72184   0.88418   0.90584   0.00000  Uiso   1.00
H71    H     0.82116   0.85474   0.05861   0.00000  Uiso   1.00
H72    H     0.68238   0.00053   0.89574   0.00000  Uiso   1.00
H73    H     0.65510   0.79395   0.78654   0.00000  Uiso   1.00
H74    H     0.94210   0.82739   0.19114   0.00000  Uiso   1.00
H75    H     0.64946   0.13480   0.84769   0.00000  Uiso   1.00
H76    H     0.59192   0.69919   0.61743   0.00000  Uiso   1.00
H77    H     0.80519   0.92478   0.62196   0.00000  Uiso   1.00
H78    H     0.90908   0.89756   0.75915   0.00000  Uiso   1.00
H79    H     0.77030   0.04336   0.59628   0.00000  Uiso   1.00
H80    H     0.74302   0.83678   0.48709   0.00000  Uiso   1.00
H81    H     0.01346   0.86215   0.94809   0.00000  Uiso   1.00
H82    H     0.72081   0.16956   0.60464   0.00000  Uiso   1.00
H83    H     0.66328   0.73395   0.37438   0.00000  Uiso   1.00
O84    O     0.04462   0.82616   0.16499   0.00000  Uiso   1.00
O85    O     0.66068   0.22946   0.71439   0.00000  Uiso   1.00
O86    O     0.58520   0.65795   0.41229   0.00000  Uiso   1.00
N87    N     0.94463   0.83930   0.11510   0.00000  Uiso   1.00
N88    N     0.67104   0.12670   0.79402   0.00000  Uiso   1.00
N89    N     0.61723   0.71946   0.57872   0.00000  Uiso   1.00
N90    N     0.98303   0.85800   0.98432   0.00000  Uiso   1.00
N91    N     0.70943   0.14541   0.66324   0.00000  Uiso   1.00
N92    N     0.65563   0.73816   0.44794   0.00000  Uiso   1.00
C93    C     0.75906   0.39348   0.65919   0.00000  Uiso   1.00
C94    C     0.69354   0.38310   0.61556   0.00000  Uiso   1.00
C95    C     0.65984   0.36398   0.50602   0.00000  Uiso   1.00
C96    C     0.60067   0.35721   0.48294   0.00000  Uiso   1.00
C97    C     0.50266   0.33932   0.40247   0.00000  Uiso   1.00
C98    C     0.76894   0.46232   0.70404   0.00000  Uiso   1.00
C99    C     0.79864   0.50979   0.66891   0.00000  Uiso   1.00
C100   C     0.80294   0.56971   0.72032   0.00000  Uiso   1.00
C101   C     0.82203   0.67479   0.77728   0.00000  Uiso   1.00
C102   C     0.78376   0.35008   0.76337   0.00000  Uiso   1.00
C103   C     0.82593   0.30319   0.77813   0.00000  Uiso   1.00
C104   C     0.84272   0.26861   0.87951   0.00000  Uiso   1.00
C105   C     0.88482   0.19942   0.02857   0.00000  Uiso   1.00
C106   C     0.71391   0.41547   0.81299   0.00000  Uiso   1.00
C107   C     0.66902   0.39506   0.69910   0.00000  Uiso   1.00
C108   C     0.60988   0.38831   0.67619   0.00000  Uiso   1.00
C109   C     0.57610   0.36917   0.56663   0.00000  Uiso   1.00
C110   C     0.74441   0.47427   0.78758   0.00000  Uiso   1.00
C111   C     0.74868   0.53413   0.83907   0.00000  Uiso   1.00
C112   C     0.77837   0.58168   0.80401   0.00000  Uiso   1.00
C113   C     0.75923   0.36203   0.84691   0.00000  Uiso   1.00
C114   C     0.77597   0.32752   0.94829   0.00000  Uiso   1.00
C115   C     0.81815   0.28058   0.96320   0.00000  Uiso   1.00
H116   H     0.77816   0.38418   0.59416   0.00000  Uiso   1.00
H117   H     0.67884   0.35474   0.44139   0.00000  Uiso   1.00
H118   H     0.81762   0.50053   0.60426   0.00000  Uiso   1.00
H119   H     0.84490   0.29395   0.71346   0.00000  Uiso   1.00
H120   H     0.55790   0.32739   0.30886   0.00000  Uiso   1.00
H121   H     0.85054   0.63480   0.65231   0.00000  Uiso   1.00
H122   H     0.90808   0.19919   0.88257   0.00000  Uiso   1.00
H123   H     0.69481   0.42478   0.87804   0.00000  Uiso   1.00
H124   H     0.59092   0.39756   0.74085   0.00000  Uiso   1.00
H125   H     0.72970   0.54336   0.90372   0.00000  Uiso   1.00
H126   H     0.75698   0.33678   0.01291   0.00000  Uiso   1.00
H127   H     0.48654   0.36215   0.55191   0.00000  Uiso   1.00
H128   H     0.77919   0.66956   0.89536   0.00000  Uiso   1.00
H129   H     0.83672   0.23395   0.12562   0.00000  Uiso   1.00
O130   O     0.45538   0.32616   0.33501   0.00000  Uiso   1.00
O131   O     0.83932   0.72946   0.78561   0.00000  Uiso   1.00
O132   O     0.91480   0.15795   0.08771   0.00000  Uiso   1.00
N133   N     0.55537   0.33930   0.38490   0.00000  Uiso   1.00
N134   N     0.82896   0.62670   0.70598   0.00000  Uiso   1.00
N135   N     0.88277   0.21946   0.92128   0.00000  Uiso   1.00
N136   N     0.51697   0.35800   0.51568   0.00000  Uiso   1.00
N137   N     0.79057   0.64541   0.83676   0.00000  Uiso   1.00
N138   N     0.84437   0.23816   0.05206   0.00000  Uiso   1.00
C139   C     0.25906   0.89348   0.65919   0.00000  Uiso   1.00
C140   C     0.19354   0.88310   0.61556   0.00000  Uiso   1.00
C141   C     0.15984   0.86398   0.50602   0.00000  Uiso   1.00
C142   C     0.10067   0.85721   0.48294   0.00000  Uiso   1.00
C143   C     0.00266   0.83932   0.40247   0.00000  Uiso   1.00
C144   C     0.26894   0.96232   0.70404   0.00000  Uiso   1.00
C145   C     0.29864   0.00979   0.66891   0.00000  Uiso   1.00
C146   C     0.30294   0.06971   0.72032   0.00000  Uiso   1.00
C147   C     0.32203   0.17479   0.77728   0.00000  Uiso   1.00
C148   C     0.28376   0.85008   0.76337   0.00000  Uiso   1.00
C149   C     0.32593   0.80319   0.77813   0.00000  Uiso   1.00
C150   C     0.34272   0.76861   0.87951   0.00000  Uiso   1.00
C151   C     0.38482   0.69942   0.02857   0.00000  Uiso   1.00
C152   C     0.21391   0.91547   0.81299   0.00000  Uiso   1.00
C153   C     0.16902   0.89506   0.69910   0.00000  Uiso   1.00
C154   C     0.10988   0.88831   0.67619   0.00000  Uiso   1.00
C155   C     0.07610   0.86917   0.56663   0.00000  Uiso   1.00
C156   C     0.24441   0.97427   0.78758   0.00000  Uiso   1.00
C157   C     0.24868   0.03413   0.83907   0.00000  Uiso   1.00
C158   C     0.27837   0.08168   0.80401   0.00000  Uiso   1.00
C159   C     0.25923   0.86203   0.84691   0.00000  Uiso   1.00
C160   C     0.27597   0.82752   0.94829   0.00000  Uiso   1.00
C161   C     0.31815   0.78058   0.96320   0.00000  Uiso   1.00
H162   H     0.27816   0.88418   0.59416   0.00000  Uiso   1.00
H163   H     0.17884   0.85474   0.44139   0.00000  Uiso   1.00
H164   H     0.31762   0.00053   0.60426   0.00000  Uiso   1.00
H165   H     0.34490   0.79395   0.71346   0.00000  Uiso   1.00
H166   H     0.05790   0.82739   0.30886   0.00000  Uiso   1.00
H167   H     0.35054   0.13480   0.65231   0.00000  Uiso   1.00
H168   H     0.40808   0.69919   0.88257   0.00000  Uiso   1.00
H169   H     0.19481   0.92478   0.87804   0.00000  Uiso   1.00
H170   H     0.09092   0.89756   0.74085   0.00000  Uiso   1.00
H171   H     0.22970   0.04336   0.90372   0.00000  Uiso   1.00
H172   H     0.25698   0.83678   0.01291   0.00000  Uiso   1.00
H173   H     0.98654   0.86215   0.55191   0.00000  Uiso   1.00
H174   H     0.27919   0.16956   0.89536   0.00000  Uiso   1.00
H175   H     0.33672   0.73395   0.12562   0.00000  Uiso   1.00
O176   O     0.95538   0.82616   0.33501   0.00000  Uiso   1.00
O177   O     0.33932   0.22946   0.78561   0.00000  Uiso   1.00
O178   O     0.41480   0.65795   0.08771   0.00000  Uiso   1.00
N179   N     0.05537   0.83930   0.38490   0.00000  Uiso   1.00
N180   N     0.32896   0.12670   0.70598   0.00000  Uiso   1.00
N181   N     0.38277   0.71946   0.92128   0.00000  Uiso   1.00
N182   N     0.01697   0.85800   0.51568   0.00000  Uiso   1.00
N183   N     0.29057   0.14541   0.83676   0.00000  Uiso   1.00
N184   N     0.34437   0.73816   0.05206   0.00000  Uiso   1.00
C185   C     0.75906   0.60652   0.15919   0.00000  Uiso   1.00
C186   C     0.69354   0.61690   0.11556   0.00000  Uiso   1.00
C187   C     0.65984   0.63602   0.00602   0.00000  Uiso   1.00
C188   C     0.60067   0.64279   0.98294   0.00000  Uiso   1.00
C189   C     0.50266   0.66068   0.90247   0.00000  Uiso   1.00
C190   C     0.76894   0.53768   0.20404   0.00000  Uiso   1.00
C191   C     0.79864   0.49021   0.16891   0.00000  Uiso   1.00
C192   C     0.80294   0.43029   0.22032   0.00000  Uiso   1.00
C193   C     0.82203   0.32521   0.27728   0.00000  Uiso   1.00
C194   C     0.78376   0.64992   0.26337   0.00000  Uiso   1.00
C195   C     0.82593   0.69681   0.27813   0.00000  Uiso   1.00
C196   C     0.84272   0.73139   0.37951   0.00000  Uiso   1.00
C197   C     0.88482   0.80058   0.52857   0.00000  Uiso   1.00
C198   C     0.71391   0.58453   0.31299   0.00000  Uiso   1.00
C199   C     0.66902   0.60494   0.19910   0.00000  Uiso   1.00
C200   C     0.60988   0.61169   0.17619   0.00000  Uiso   1.00
C201   C     0.57610   0.63083   0.06663   0.00000  Uiso   1.00
C202   C     0.74441   0.52573   0.28758   0.00000  Uiso   1.00
C203   C     0.74868   0.46587   0.33907   0.00000  Uiso   1.00
C204   C     0.77837   0.41832   0.30401   0.00000  Uiso   1.00
C205   C     0.75923   0.63797   0.34691   0.00000  Uiso   1.00
C206   C     0.77597   0.67248   0.44829   0.00000  Uiso   1.00
C207   C     0.81815   0.71942   0.46320   0.00000  Uiso   1.00
H208   H     0.77816   0.61582   0.09416   0.00000  Uiso   1.00
H209   H     0.67884   0.64526   0.94139   0.00000  Uiso   1.00
H210   H     0.81762   0.49947   0.10426   0.00000  Uiso   1.00
H211   H     0.84490   0.70605   0.21346   0.00000  Uiso   1.00
H212   H     0.55790   0.67261   0.80886   0.00000  Uiso   1.00
H213   H     0.85054   0.36520   0.15231   0.00000  Uiso   1.00
H214   H     0.90808   0.80081   0.38257   0.00000  Uiso   1.00
H215   H     0.69481   0.57522   0.37804   0.00000  Uiso   1.00
H216   H     0.59092   0.60244   0.24085   0.00000  Uiso   1.00
H217   H     0.72970   0.45664   0.40372   0.00000  Uiso   1.00
H218   H     0.75698   0.66322   0.51291   0.00000  Uiso   1.00
H219   H     0.48654   0.63785   0.05191   0.00000  Uiso   1.00
H220   H     0.77919   0.33044   0.39536   0.00000  Uiso   1.00
H221   H     0.83672   0.76605   0.62562   0.00000  Uiso   1.00
O222   O     0.45538   0.67384   0.83501   0.00000  Uiso   1.00
O223   O     0.83932   0.27054   0.28561   0.00000  Uiso   1.00
O224   O     0.91480   0.84205   0.58771   0.00000  Uiso   1.00
N225   N     0.55537   0.66070   0.88490   0.00000  Uiso   1.00
N226   N     0.82896   0.37330   0.20598   0.00000  Uiso   1.00
N227   N     0.88277   0.78054   0.42128   0.00000  Uiso   1.00
N228   N     0.51697   0.64200   0.01568   0.00000  Uiso   1.00
N229   N     0.79057   0.35459   0.33676   0.00000  Uiso   1.00
N230   N     0.84437   0.76184   0.55206   0.00000  Uiso   1.00
C231   C     0.25906   0.10652   0.15919   0.00000  Uiso   1.00
C232   C     0.19354   0.11690   0.11556   0.00000  Uiso   1.00
C233   C     0.15984   0.13602   0.00602   0.00000  Uiso   1.00
C234   C     0.10067   0.14279   0.98294   0.00000  Uiso   1.00
C235   C     0.00266   0.16068   0.90247   0.00000  Uiso   1.00
C236   C     0.26894   0.03768   0.20404   0.00000  Uiso   1.00
C237   C     0.29864   0.99021   0.16891   0.00000  Uiso   1.00
C238   C     0.30294   0.93029   0.22032   0.00000  Uiso   1.00
C239   C     0.32203   0.82521   0.27728   0.00000  Uiso   1.00
C240   C     0.28376   0.14992   0.26337   0.00000  Uiso   1.00
C241   C     0.32593   0.19681   0.27813   0.00000  Uiso   1.00
C242   C     0.34272   0.23139   0.37951   0.00000  Uiso   1.00
C243   C     0.38482   0.30058   0.52857   0.00000  Uiso   1.00
C244   C     0.21391   0.08453   0.31299   0.00000  Uiso   1.00
C245   C     0.16902   0.10494   0.19910   0.00000  Uiso   1.00
C246   C     0.10988   0.11169   0.17619   0.00000  Uiso   1.00
C247   C     0.07610   0.13083   0.06663   0.00000  Uiso   1.00
C248   C     0.24441   0.02573   0.28758   0.00000  Uiso   1.00
C249   C     0.24868   0.96587   0.33907   0.00000  Uiso   1.00
C250   C     0.27837   0.91832   0.30401   0.00000  Uiso   1.00
C251   C     0.25923   0.13797   0.34691   0.00000  Uiso   1.00
C252   C     0.27597   0.17248   0.44829   0.00000  Uiso   1.00
C253   C     0.31815   0.21942   0.46320   0.00000  Uiso   1.00
H254   H     0.27816   0.11582   0.09416   0.00000  Uiso   1.00
H255   H     0.17884   0.14526   0.94139   0.00000  Uiso   1.00
H256   H     0.31762   0.99947   0.10426   0.00000  Uiso   1.00
H257   H     0.34490   0.20605   0.21346   0.00000  Uiso   1.00
H258   H     0.05790   0.17261   0.80886   0.00000  Uiso   1.00
H259   H     0.35054   0.86520   0.15231   0.00000  Uiso   1.00
H260   H     0.40808   0.30081   0.38257   0.00000  Uiso   1.00
H261   H     0.19481   0.07522   0.37804   0.00000  Uiso   1.00
H262   H     0.09092   0.10244   0.24085   0.00000  Uiso   1.00
H263   H     0.22970   0.95664   0.40372   0.00000  Uiso   1.00
H264   H     0.25698   0.16322   0.51291   0.00000  Uiso   1.00
H265   H     0.98654   0.13785   0.05191   0.00000  Uiso   1.00
H266   H     0.27919   0.83044   0.39536   0.00000  Uiso   1.00
H267   H     0.33672   0.26605   0.62562   0.00000  Uiso   1.00
O268   O     0.95538   0.17384   0.83501   0.00000  Uiso   1.00
O269   O     0.33932   0.77054   0.28561   0.00000  Uiso   1.00
O270   O     0.41480   0.34205   0.58771   0.00000  Uiso   1.00
N271   N     0.05537   0.16070   0.88490   0.00000  Uiso   1.00
N272   N     0.32896   0.87330   0.20598   0.00000  Uiso   1.00
N273   N     0.38277   0.28054   0.42128   0.00000  Uiso   1.00
N274   N     0.01697   0.14200   0.01568   0.00000  Uiso   1.00
N275   N     0.29057   0.85459   0.33676   0.00000  Uiso   1.00
N276   N     0.34437   0.26184   0.55206   0.00000  Uiso   1.00
C277   C     0.24094   0.60652   0.34081   0.00000  Uiso   1.00
C278   C     0.30646   0.61690   0.38444   0.00000  Uiso   1.00
C279   C     0.34016   0.63602   0.49398   0.00000  Uiso   1.00
C280   C     0.39933   0.64279   0.51706   0.00000  Uiso   1.00
C281   C     0.49734   0.66068   0.59753   0.00000  Uiso   1.00
C282   C     0.23106   0.53768   0.29596   0.00000  Uiso   1.00
C283   C     0.20136   0.49021   0.33109   0.00000  Uiso   1.00
C284   C     0.19706   0.43029   0.27968   0.00000  Uiso   1.00
C285   C     0.17797   0.32521   0.22272   0.00000  Uiso   1.00
C286   C     0.21624   0.64992   0.23663   0.00000  Uiso   1.00
C287   C     0.17407   0.69681   0.22187   0.00000  Uiso   1.00
C288   C     0.15728   0.73139   0.12049   0.00000  Uiso   1.00
C289   C     0.11518   0.80058   0.97143   0.00000  Uiso   1.00
C290   C     0.28609   0.58453   0.18701   0.00000  Uiso   1.00
C291   C     0.33098   0.60494   0.30090   0.00000  Uiso   1.00
C292   C     0.39012   0.61169   0.32381   0.00000  Uiso   1.00
C293   C     0.42390   0.63083   0.43337   0.00000  Uiso   1.00
C294   C     0.25559   0.52573   0.21242   0.00000  Uiso   1.00
C295   C     0.25132   0.46587   0.16093   0.00000  Uiso   1.00
C296   C     0.22163   0.41832   0.19599   0.00000  Uiso   1.00
C297   C     0.24077   0.63797   0.15309   0.00000  Uiso   1.00
C298   C     0.22403   0.67248   0.05171   0.00000  Uiso   1.00
C299   C     0.18185   0.71942   0.03680   0.00000  Uiso   1.00
H300   H     0.22184   0.61582   0.40584   0.00000  Uiso   1.00
H301   H     0.32116   0.64526   0.55861   0.00000  Uiso   1.00
H302   H     0.18238   0.49947   0.39574   0.00000  Uiso   1.00
H303   H     0.15510   0.70605   0.28654   0.00000  Uiso   1.00
H304   H     0.44210   0.67261   0.69114   0.00000  Uiso   1.00
H305   H     0.14946   0.36520   0.34769   0.00000  Uiso   1.00
H306   H     0.09192   0.80081   0.11743   0.00000  Uiso   1.00
H307   H     0.30519   0.57522   0.12196   0.00000  Uiso   1.00
H308   H     0.40908   0.60244   0.25915   0.00000  Uiso   1.00
H309   H     0.27030   0.45664   0.09628   0.00000  Uiso   1.00
H310   H     0.24302   0.66322   0.98709   0.00000  Uiso   1.00
H311   H     0.51346   0.63785   0.44809   0.00000  Uiso   1.00
H312   H     0.22081   0.33044   0.10464   0.00000  Uiso   1.00
H313   H     0.16328   0.76605   0.87438   0.00000  Uiso   1.00
O314   O     0.54462   0.67384   0.66499   0.00000  Uiso   1.00
O315   O     0.16068   0.27054   0.21439   0.00000  Uiso   1.00
O316   O     0.08520   0.84205   0.91229   0.00000  Uiso   1.00
N317   N     0.44463   0.66070   0.61510   0.00000  Uiso   1.00
N318   N     0.17104   0.37330   0.29402   0.00000  Uiso   1.00
N319   N     0.11723   0.78054   0.07872   0.00000  Uiso   1.00
N320   N     0.48303   0.64200   0.48432   0.00000  Uiso   1.00
N321   N     0.20943   0.35459   0.16324   0.00000  Uiso   1.00
N322   N     0.15563   0.76184   0.94794   0.00000  Uiso   1.00
C323   C     0.74094   0.10652   0.34081   0.00000  Uiso   1.00
C324   C     0.80646   0.11690   0.38444   0.00000  Uiso   1.00
C325   C     0.84016   0.13602   0.49398   0.00000  Uiso   1.00
C326   C     0.89933   0.14279   0.51706   0.00000  Uiso   1.00
C327   C     0.99734   0.16068   0.59753   0.00000  Uiso   1.00
C328   C     0.73106   0.03768   0.29596   0.00000  Uiso   1.00
C329   C     0.70136   0.99021   0.33109   0.00000  Uiso   1.00
C330   C     0.69706   0.93029   0.27968   0.00000  Uiso   1.00
C331   C     0.67797   0.82521   0.22272   0.00000  Uiso   1.00
C332   C     0.71624   0.14992   0.23663   0.00000  Uiso   1.00
C333   C     0.67407   0.19681   0.22187   0.00000  Uiso   1.00
C334   C     0.65728   0.23139   0.12049   0.00000  Uiso   1.00
C335   C     0.61518   0.30058   0.97143   0.00000  Uiso   1.00
C336   C     0.78609   0.08453   0.18701   0.00000  Uiso   1.00
C337   C     0.83098   0.10494   0.30090   0.00000  Uiso   1.00
C338   C     0.89012   0.11169   0.32381   0.00000  Uiso   1.00
C339   C     0.92390   0.13083   0.43337   0.00000  Uiso   1.00
C340   C     0.75559   0.02573   0.21242   0.00000  Uiso   1.00
C341   C     0.75132   0.96587   0.16093   0.00000  Uiso   1.00
C342   C     0.72163   0.91832   0.19599   0.00000  Uiso   1.00
C343   C     0.74077   0.13797   0.15309   0.00000  Uiso   1.00
C344   C     0.72403   0.17248   0.05171   0.00000  Uiso   1.00
C345   C     0.68185   0.21942   0.03680   0.00000  Uiso   1.00
H346   H     0.72184   0.11582   0.40584   0.00000  Uiso   1.00
H347   H     0.82116   0.14526   0.55861   0.00000  Uiso   1.00
H348   H     0.68238   0.99947   0.39574   0.00000  Uiso   1.00
H349   H     0.65510   0.20605   0.28654   0.00000  Uiso   1.00
H350   H     0.94210   0.17261   0.69114   0.00000  Uiso   1.00
H351   H     0.64946   0.86520   0.34769   0.00000  Uiso   1.00
H352   H     0.59192   0.30081   0.11743   0.00000  Uiso   1.00
H353   H     0.80519   0.07522   0.12196   0.00000  Uiso   1.00
H354   H     0.90908   0.10244   0.25915   0.00000  Uiso   1.00
H355   H     0.77030   0.95664   0.09628   0.00000  Uiso   1.00
H356   H     0.74302   0.16322   0.98709   0.00000  Uiso   1.00
H357   H     0.01346   0.13785   0.44809   0.00000  Uiso   1.00
H358   H     0.72081   0.83044   0.10464   0.00000  Uiso   1.00
H359   H     0.66328   0.26605   0.87438   0.00000  Uiso   1.00
O360   O     0.04462   0.17384   0.66499   0.00000  Uiso   1.00
O361   O     0.66068   0.77054   0.21439   0.00000  Uiso   1.00
O362   O     0.58520   0.34205   0.91229   0.00000  Uiso   1.00
N363   N     0.94463   0.16070   0.61510   0.00000  Uiso   1.00
N364   N     0.67104   0.87330   0.29402   0.00000  Uiso   1.00
N365   N     0.61723   0.28054   0.07872   0.00000  Uiso   1.00
N366   N     0.98303   0.14200   0.48432   0.00000  Uiso   1.00
N367   N     0.70943   0.85459   0.16324   0.00000  Uiso   1.00
N368   N     0.65563   0.26184   0.94794   0.00000  Uiso   1.00
