data_job_05550
_audit_creation_date              2018-12-19
_audit_creation_method            'Materials Studio'
_symmetry_space_group_name_H-M    'P1'
_symmetry_Int_Tables_number       1
_symmetry_cell_setting            triclinic
loop_
_symmetry_equiv_pos_as_xyz
  x,y,z
_cell_length_a                    22.5175
_cell_length_b                    12.4446
_cell_length_c                    30.3806
_cell_angle_alpha                 90.0000
_cell_angle_beta                  90.0000
_cell_angle_gamma                 90.0000
loop_
_atom_site_label
_atom_site_type_symbol
_atom_site_fract_x
_atom_site_fract_y
_atom_site_fract_z
_atom_site_U_iso_or_equiv
_atom_site_adp_type
_atom_site_occupancy
C1     C     0.39135   0.90061   0.38559   0.00000  Uiso   1.00
C2     C     0.35535   0.79741   0.39009   0.00000  Uiso   1.00
C3     C     0.34849   0.73787   0.42838   0.00000  Uiso   1.00
C4     C     0.31380   0.64587   0.42570   0.00000  Uiso   1.00
C5     C     0.26201   0.49033   0.43871   0.00000  Uiso   1.00
C6     C     0.43628   0.87997   0.34900   0.00000  Uiso   1.00
C7     C     0.49747   0.88987   0.35273   0.00000  Uiso   1.00
C8     C     0.53091   0.86738   0.31546   0.00000  Uiso   1.00
C9     C     0.60476   0.84011   0.26466   0.00000  Uiso   1.00
C10    C     0.34857   0.98503   0.36775   0.00000  Uiso   1.00
C11    C     0.33601   0.08329   0.38725   0.00000  Uiso   1.00
C12    C     0.29561   0.14927   0.36576   0.00000  Uiso   1.00
C13    C     0.23328   0.28512   0.34408   0.00000  Uiso   1.00
C14    C     0.34195   0.84308   0.31274   0.00000  Uiso   1.00
C15    C     0.32852   0.76616   0.35052   0.00000  Uiso   1.00
C16    C     0.29384   0.67422   0.34778   0.00000  Uiso   1.00
C17    C     0.28692   0.61456   0.38606   0.00000  Uiso   1.00
C18    C     0.40946   0.84872   0.30943   0.00000  Uiso   1.00
C19    C     0.44281   0.82622   0.27214   0.00000  Uiso   1.00
C20    C     0.50403   0.83608   0.27582   0.00000  Uiso   1.00
C21    C     0.32174   0.95378   0.32818   0.00000  Uiso   1.00
C22    C     0.28136   0.01963   0.30666   0.00000  Uiso   1.00
C23    C     0.26874   0.11796   0.32612   0.00000  Uiso   1.00
H24    H     0.41224   0.92494   0.41639   0.00000  Uiso   1.00
H25    H     0.36927   0.76208   0.45899   0.00000  Uiso   1.00
H26    H     0.51822   0.91407   0.38336   0.00000  Uiso   1.00
H27    H     0.35678   0.10744   0.41787   0.00000  Uiso   1.00
H28    H     0.30980   0.56771   0.48877   0.00000  Uiso   1.00
H29    H     0.62387   0.88822   0.32929   0.00000  Uiso   1.00
H30    H     0.28346   0.29600   0.40206   0.00000  Uiso   1.00
H31    H     0.32106   0.81875   0.28193   0.00000  Uiso   1.00
H32    H     0.27308   0.65005   0.31716   0.00000  Uiso   1.00
H33    H     0.42204   0.80204   0.24153   0.00000  Uiso   1.00
H34    H     0.26060   0.99542   0.27604   0.00000  Uiso   1.00
H35    H     0.23174   0.47678   0.37366   0.00000  Uiso   1.00
H36    H     0.54581   0.79730   0.21417   0.00000  Uiso   1.00
H37    H     0.20540   0.20507   0.28695   0.00000  Uiso   1.00
O38    O     0.24087   0.41317   0.45681   0.00000  Uiso   1.00
O39    O     0.65292   0.83369   0.24757   0.00000  Uiso   1.00
O40    O     0.20630   0.36868   0.34305   0.00000  Uiso   1.00
N41    N     0.29800   0.56947   0.45685   0.00000  Uiso   1.00
N42    N     0.59165   0.86912   0.30774   0.00000  Uiso   1.00
N43    N     0.27340   0.25037   0.37578   0.00000  Uiso   1.00
N44    N     0.25600   0.52055   0.39490   0.00000  Uiso   1.00
N45    N     0.54964   0.82019   0.24580   0.00000  Uiso   1.00
N46    N     0.23139   0.20144   0.31383   0.00000  Uiso   1.00
C47    C     0.67146   0.94063   0.61297   0.00000  Uiso   1.00
C48    C     0.70655   0.83632   0.60881   0.00000  Uiso   1.00
C49    C     0.71297   0.77594   0.57071   0.00000  Uiso   1.00
C50    C     0.74683   0.68298   0.57370   0.00000  Uiso   1.00
C51    C     0.79726   0.52575   0.56121   0.00000  Uiso   1.00
C52    C     0.62627   0.92193   0.64957   0.00000  Uiso   1.00
C53    C     0.56519   0.93354   0.64572   0.00000  Uiso   1.00
C54    C     0.53147   0.91266   0.68302   0.00000  Uiso   1.00
C55    C     0.45728   0.88842   0.73380   0.00000  Uiso   1.00
C56    C     0.71494   0.02411   0.63062   0.00000  Uiso   1.00
C57    C     0.72841   0.12165   0.61085   0.00000  Uiso   1.00
C58    C     0.76934   0.18682   0.63220   0.00000  Uiso   1.00
C59    C     0.83282   0.32123   0.65356   0.00000  Uiso   1.00
C60    C     0.72018   0.88295   0.68605   0.00000  Uiso   1.00
C61    C     0.73301   0.80499   0.64851   0.00000  Uiso   1.00
C62    C     0.76688   0.71211   0.65155   0.00000  Uiso   1.00
C63    C     0.77334   0.65159   0.61346   0.00000  Uiso   1.00
C64    C     0.65273   0.89060   0.68925   0.00000  Uiso   1.00
C65    C     0.61910   0.86971   0.72657   0.00000  Uiso   1.00
C66    C     0.55798   0.88127   0.72278   0.00000  Uiso   1.00
C67    C     0.74141   0.99278   0.67031   0.00000  Uiso   1.00
C68    C     0.78232   0.05782   0.69169   0.00000  Uiso   1.00
C69    C     0.79585   0.15543   0.67196   0.00000  Uiso   1.00
H70    H     0.65085   0.96503   0.58207   0.00000  Uiso   1.00
H71    H     0.69247   0.80021   0.54000   0.00000  Uiso   1.00
H72    H     0.54472   0.95780   0.61500   0.00000  Uiso   1.00
H73    H     0.70792   0.14587   0.58013   0.00000  Uiso   1.00
H74    H     0.75027   0.60363   0.51086   0.00000  Uiso   1.00
H75    H     0.43873   0.93595   0.66901   0.00000  Uiso   1.00
H76    H     0.78286   0.33255   0.59548   0.00000  Uiso   1.00
H77    H     0.74079   0.85855   0.71695   0.00000  Uiso   1.00
H78    H     0.78735   0.68788   0.68227   0.00000  Uiso   1.00
H79    H     0.63959   0.84547   0.75728   0.00000  Uiso   1.00
H80    H     0.80279   0.03354   0.72241   0.00000  Uiso   1.00
H81    H     0.82728   0.51246   0.62634   0.00000  Uiso   1.00
H82    H     0.51573   0.84478   0.78449   0.00000  Uiso   1.00
H83    H     0.85987   0.24138   0.71096   0.00000  Uiso   1.00
O84    O     0.81776   0.44767   0.54336   0.00000  Uiso   1.00
O85    O     0.40904   0.88369   0.75085   0.00000  Uiso   1.00
O86    O     0.86053   0.40401   0.65438   0.00000  Uiso   1.00
N87    N     0.76202   0.60561   0.54279   0.00000  Uiso   1.00
N88    N     0.47074   0.91629   0.69065   0.00000  Uiso   1.00
N89    N     0.79246   0.28709   0.62192   0.00000  Uiso   1.00
N90    N     0.80345   0.55655   0.60493   0.00000  Uiso   1.00
N91    N     0.51218   0.86723   0.75279   0.00000  Uiso   1.00
N92    N     0.83390   0.23803   0.68405   0.00000  Uiso   1.00
C93    C     0.60865   0.09939   0.88559   0.00000  Uiso   1.00
C94    C     0.64465   0.20259   0.89009   0.00000  Uiso   1.00
C95    C     0.65151   0.26213   0.92838   0.00000  Uiso   1.00
C96    C     0.68620   0.35413   0.92570   0.00000  Uiso   1.00
C97    C     0.73799   0.50967   0.93871   0.00000  Uiso   1.00
C98    C     0.56372   0.12003   0.84900   0.00000  Uiso   1.00
C99    C     0.50253   0.11013   0.85273   0.00000  Uiso   1.00
C100   C     0.46909   0.13262   0.81546   0.00000  Uiso   1.00
C101   C     0.39524   0.15989   0.76466   0.00000  Uiso   1.00
C102   C     0.65143   0.01497   0.86775   0.00000  Uiso   1.00
C103   C     0.66399   0.91671   0.88725   0.00000  Uiso   1.00
C104   C     0.70439   0.85073   0.86576   0.00000  Uiso   1.00
C105   C     0.76672   0.71488   0.84408   0.00000  Uiso   1.00
C106   C     0.65805   0.15692   0.81274   0.00000  Uiso   1.00
C107   C     0.67148   0.23384   0.85052   0.00000  Uiso   1.00
C108   C     0.70616   0.32578   0.84778   0.00000  Uiso   1.00
C109   C     0.71308   0.38544   0.88606   0.00000  Uiso   1.00
C110   C     0.59054   0.15128   0.80943   0.00000  Uiso   1.00
C111   C     0.55719   0.17378   0.77214   0.00000  Uiso   1.00
C112   C     0.49597   0.16392   0.77582   0.00000  Uiso   1.00
C113   C     0.67826   0.04622   0.82818   0.00000  Uiso   1.00
C114   C     0.71864   0.98037   0.80666   0.00000  Uiso   1.00
C115   C     0.73126   0.88204   0.82612   0.00000  Uiso   1.00
H116   H     0.58776   0.07506   0.91639   0.00000  Uiso   1.00
H117   H     0.63073   0.23792   0.95899   0.00000  Uiso   1.00
H118   H     0.48178   0.08593   0.88336   0.00000  Uiso   1.00
H119   H     0.64322   0.89256   0.91787   0.00000  Uiso   1.00
H120   H     0.69020   0.43229   0.98877   0.00000  Uiso   1.00
H121   H     0.37613   0.11178   0.82929   0.00000  Uiso   1.00
H122   H     0.71654   0.70400   0.90206   0.00000  Uiso   1.00
H123   H     0.67894   0.18125   0.78193   0.00000  Uiso   1.00
H124   H     0.72692   0.34995   0.81716   0.00000  Uiso   1.00
H125   H     0.57796   0.19796   0.74153   0.00000  Uiso   1.00
H126   H     0.73940   0.00458   0.77604   0.00000  Uiso   1.00
H127   H     0.76826   0.52322   0.87366   0.00000  Uiso   1.00
H128   H     0.45419   0.20270   0.71417   0.00000  Uiso   1.00
H129   H     0.79460   0.79493   0.78695   0.00000  Uiso   1.00
O130   O     0.75913   0.58683   0.95681   0.00000  Uiso   1.00
O131   O     0.34708   0.16631   0.74757   0.00000  Uiso   1.00
O132   O     0.79370   0.63132   0.84305   0.00000  Uiso   1.00
N133   N     0.70200   0.43053   0.95685   0.00000  Uiso   1.00
N134   N     0.40835   0.13088   0.80774   0.00000  Uiso   1.00
N135   N     0.72660   0.74963   0.87578   0.00000  Uiso   1.00
N136   N     0.74400   0.47945   0.89490   0.00000  Uiso   1.00
N137   N     0.45036   0.17981   0.74580   0.00000  Uiso   1.00
N138   N     0.76861   0.79856   0.81383   0.00000  Uiso   1.00
C139   C     0.32854   0.05937   0.11297   0.00000  Uiso   1.00
C140   C     0.29345   0.16368   0.10881   0.00000  Uiso   1.00
C141   C     0.28703   0.22406   0.07071   0.00000  Uiso   1.00
C142   C     0.25317   0.31702   0.07370   0.00000  Uiso   1.00
C143   C     0.20274   0.47425   0.06121   0.00000  Uiso   1.00
C144   C     0.37373   0.07807   0.14957   0.00000  Uiso   1.00
C145   C     0.43481   0.06646   0.14572   0.00000  Uiso   1.00
C146   C     0.46853   0.08734   0.18302   0.00000  Uiso   1.00
C147   C     0.54272   0.11158   0.23380   0.00000  Uiso   1.00
C148   C     0.28506   0.97589   0.13062   0.00000  Uiso   1.00
C149   C     0.27159   0.87835   0.11085   0.00000  Uiso   1.00
C150   C     0.23066   0.81318   0.13220   0.00000  Uiso   1.00
C151   C     0.16718   0.67877   0.15356   0.00000  Uiso   1.00
C152   C     0.27982   0.11705   0.18605   0.00000  Uiso   1.00
C153   C     0.26699   0.19501   0.14851   0.00000  Uiso   1.00
C154   C     0.23312   0.28789   0.15155   0.00000  Uiso   1.00
C155   C     0.22666   0.34841   0.11346   0.00000  Uiso   1.00
C156   C     0.34727   0.10940   0.18925   0.00000  Uiso   1.00
C157   C     0.38090   0.13029   0.22657   0.00000  Uiso   1.00
C158   C     0.44202   0.11873   0.22278   0.00000  Uiso   1.00
C159   C     0.25859   0.00722   0.17031   0.00000  Uiso   1.00
C160   C     0.21768   0.94218   0.19169   0.00000  Uiso   1.00
C161   C     0.20415   0.84457   0.17196   0.00000  Uiso   1.00
H162   H     0.34915   0.03497   0.08207   0.00000  Uiso   1.00
H163   H     0.30753   0.19979   0.04000   0.00000  Uiso   1.00
H164   H     0.45528   0.04220   0.11500   0.00000  Uiso   1.00
H165   H     0.29208   0.85413   0.08013   0.00000  Uiso   1.00
H166   H     0.24973   0.39637   0.01086   0.00000  Uiso   1.00
H167   H     0.56127   0.06405   0.16901   0.00000  Uiso   1.00
H168   H     0.21714   0.66745   0.09548   0.00000  Uiso   1.00
H169   H     0.25921   0.14145   0.21695   0.00000  Uiso   1.00
H170   H     0.21265   0.31212   0.18227   0.00000  Uiso   1.00
H171   H     0.36041   0.15453   0.25728   0.00000  Uiso   1.00
H172   H     0.19721   0.96646   0.22241   0.00000  Uiso   1.00
H173   H     0.17272   0.48754   0.12634   0.00000  Uiso   1.00
H174   H     0.48427   0.15522   0.28449   0.00000  Uiso   1.00
H175   H     0.14013   0.75862   0.21096   0.00000  Uiso   1.00
O176   O     0.18224   0.55233   0.04336   0.00000  Uiso   1.00
O177   O     0.59096   0.11631   0.25085   0.00000  Uiso   1.00
O178   O     0.13947   0.59599   0.15438   0.00000  Uiso   1.00
N179   N     0.23798   0.39439   0.04279   0.00000  Uiso   1.00
N180   N     0.52926   0.08371   0.19065   0.00000  Uiso   1.00
N181   N     0.20754   0.71291   0.12192   0.00000  Uiso   1.00
N182   N     0.19655   0.44345   0.10493   0.00000  Uiso   1.00
N183   N     0.48782   0.13277   0.25279   0.00000  Uiso   1.00
N184   N     0.16610   0.76197   0.18405   0.00000  Uiso   1.00
C185   C     0.89135   0.09939   0.38559   0.00000  Uiso   1.00
C186   C     0.85535   0.20259   0.39009   0.00000  Uiso   1.00
C187   C     0.84849   0.26213   0.42838   0.00000  Uiso   1.00
C188   C     0.81380   0.35413   0.42570   0.00000  Uiso   1.00
C189   C     0.76201   0.50967   0.43871   0.00000  Uiso   1.00
C190   C     0.93628   0.12003   0.34900   0.00000  Uiso   1.00
C191   C     0.99747   0.11013   0.35273   0.00000  Uiso   1.00
C192   C     0.03091   0.13262   0.31546   0.00000  Uiso   1.00
C193   C     0.10476   0.15989   0.26466   0.00000  Uiso   1.00
C194   C     0.84857   0.01497   0.36775   0.00000  Uiso   1.00
C195   C     0.83601   0.91671   0.38725   0.00000  Uiso   1.00
C196   C     0.79561   0.85073   0.36576   0.00000  Uiso   1.00
C197   C     0.73328   0.71488   0.34408   0.00000  Uiso   1.00
C198   C     0.84195   0.15692   0.31274   0.00000  Uiso   1.00
C199   C     0.82852   0.23384   0.35052   0.00000  Uiso   1.00
C200   C     0.79384   0.32578   0.34778   0.00000  Uiso   1.00
C201   C     0.78692   0.38544   0.38606   0.00000  Uiso   1.00
C202   C     0.90946   0.15128   0.30943   0.00000  Uiso   1.00
C203   C     0.94281   0.17378   0.27214   0.00000  Uiso   1.00
C204   C     0.00403   0.16392   0.27582   0.00000  Uiso   1.00
C205   C     0.82174   0.04622   0.32818   0.00000  Uiso   1.00
C206   C     0.78136   0.98037   0.30666   0.00000  Uiso   1.00
C207   C     0.76874   0.88204   0.32612   0.00000  Uiso   1.00
H208   H     0.91224   0.07506   0.41639   0.00000  Uiso   1.00
H209   H     0.86927   0.23792   0.45899   0.00000  Uiso   1.00
H210   H     0.01822   0.08593   0.38336   0.00000  Uiso   1.00
H211   H     0.85678   0.89256   0.41787   0.00000  Uiso   1.00
H212   H     0.80980   0.43229   0.48877   0.00000  Uiso   1.00
H213   H     0.12387   0.11178   0.32929   0.00000  Uiso   1.00
H214   H     0.78346   0.70400   0.40206   0.00000  Uiso   1.00
H215   H     0.82106   0.18125   0.28193   0.00000  Uiso   1.00
H216   H     0.77308   0.34995   0.31716   0.00000  Uiso   1.00
H217   H     0.92204   0.19796   0.24153   0.00000  Uiso   1.00
H218   H     0.76060   0.00458   0.27604   0.00000  Uiso   1.00
H219   H     0.73174   0.52322   0.37366   0.00000  Uiso   1.00
H220   H     0.04581   0.20270   0.21417   0.00000  Uiso   1.00
H221   H     0.70540   0.79493   0.28695   0.00000  Uiso   1.00
O222   O     0.74087   0.58683   0.45681   0.00000  Uiso   1.00
O223   O     0.15292   0.16631   0.24757   0.00000  Uiso   1.00
O224   O     0.70630   0.63132   0.34305   0.00000  Uiso   1.00
N225   N     0.79800   0.43053   0.45685   0.00000  Uiso   1.00
N226   N     0.09165   0.13088   0.30774   0.00000  Uiso   1.00
N227   N     0.77340   0.74963   0.37578   0.00000  Uiso   1.00
N228   N     0.75600   0.47945   0.39490   0.00000  Uiso   1.00
N229   N     0.04964   0.17981   0.24580   0.00000  Uiso   1.00
N230   N     0.73139   0.79856   0.31383   0.00000  Uiso   1.00
C231   C     0.17146   0.05937   0.61297   0.00000  Uiso   1.00
C232   C     0.20655   0.16368   0.60881   0.00000  Uiso   1.00
C233   C     0.21297   0.22406   0.57071   0.00000  Uiso   1.00
C234   C     0.24683   0.31702   0.57370   0.00000  Uiso   1.00
C235   C     0.29726   0.47425   0.56121   0.00000  Uiso   1.00
C236   C     0.12627   0.07807   0.64957   0.00000  Uiso   1.00
C237   C     0.06519   0.06646   0.64572   0.00000  Uiso   1.00
C238   C     0.03147   0.08734   0.68302   0.00000  Uiso   1.00
C239   C     0.95728   0.11158   0.73380   0.00000  Uiso   1.00
C240   C     0.21494   0.97589   0.63062   0.00000  Uiso   1.00
C241   C     0.22841   0.87835   0.61085   0.00000  Uiso   1.00
C242   C     0.26934   0.81318   0.63220   0.00000  Uiso   1.00
C243   C     0.33282   0.67877   0.65356   0.00000  Uiso   1.00
C244   C     0.22018   0.11705   0.68605   0.00000  Uiso   1.00
C245   C     0.23301   0.19501   0.64851   0.00000  Uiso   1.00
C246   C     0.26688   0.28789   0.65155   0.00000  Uiso   1.00
C247   C     0.27334   0.34841   0.61346   0.00000  Uiso   1.00
C248   C     0.15273   0.10940   0.68925   0.00000  Uiso   1.00
C249   C     0.11910   0.13029   0.72657   0.00000  Uiso   1.00
C250   C     0.05798   0.11873   0.72278   0.00000  Uiso   1.00
C251   C     0.24141   0.00722   0.67031   0.00000  Uiso   1.00
C252   C     0.28232   0.94218   0.69169   0.00000  Uiso   1.00
C253   C     0.29585   0.84457   0.67196   0.00000  Uiso   1.00
H254   H     0.15085   0.03497   0.58207   0.00000  Uiso   1.00
H255   H     0.19247   0.19979   0.54000   0.00000  Uiso   1.00
H256   H     0.04472   0.04220   0.61500   0.00000  Uiso   1.00
H257   H     0.20792   0.85413   0.58013   0.00000  Uiso   1.00
H258   H     0.25027   0.39637   0.51086   0.00000  Uiso   1.00
H259   H     0.93873   0.06405   0.66901   0.00000  Uiso   1.00
H260   H     0.28286   0.66745   0.59548   0.00000  Uiso   1.00
H261   H     0.24079   0.14145   0.71695   0.00000  Uiso   1.00
H262   H     0.28735   0.31212   0.68227   0.00000  Uiso   1.00
H263   H     0.13959   0.15453   0.75728   0.00000  Uiso   1.00
H264   H     0.30279   0.96646   0.72241   0.00000  Uiso   1.00
H265   H     0.32728   0.48754   0.62634   0.00000  Uiso   1.00
H266   H     0.01573   0.15522   0.78449   0.00000  Uiso   1.00
H267   H     0.35987   0.75862   0.71096   0.00000  Uiso   1.00
O268   O     0.31776   0.55233   0.54336   0.00000  Uiso   1.00
O269   O     0.90904   0.11631   0.75085   0.00000  Uiso   1.00
O270   O     0.36053   0.59599   0.65438   0.00000  Uiso   1.00
N271   N     0.26202   0.39439   0.54279   0.00000  Uiso   1.00
N272   N     0.97074   0.08371   0.69065   0.00000  Uiso   1.00
N273   N     0.29246   0.71291   0.62192   0.00000  Uiso   1.00
N274   N     0.30345   0.44345   0.60493   0.00000  Uiso   1.00
N275   N     0.01218   0.13277   0.75279   0.00000  Uiso   1.00
N276   N     0.33390   0.76197   0.68405   0.00000  Uiso   1.00
C277   C     0.10865   0.90061   0.88559   0.00000  Uiso   1.00
C278   C     0.14465   0.79741   0.89009   0.00000  Uiso   1.00
C279   C     0.15151   0.73787   0.92838   0.00000  Uiso   1.00
C280   C     0.18620   0.64587   0.92570   0.00000  Uiso   1.00
C281   C     0.23799   0.49033   0.93871   0.00000  Uiso   1.00
C282   C     0.06372   0.87997   0.84900   0.00000  Uiso   1.00
C283   C     0.00253   0.88987   0.85273   0.00000  Uiso   1.00
C284   C     0.96909   0.86738   0.81546   0.00000  Uiso   1.00
C285   C     0.89524   0.84011   0.76466   0.00000  Uiso   1.00
C286   C     0.15143   0.98503   0.86775   0.00000  Uiso   1.00
C287   C     0.16399   0.08329   0.88725   0.00000  Uiso   1.00
C288   C     0.20439   0.14927   0.86576   0.00000  Uiso   1.00
C289   C     0.26672   0.28512   0.84408   0.00000  Uiso   1.00
C290   C     0.15805   0.84308   0.81274   0.00000  Uiso   1.00
C291   C     0.17148   0.76616   0.85052   0.00000  Uiso   1.00
C292   C     0.20616   0.67422   0.84778   0.00000  Uiso   1.00
C293   C     0.21308   0.61456   0.88606   0.00000  Uiso   1.00
C294   C     0.09054   0.84872   0.80943   0.00000  Uiso   1.00
C295   C     0.05719   0.82622   0.77214   0.00000  Uiso   1.00
C296   C     0.99597   0.83608   0.77582   0.00000  Uiso   1.00
C297   C     0.17826   0.95378   0.82818   0.00000  Uiso   1.00
C298   C     0.21864   0.01963   0.80666   0.00000  Uiso   1.00
C299   C     0.23126   0.11796   0.82612   0.00000  Uiso   1.00
H300   H     0.08776   0.92494   0.91639   0.00000  Uiso   1.00
H301   H     0.13073   0.76208   0.95899   0.00000  Uiso   1.00
H302   H     0.98178   0.91407   0.88336   0.00000  Uiso   1.00
H303   H     0.14322   0.10744   0.91787   0.00000  Uiso   1.00
H304   H     0.19020   0.56771   0.98877   0.00000  Uiso   1.00
H305   H     0.87613   0.88822   0.82929   0.00000  Uiso   1.00
H306   H     0.21654   0.29600   0.90206   0.00000  Uiso   1.00
H307   H     0.17894   0.81875   0.78193   0.00000  Uiso   1.00
H308   H     0.22692   0.65005   0.81716   0.00000  Uiso   1.00
H309   H     0.07796   0.80204   0.74153   0.00000  Uiso   1.00
H310   H     0.23940   0.99542   0.77604   0.00000  Uiso   1.00
H311   H     0.26826   0.47678   0.87366   0.00000  Uiso   1.00
H312   H     0.95419   0.79730   0.71417   0.00000  Uiso   1.00
H313   H     0.29460   0.20507   0.78695   0.00000  Uiso   1.00
O314   O     0.25913   0.41317   0.95681   0.00000  Uiso   1.00
O315   O     0.84708   0.83369   0.74757   0.00000  Uiso   1.00
O316   O     0.29370   0.36868   0.84305   0.00000  Uiso   1.00
N317   N     0.20200   0.56947   0.95685   0.00000  Uiso   1.00
N318   N     0.90835   0.86912   0.80774   0.00000  Uiso   1.00
N319   N     0.22660   0.25037   0.87578   0.00000  Uiso   1.00
N320   N     0.24400   0.52055   0.89490   0.00000  Uiso   1.00
N321   N     0.95036   0.82019   0.74580   0.00000  Uiso   1.00
N322   N     0.26861   0.20144   0.81383   0.00000  Uiso   1.00
C323   C     0.82854   0.94063   0.11297   0.00000  Uiso   1.00
C324   C     0.79345   0.83632   0.10881   0.00000  Uiso   1.00
C325   C     0.78703   0.77594   0.07071   0.00000  Uiso   1.00
C326   C     0.75317   0.68298   0.07370   0.00000  Uiso   1.00
C327   C     0.70274   0.52575   0.06121   0.00000  Uiso   1.00
C328   C     0.87373   0.92193   0.14957   0.00000  Uiso   1.00
C329   C     0.93481   0.93354   0.14572   0.00000  Uiso   1.00
C330   C     0.96853   0.91266   0.18302   0.00000  Uiso   1.00
C331   C     0.04272   0.88842   0.23380   0.00000  Uiso   1.00
C332   C     0.78506   0.02411   0.13062   0.00000  Uiso   1.00
C333   C     0.77159   0.12165   0.11085   0.00000  Uiso   1.00
C334   C     0.73066   0.18682   0.13220   0.00000  Uiso   1.00
C335   C     0.66718   0.32123   0.15356   0.00000  Uiso   1.00
C336   C     0.77982   0.88295   0.18605   0.00000  Uiso   1.00
C337   C     0.76699   0.80499   0.14851   0.00000  Uiso   1.00
C338   C     0.73312   0.71211   0.15155   0.00000  Uiso   1.00
C339   C     0.72666   0.65159   0.11346   0.00000  Uiso   1.00
C340   C     0.84727   0.89060   0.18925   0.00000  Uiso   1.00
C341   C     0.88090   0.86971   0.22657   0.00000  Uiso   1.00
C342   C     0.94202   0.88127   0.22278   0.00000  Uiso   1.00
C343   C     0.75859   0.99278   0.17031   0.00000  Uiso   1.00
C344   C     0.71768   0.05782   0.19169   0.00000  Uiso   1.00
C345   C     0.70415   0.15543   0.17196   0.00000  Uiso   1.00
H346   H     0.84915   0.96503   0.08207   0.00000  Uiso   1.00
H347   H     0.80753   0.80021   0.04000   0.00000  Uiso   1.00
H348   H     0.95528   0.95780   0.11500   0.00000  Uiso   1.00
H349   H     0.79208   0.14587   0.08013   0.00000  Uiso   1.00
H350   H     0.74973   0.60363   0.01086   0.00000  Uiso   1.00
H351   H     0.06127   0.93595   0.16901   0.00000  Uiso   1.00
H352   H     0.71714   0.33255   0.09548   0.00000  Uiso   1.00
H353   H     0.75921   0.85855   0.21695   0.00000  Uiso   1.00
H354   H     0.71265   0.68788   0.18227   0.00000  Uiso   1.00
H355   H     0.86041   0.84547   0.25728   0.00000  Uiso   1.00
H356   H     0.69721   0.03354   0.22241   0.00000  Uiso   1.00
H357   H     0.67272   0.51246   0.12634   0.00000  Uiso   1.00
H358   H     0.98427   0.84478   0.28449   0.00000  Uiso   1.00
H359   H     0.64013   0.24138   0.21096   0.00000  Uiso   1.00
O360   O     0.68224   0.44767   0.04336   0.00000  Uiso   1.00
O361   O     0.09096   0.88369   0.25085   0.00000  Uiso   1.00
O362   O     0.63947   0.40401   0.15438   0.00000  Uiso   1.00
N363   N     0.73798   0.60561   0.04279   0.00000  Uiso   1.00
N364   N     0.02926   0.91629   0.19065   0.00000  Uiso   1.00
N365   N     0.70754   0.28709   0.12192   0.00000  Uiso   1.00
N366   N     0.69655   0.55655   0.10493   0.00000  Uiso   1.00
N367   N     0.98782   0.86723   0.25279   0.00000  Uiso   1.00
N368   N     0.66610   0.23803   0.18405   0.00000  Uiso   1.00
