data_job_02590
_audit_creation_date              2018-12-19
_audit_creation_method            'Materials Studio'
_symmetry_space_group_name_H-M    'P1'
_symmetry_Int_Tables_number       1
_symmetry_cell_setting            triclinic
loop_
_symmetry_equiv_pos_as_xyz
  x,y,z
_cell_length_a                    20.3660
_cell_length_b                    20.3660
_cell_length_c                    11.7486
_cell_angle_alpha                 90.0000
_cell_angle_beta                  90.0000
_cell_angle_gamma                 90.0000
loop_
_atom_site_label
_atom_site_type_symbol
_atom_site_fract_x
_atom_site_fract_y
_atom_site_fract_z
_atom_site_U_iso_or_equiv
_atom_site_adp_type
_atom_site_occupancy
C1     C     0.79181   0.06344   0.76891   0.00000  Uiso   1.00
C2     C     0.76832   0.07199   0.64657   0.00000  Uiso   1.00
C3     C     0.78019   0.12615   0.57791   0.00000  Uiso   1.00
C4     C     0.75447   0.12455   0.46850   0.00000  Uiso   1.00
C5     C     0.72348   0.14604   0.28451   0.00000  Uiso   1.00
C6     C     0.73036   0.05073   0.83973   0.00000  Uiso   1.00
C7     C     0.71033   0.08701   0.93350   0.00000  Uiso   1.00
C8     C     0.65266   0.06751   0.98671   0.00000  Uiso   1.00
C9     C     0.56277   0.05596   0.10266   0.00000  Uiso   1.00
C10    C     0.83099   0.99964   0.77096   0.00000  Uiso   1.00
C11    C     0.89555   0.99296   0.80693   0.00000  Uiso   1.00
C12    C     0.92260   0.93044   0.80225   0.00000  Uiso   1.00
C13    C     0.98895   0.83957   0.81143   0.00000  Uiso   1.00
C14    C     0.72504   0.96428   0.69670   0.00000  Uiso   1.00
C15    C     0.73205   0.01813   0.60735   0.00000  Uiso   1.00
C16    C     0.70631   0.01644   0.49801   0.00000  Uiso   1.00
C17    C     0.71814   0.07060   0.42920   0.00000  Uiso   1.00
C18    C     0.69410   0.99687   0.80051   0.00000  Uiso   1.00
C19    C     0.63645   0.97731   0.85360   0.00000  Uiso   1.00
C20    C     0.61633   0.01355   0.94741   0.00000  Uiso   1.00
C21    C     0.79472   0.94578   0.73173   0.00000  Uiso   1.00
C22    C     0.82167   0.88325   0.72702   0.00000  Uiso   1.00
C23    C     0.88627   0.87648   0.76296   0.00000  Uiso   1.00
H24    H     0.82005   0.10537   0.79946   0.00000  Uiso   1.00
H25    H     0.80826   0.16783   0.60830   0.00000  Uiso   1.00
H26    H     0.73841   0.12869   0.96384   0.00000  Uiso   1.00
H27    H     0.92360   0.03465   0.83727   0.00000  Uiso   1.00
H28    H     0.77917   0.21333   0.37908   0.00000  Uiso   1.00
H29    H     0.63190   0.13079   0.12878   0.00000  Uiso   1.00
H30    H     0.02242   0.93250   0.86190   0.00000  Uiso   1.00
H31    H     0.69680   0.92234   0.66616   0.00000  Uiso   1.00
H32    H     0.67825   0.97476   0.46768   0.00000  Uiso   1.00
H33    H     0.60840   0.93562   0.82322   0.00000  Uiso   1.00
H34    H     0.79359   0.84159   0.69666   0.00000  Uiso   1.00
H35    H     0.67364   0.05663   0.26495   0.00000  Uiso   1.00
H36    H     0.52638   0.97409   0.01465   0.00000  Uiso   1.00
H37    H     0.91690   0.77580   0.74777   0.00000  Uiso   1.00
O38    O     0.71640   0.17278   0.19387   0.00000  Uiso   1.00
O39    O     0.52321   0.06448   0.17745   0.00000  Uiso   1.00
O40    O     0.03556   0.80433   0.82731   0.00000  Uiso   1.00
N41    N     0.75689   0.16926   0.37945   0.00000  Uiso   1.00
N42    N     0.61920   0.09209   0.08036   0.00000  Uiso   1.00
N43    N     0.98430   0.90670   0.83088   0.00000  Uiso   1.00
N44    N     0.70011   0.08494   0.31804   0.00000  Uiso   1.00
N45    N     0.56242   0.00777   0.01895   0.00000  Uiso   1.00
N46    N     0.92752   0.82238   0.76947   0.00000  Uiso   1.00
C47    C     0.20819   0.93656   0.26891   0.00000  Uiso   1.00
C48    C     0.23168   0.92801   0.14657   0.00000  Uiso   1.00
C49    C     0.21981   0.87385   0.07791   0.00000  Uiso   1.00
C50    C     0.24553   0.87545   0.96850   0.00000  Uiso   1.00
C51    C     0.27652   0.85396   0.78451   0.00000  Uiso   1.00
C52    C     0.26964   0.94927   0.33973   0.00000  Uiso   1.00
C53    C     0.28967   0.91299   0.43350   0.00000  Uiso   1.00
C54    C     0.34734   0.93249   0.48671   0.00000  Uiso   1.00
C55    C     0.43723   0.94404   0.60266   0.00000  Uiso   1.00
C56    C     0.16901   0.00036   0.27096   0.00000  Uiso   1.00
C57    C     0.10445   0.00704   0.30693   0.00000  Uiso   1.00
C58    C     0.07740   0.06956   0.30225   0.00000  Uiso   1.00
C59    C     0.01105   0.16043   0.31143   0.00000  Uiso   1.00
C60    C     0.27496   0.03572   0.19670   0.00000  Uiso   1.00
C61    C     0.26795   0.98187   0.10735   0.00000  Uiso   1.00
C62    C     0.29369   0.98356   0.99801   0.00000  Uiso   1.00
C63    C     0.28186   0.92940   0.92920   0.00000  Uiso   1.00
C64    C     0.30590   0.00313   0.30051   0.00000  Uiso   1.00
C65    C     0.36355   0.02269   0.35360   0.00000  Uiso   1.00
C66    C     0.38367   0.98645   0.44741   0.00000  Uiso   1.00
C67    C     0.20528   0.05422   0.23173   0.00000  Uiso   1.00
C68    C     0.17833   0.11675   0.22702   0.00000  Uiso   1.00
C69    C     0.11373   0.12352   0.26296   0.00000  Uiso   1.00
H70    H     0.17995   0.89463   0.29946   0.00000  Uiso   1.00
H71    H     0.19174   0.83217   0.10830   0.00000  Uiso   1.00
H72    H     0.26159   0.87131   0.46384   0.00000  Uiso   1.00
H73    H     0.07640   0.96535   0.33727   0.00000  Uiso   1.00
H74    H     0.22083   0.78667   0.87908   0.00000  Uiso   1.00
H75    H     0.36810   0.86921   0.62878   0.00000  Uiso   1.00
H76    H     0.97758   0.06750   0.36190   0.00000  Uiso   1.00
H77    H     0.30320   0.07766   0.16616   0.00000  Uiso   1.00
H78    H     0.32175   0.02524   0.96768   0.00000  Uiso   1.00
H79    H     0.39160   0.06438   0.32322   0.00000  Uiso   1.00
H80    H     0.20641   0.15841   0.19666   0.00000  Uiso   1.00
H81    H     0.32636   0.94337   0.76495   0.00000  Uiso   1.00
H82    H     0.47362   0.02591   0.51465   0.00000  Uiso   1.00
H83    H     0.08310   0.22420   0.24777   0.00000  Uiso   1.00
O84    O     0.28360   0.82722   0.69387   0.00000  Uiso   1.00
O85    O     0.47679   0.93552   0.67745   0.00000  Uiso   1.00
O86    O     0.96444   0.19567   0.32731   0.00000  Uiso   1.00
N87    N     0.24311   0.83074   0.87945   0.00000  Uiso   1.00
N88    N     0.38080   0.90791   0.58036   0.00000  Uiso   1.00
N89    N     0.01570   0.09330   0.33088   0.00000  Uiso   1.00
N90    N     0.29989   0.91506   0.81804   0.00000  Uiso   1.00
N91    N     0.43758   0.99223   0.51895   0.00000  Uiso   1.00
N92    N     0.07248   0.17762   0.26947   0.00000  Uiso   1.00
C93    C     0.43656   0.29181   0.51891   0.00000  Uiso   1.00
C94    C     0.42801   0.26832   0.39657   0.00000  Uiso   1.00
C95    C     0.37385   0.28019   0.32791   0.00000  Uiso   1.00
C96    C     0.37545   0.25447   0.21850   0.00000  Uiso   1.00
C97    C     0.35396   0.22348   0.03451   0.00000  Uiso   1.00
C98    C     0.44927   0.23036   0.58973   0.00000  Uiso   1.00
C99    C     0.41299   0.21033   0.68350   0.00000  Uiso   1.00
C100   C     0.43249   0.15266   0.73671   0.00000  Uiso   1.00
C101   C     0.44404   0.06277   0.85266   0.00000  Uiso   1.00
C102   C     0.50036   0.33099   0.52096   0.00000  Uiso   1.00
C103   C     0.50704   0.39555   0.55693   0.00000  Uiso   1.00
C104   C     0.56956   0.42260   0.55225   0.00000  Uiso   1.00
C105   C     0.66043   0.48895   0.56143   0.00000  Uiso   1.00
C106   C     0.53572   0.22504   0.44670   0.00000  Uiso   1.00
C107   C     0.48187   0.23205   0.35735   0.00000  Uiso   1.00
C108   C     0.48356   0.20631   0.24801   0.00000  Uiso   1.00
C109   C     0.42940   0.21814   0.17920   0.00000  Uiso   1.00
C110   C     0.50313   0.19410   0.55051   0.00000  Uiso   1.00
C111   C     0.52269   0.13645   0.60360   0.00000  Uiso   1.00
C112   C     0.48645   0.11633   0.69741   0.00000  Uiso   1.00
C113   C     0.55422   0.29472   0.48173   0.00000  Uiso   1.00
C114   C     0.61675   0.32167   0.47702   0.00000  Uiso   1.00
C115   C     0.62352   0.38627   0.51296   0.00000  Uiso   1.00
H116   H     0.39463   0.32005   0.54946   0.00000  Uiso   1.00
H117   H     0.33217   0.30826   0.35830   0.00000  Uiso   1.00
H118   H     0.37131   0.23841   0.71384   0.00000  Uiso   1.00
H119   H     0.46535   0.42360   0.58727   0.00000  Uiso   1.00
H120   H     0.28667   0.27917   0.12908   0.00000  Uiso   1.00
H121   H     0.36921   0.13190   0.87878   0.00000  Uiso   1.00
H122   H     0.56750   0.52242   0.61190   0.00000  Uiso   1.00
H123   H     0.57766   0.19680   0.41616   0.00000  Uiso   1.00
H124   H     0.52524   0.17825   0.21768   0.00000  Uiso   1.00
H125   H     0.56438   0.10840   0.57322   0.00000  Uiso   1.00
H126   H     0.65841   0.29359   0.44666   0.00000  Uiso   1.00
H127   H     0.44337   0.17364   0.01495   0.00000  Uiso   1.00
H128   H     0.52591   0.02638   0.76465   0.00000  Uiso   1.00
H129   H     0.72420   0.41690   0.49777   0.00000  Uiso   1.00
O130   O     0.32722   0.21640   0.94387   0.00000  Uiso   1.00
O131   O     0.43552   0.02321   0.92745   0.00000  Uiso   1.00
O132   O     0.69567   0.53556   0.57731   0.00000  Uiso   1.00
N133   N     0.33074   0.25689   0.12945   0.00000  Uiso   1.00
N134   N     0.40791   0.11920   0.83036   0.00000  Uiso   1.00
N135   N     0.59330   0.48430   0.58088   0.00000  Uiso   1.00
N136   N     0.41506   0.20011   0.06804   0.00000  Uiso   1.00
N137   N     0.49223   0.06242   0.76895   0.00000  Uiso   1.00
N138   N     0.67762   0.42752   0.51947   0.00000  Uiso   1.00
C139   C     0.56344   0.70819   0.01891   0.00000  Uiso   1.00
C140   C     0.57199   0.73168   0.89657   0.00000  Uiso   1.00
C141   C     0.62615   0.71981   0.82791   0.00000  Uiso   1.00
C142   C     0.62455   0.74553   0.71850   0.00000  Uiso   1.00
C143   C     0.64604   0.77652   0.53451   0.00000  Uiso   1.00
C144   C     0.55073   0.76964   0.08973   0.00000  Uiso   1.00
C145   C     0.58701   0.78967   0.18350   0.00000  Uiso   1.00
C146   C     0.56751   0.84734   0.23671   0.00000  Uiso   1.00
C147   C     0.55596   0.93723   0.35266   0.00000  Uiso   1.00
C148   C     0.49964   0.66901   0.02096   0.00000  Uiso   1.00
C149   C     0.49296   0.60445   0.05693   0.00000  Uiso   1.00
C150   C     0.43044   0.57740   0.05225   0.00000  Uiso   1.00
C151   C     0.33957   0.51105   0.06143   0.00000  Uiso   1.00
C152   C     0.46428   0.77496   0.94670   0.00000  Uiso   1.00
C153   C     0.51813   0.76795   0.85735   0.00000  Uiso   1.00
C154   C     0.51644   0.79369   0.74801   0.00000  Uiso   1.00
C155   C     0.57060   0.78186   0.67920   0.00000  Uiso   1.00
C156   C     0.49687   0.80590   0.05051   0.00000  Uiso   1.00
C157   C     0.47731   0.86355   0.10360   0.00000  Uiso   1.00
C158   C     0.51355   0.88367   0.19741   0.00000  Uiso   1.00
C159   C     0.44578   0.70528   0.98173   0.00000  Uiso   1.00
C160   C     0.38325   0.67833   0.97702   0.00000  Uiso   1.00
C161   C     0.37648   0.61373   0.01296   0.00000  Uiso   1.00
H162   H     0.60537   0.67995   0.04946   0.00000  Uiso   1.00
H163   H     0.66783   0.69174   0.85830   0.00000  Uiso   1.00
H164   H     0.62869   0.76159   0.21384   0.00000  Uiso   1.00
H165   H     0.53465   0.57640   0.08727   0.00000  Uiso   1.00
H166   H     0.71333   0.72083   0.62908   0.00000  Uiso   1.00
H167   H     0.63079   0.86810   0.37878   0.00000  Uiso   1.00
H168   H     0.43250   0.47758   0.11190   0.00000  Uiso   1.00
H169   H     0.42234   0.80320   0.91616   0.00000  Uiso   1.00
H170   H     0.47476   0.82175   0.71768   0.00000  Uiso   1.00
H171   H     0.43562   0.89160   0.07322   0.00000  Uiso   1.00
H172   H     0.34159   0.70641   0.94666   0.00000  Uiso   1.00
H173   H     0.55663   0.82636   0.51495   0.00000  Uiso   1.00
H174   H     0.47409   0.97362   0.26465   0.00000  Uiso   1.00
H175   H     0.27580   0.58310   0.99777   0.00000  Uiso   1.00
O176   O     0.67278   0.78360   0.44387   0.00000  Uiso   1.00
O177   O     0.56448   0.97679   0.42745   0.00000  Uiso   1.00
O178   O     0.30433   0.46444   0.07731   0.00000  Uiso   1.00
N179   N     0.66926   0.74311   0.62945   0.00000  Uiso   1.00
N180   N     0.59209   0.88080   0.33036   0.00000  Uiso   1.00
N181   N     0.40670   0.51570   0.08088   0.00000  Uiso   1.00
N182   N     0.58494   0.79989   0.56804   0.00000  Uiso   1.00
N183   N     0.50777   0.93758   0.26895   0.00000  Uiso   1.00
N184   N     0.32238   0.57248   0.01947   0.00000  Uiso   1.00
C185   C     0.70819   0.56344   0.98109   0.00000  Uiso   1.00
C186   C     0.73168   0.57199   0.10343   0.00000  Uiso   1.00
C187   C     0.71981   0.62615   0.17209   0.00000  Uiso   1.00
C188   C     0.74553   0.62455   0.28150   0.00000  Uiso   1.00
C189   C     0.77652   0.64604   0.46549   0.00000  Uiso   1.00
C190   C     0.76964   0.55073   0.91027   0.00000  Uiso   1.00
C191   C     0.78967   0.58701   0.81650   0.00000  Uiso   1.00
C192   C     0.84734   0.56751   0.76329   0.00000  Uiso   1.00
C193   C     0.93723   0.55596   0.64734   0.00000  Uiso   1.00
C194   C     0.66901   0.49964   0.97904   0.00000  Uiso   1.00
C195   C     0.60445   0.49296   0.94307   0.00000  Uiso   1.00
C196   C     0.57740   0.43044   0.94775   0.00000  Uiso   1.00
C197   C     0.51105   0.33957   0.93857   0.00000  Uiso   1.00
C198   C     0.77496   0.46428   0.05330   0.00000  Uiso   1.00
C199   C     0.76795   0.51813   0.14265   0.00000  Uiso   1.00
C200   C     0.79369   0.51644   0.25199   0.00000  Uiso   1.00
C201   C     0.78186   0.57060   0.32080   0.00000  Uiso   1.00
C202   C     0.80590   0.49687   0.94949   0.00000  Uiso   1.00
C203   C     0.86355   0.47731   0.89640   0.00000  Uiso   1.00
C204   C     0.88367   0.51355   0.80259   0.00000  Uiso   1.00
C205   C     0.70528   0.44578   0.01827   0.00000  Uiso   1.00
C206   C     0.67833   0.38325   0.02298   0.00000  Uiso   1.00
C207   C     0.61373   0.37648   0.98704   0.00000  Uiso   1.00
H208   H     0.67995   0.60537   0.95054   0.00000  Uiso   1.00
H209   H     0.69174   0.66783   0.14170   0.00000  Uiso   1.00
H210   H     0.76159   0.62869   0.78616   0.00000  Uiso   1.00
H211   H     0.57640   0.53465   0.91273   0.00000  Uiso   1.00
H212   H     0.72083   0.71333   0.37092   0.00000  Uiso   1.00
H213   H     0.86810   0.63079   0.62122   0.00000  Uiso   1.00
H214   H     0.47758   0.43250   0.88810   0.00000  Uiso   1.00
H215   H     0.80320   0.42234   0.08384   0.00000  Uiso   1.00
H216   H     0.82175   0.47476   0.28232   0.00000  Uiso   1.00
H217   H     0.89160   0.43562   0.92678   0.00000  Uiso   1.00
H218   H     0.70641   0.34159   0.05334   0.00000  Uiso   1.00
H219   H     0.82636   0.55663   0.48505   0.00000  Uiso   1.00
H220   H     0.97362   0.47409   0.73535   0.00000  Uiso   1.00
H221   H     0.58310   0.27580   0.00223   0.00000  Uiso   1.00
O222   O     0.78360   0.67278   0.55613   0.00000  Uiso   1.00
O223   O     0.97679   0.56448   0.57255   0.00000  Uiso   1.00
O224   O     0.46444   0.30433   0.92269   0.00000  Uiso   1.00
N225   N     0.74311   0.66926   0.37055   0.00000  Uiso   1.00
N226   N     0.88080   0.59209   0.66964   0.00000  Uiso   1.00
N227   N     0.51570   0.40670   0.91912   0.00000  Uiso   1.00
N228   N     0.79989   0.58494   0.43196   0.00000  Uiso   1.00
N229   N     0.93758   0.50777   0.73105   0.00000  Uiso   1.00
N230   N     0.57248   0.32238   0.98053   0.00000  Uiso   1.00
C231   C     0.29181   0.43656   0.48109   0.00000  Uiso   1.00
C232   C     0.26832   0.42801   0.60343   0.00000  Uiso   1.00
C233   C     0.28019   0.37385   0.67209   0.00000  Uiso   1.00
C234   C     0.25447   0.37545   0.78150   0.00000  Uiso   1.00
C235   C     0.22348   0.35396   0.96549   0.00000  Uiso   1.00
C236   C     0.23036   0.44927   0.41027   0.00000  Uiso   1.00
C237   C     0.21033   0.41299   0.31650   0.00000  Uiso   1.00
C238   C     0.15266   0.43249   0.26329   0.00000  Uiso   1.00
C239   C     0.06277   0.44404   0.14734   0.00000  Uiso   1.00
C240   C     0.33099   0.50036   0.47904   0.00000  Uiso   1.00
C241   C     0.39555   0.50704   0.44307   0.00000  Uiso   1.00
C242   C     0.42260   0.56956   0.44775   0.00000  Uiso   1.00
C243   C     0.48895   0.66043   0.43857   0.00000  Uiso   1.00
C244   C     0.22504   0.53572   0.55330   0.00000  Uiso   1.00
C245   C     0.23205   0.48187   0.64265   0.00000  Uiso   1.00
C246   C     0.20631   0.48356   0.75199   0.00000  Uiso   1.00
C247   C     0.21814   0.42940   0.82080   0.00000  Uiso   1.00
C248   C     0.19410   0.50313   0.44949   0.00000  Uiso   1.00
C249   C     0.13645   0.52269   0.39640   0.00000  Uiso   1.00
C250   C     0.11633   0.48645   0.30259   0.00000  Uiso   1.00
C251   C     0.29472   0.55422   0.51827   0.00000  Uiso   1.00
C252   C     0.32167   0.61675   0.52298   0.00000  Uiso   1.00
C253   C     0.38627   0.62352   0.48704   0.00000  Uiso   1.00
H254   H     0.32005   0.39463   0.45054   0.00000  Uiso   1.00
H255   H     0.30826   0.33217   0.64170   0.00000  Uiso   1.00
H256   H     0.23841   0.37131   0.28616   0.00000  Uiso   1.00
H257   H     0.42360   0.46535   0.41273   0.00000  Uiso   1.00
H258   H     0.27917   0.28667   0.87092   0.00000  Uiso   1.00
H259   H     0.13190   0.36921   0.12122   0.00000  Uiso   1.00
H260   H     0.52242   0.56750   0.38810   0.00000  Uiso   1.00
H261   H     0.19680   0.57766   0.58384   0.00000  Uiso   1.00
H262   H     0.17825   0.52524   0.78232   0.00000  Uiso   1.00
H263   H     0.10840   0.56438   0.42678   0.00000  Uiso   1.00
H264   H     0.29359   0.65841   0.55334   0.00000  Uiso   1.00
H265   H     0.17364   0.44337   0.98505   0.00000  Uiso   1.00
H266   H     0.02638   0.52591   0.23535   0.00000  Uiso   1.00
H267   H     0.41690   0.72420   0.50223   0.00000  Uiso   1.00
O268   O     0.21640   0.32722   0.05613   0.00000  Uiso   1.00
O269   O     0.02321   0.43552   0.07255   0.00000  Uiso   1.00
O270   O     0.53556   0.69567   0.42269   0.00000  Uiso   1.00
N271   N     0.25689   0.33074   0.87055   0.00000  Uiso   1.00
N272   N     0.11920   0.40791   0.16964   0.00000  Uiso   1.00
N273   N     0.48430   0.59330   0.41912   0.00000  Uiso   1.00
N274   N     0.20011   0.41506   0.93196   0.00000  Uiso   1.00
N275   N     0.06242   0.49223   0.23105   0.00000  Uiso   1.00
N276   N     0.42752   0.67762   0.48053   0.00000  Uiso   1.00
C277   C     0.06344   0.79181   0.23109   0.00000  Uiso   1.00
C278   C     0.07199   0.76832   0.35343   0.00000  Uiso   1.00
C279   C     0.12615   0.78019   0.42209   0.00000  Uiso   1.00
C280   C     0.12455   0.75447   0.53150   0.00000  Uiso   1.00
C281   C     0.14604   0.72348   0.71549   0.00000  Uiso   1.00
C282   C     0.05073   0.73036   0.16027   0.00000  Uiso   1.00
C283   C     0.08701   0.71033   0.06650   0.00000  Uiso   1.00
C284   C     0.06751   0.65266   0.01329   0.00000  Uiso   1.00
C285   C     0.05596   0.56277   0.89734   0.00000  Uiso   1.00
C286   C     0.99964   0.83099   0.22904   0.00000  Uiso   1.00
C287   C     0.99296   0.89555   0.19307   0.00000  Uiso   1.00
C288   C     0.93044   0.92260   0.19775   0.00000  Uiso   1.00
C289   C     0.83957   0.98895   0.18857   0.00000  Uiso   1.00
C290   C     0.96428   0.72504   0.30330   0.00000  Uiso   1.00
C291   C     0.01813   0.73205   0.39265   0.00000  Uiso   1.00
C292   C     0.01644   0.70631   0.50199   0.00000  Uiso   1.00
C293   C     0.07060   0.71814   0.57080   0.00000  Uiso   1.00
C294   C     0.99687   0.69410   0.19949   0.00000  Uiso   1.00
C295   C     0.97731   0.63645   0.14640   0.00000  Uiso   1.00
C296   C     0.01355   0.61633   0.05259   0.00000  Uiso   1.00
C297   C     0.94578   0.79472   0.26827   0.00000  Uiso   1.00
C298   C     0.88325   0.82167   0.27298   0.00000  Uiso   1.00
C299   C     0.87648   0.88627   0.23704   0.00000  Uiso   1.00
H300   H     0.10537   0.82005   0.20054   0.00000  Uiso   1.00
H301   H     0.16783   0.80826   0.39170   0.00000  Uiso   1.00
H302   H     0.12869   0.73841   0.03616   0.00000  Uiso   1.00
H303   H     0.03465   0.92360   0.16273   0.00000  Uiso   1.00
H304   H     0.21333   0.77917   0.62092   0.00000  Uiso   1.00
H305   H     0.13079   0.63190   0.87122   0.00000  Uiso   1.00
H306   H     0.93250   0.02242   0.13810   0.00000  Uiso   1.00
H307   H     0.92234   0.69680   0.33384   0.00000  Uiso   1.00
H308   H     0.97476   0.67825   0.53232   0.00000  Uiso   1.00
H309   H     0.93562   0.60840   0.17678   0.00000  Uiso   1.00
H310   H     0.84159   0.79359   0.30334   0.00000  Uiso   1.00
H311   H     0.05663   0.67364   0.73505   0.00000  Uiso   1.00
H312   H     0.97409   0.52638   0.98535   0.00000  Uiso   1.00
H313   H     0.77580   0.91690   0.25223   0.00000  Uiso   1.00
O314   O     0.17278   0.71640   0.80613   0.00000  Uiso   1.00
O315   O     0.06448   0.52321   0.82255   0.00000  Uiso   1.00
O316   O     0.80433   0.03556   0.17269   0.00000  Uiso   1.00
N317   N     0.16926   0.75689   0.62055   0.00000  Uiso   1.00
N318   N     0.09209   0.61920   0.91964   0.00000  Uiso   1.00
N319   N     0.90670   0.98430   0.16912   0.00000  Uiso   1.00
N320   N     0.08494   0.70011   0.68196   0.00000  Uiso   1.00
N321   N     0.00777   0.56242   0.98105   0.00000  Uiso   1.00
N322   N     0.82238   0.92752   0.23053   0.00000  Uiso   1.00
C323   C     0.93656   0.20819   0.73109   0.00000  Uiso   1.00
C324   C     0.92801   0.23168   0.85343   0.00000  Uiso   1.00
C325   C     0.87385   0.21981   0.92209   0.00000  Uiso   1.00
C326   C     0.87545   0.24553   0.03150   0.00000  Uiso   1.00
C327   C     0.85396   0.27652   0.21549   0.00000  Uiso   1.00
C328   C     0.94927   0.26964   0.66027   0.00000  Uiso   1.00
C329   C     0.91299   0.28967   0.56650   0.00000  Uiso   1.00
C330   C     0.93249   0.34734   0.51329   0.00000  Uiso   1.00
C331   C     0.94404   0.43723   0.39734   0.00000  Uiso   1.00
C332   C     0.00036   0.16901   0.72904   0.00000  Uiso   1.00
C333   C     0.00704   0.10445   0.69307   0.00000  Uiso   1.00
C334   C     0.06956   0.07740   0.69775   0.00000  Uiso   1.00
C335   C     0.16043   0.01105   0.68857   0.00000  Uiso   1.00
C336   C     0.03572   0.27496   0.80330   0.00000  Uiso   1.00
C337   C     0.98187   0.26795   0.89265   0.00000  Uiso   1.00
C338   C     0.98356   0.29369   0.00199   0.00000  Uiso   1.00
C339   C     0.92940   0.28186   0.07080   0.00000  Uiso   1.00
C340   C     0.00313   0.30590   0.69949   0.00000  Uiso   1.00
C341   C     0.02269   0.36355   0.64640   0.00000  Uiso   1.00
C342   C     0.98645   0.38367   0.55259   0.00000  Uiso   1.00
C343   C     0.05422   0.20528   0.76827   0.00000  Uiso   1.00
C344   C     0.11675   0.17833   0.77298   0.00000  Uiso   1.00
C345   C     0.12352   0.11373   0.73704   0.00000  Uiso   1.00
H346   H     0.89463   0.17995   0.70054   0.00000  Uiso   1.00
H347   H     0.83217   0.19174   0.89170   0.00000  Uiso   1.00
H348   H     0.87131   0.26159   0.53616   0.00000  Uiso   1.00
H349   H     0.96535   0.07640   0.66273   0.00000  Uiso   1.00
H350   H     0.78667   0.22083   0.12092   0.00000  Uiso   1.00
H351   H     0.86921   0.36810   0.37122   0.00000  Uiso   1.00
H352   H     0.06750   0.97758   0.63810   0.00000  Uiso   1.00
H353   H     0.07766   0.30320   0.83384   0.00000  Uiso   1.00
H354   H     0.02524   0.32175   0.03232   0.00000  Uiso   1.00
H355   H     0.06438   0.39160   0.67678   0.00000  Uiso   1.00
H356   H     0.15841   0.20641   0.80334   0.00000  Uiso   1.00
H357   H     0.94337   0.32636   0.23505   0.00000  Uiso   1.00
H358   H     0.02591   0.47362   0.48535   0.00000  Uiso   1.00
H359   H     0.22420   0.08310   0.75223   0.00000  Uiso   1.00
O360   O     0.82722   0.28360   0.30613   0.00000  Uiso   1.00
O361   O     0.93552   0.47679   0.32255   0.00000  Uiso   1.00
O362   O     0.19567   0.96444   0.67269   0.00000  Uiso   1.00
N363   N     0.83074   0.24311   0.12055   0.00000  Uiso   1.00
N364   N     0.90791   0.38080   0.41964   0.00000  Uiso   1.00
N365   N     0.09330   0.01570   0.66912   0.00000  Uiso   1.00
N366   N     0.91506   0.29989   0.18196   0.00000  Uiso   1.00
N367   N     0.99223   0.43758   0.48105   0.00000  Uiso   1.00
N368   N     0.17762   0.07248   0.73053   0.00000  Uiso   1.00
