data_job_00828
_audit_creation_date              2018-12-19
_audit_creation_method            'Materials Studio'
_symmetry_space_group_name_H-M    'P1'
_symmetry_Int_Tables_number       1
_symmetry_cell_setting            triclinic
loop_
_symmetry_equiv_pos_as_xyz
  x,y,z
_cell_length_a                    24.2569
_cell_length_b                    16.1680
_cell_length_c                    12.2233
_cell_angle_alpha                 90.0000
_cell_angle_beta                  90.0000
_cell_angle_gamma                 90.0000
loop_
_atom_site_label
_atom_site_type_symbol
_atom_site_fract_x
_atom_site_fract_y
_atom_site_fract_z
_atom_site_U_iso_or_equiv
_atom_site_adp_type
_atom_site_occupancy
C1     C     0.59712   0.23975   0.12613   0.00000  Uiso   1.00
C2     C     0.64907   0.26116   0.06182   0.00000  Uiso   1.00
C3     C     0.67917   0.33380   0.07125   0.00000  Uiso   1.00
C4     C     0.72544   0.34158   0.00518   0.00000  Uiso   1.00
C5     C     0.80372   0.38436   0.91636   0.00000  Uiso   1.00
C6     C     0.55281   0.22108   0.04115   0.00000  Uiso   1.00
C7     C     0.50198   0.26003   0.03321   0.00000  Uiso   1.00
C8     C     0.46722   0.23406   0.94976   0.00000  Uiso   1.00
C9     C     0.39604   0.21459   0.82890   0.00000  Uiso   1.00
C10    C     0.60911   0.15797   0.18352   0.00000  Uiso   1.00
C11    C     0.60561   0.14384   0.29530   0.00000  Uiso   1.00
C12    C     0.61824   0.06473   0.33171   0.00000  Uiso   1.00
C13    C     0.63448   0.94726   0.43191   0.00000  Uiso   1.00
C14    C     0.62577   0.12439   0.99205   0.00000  Uiso   1.00
C15    C     0.66463   0.19850   0.98899   0.00000  Uiso   1.00
C16    C     0.71086   0.20617   0.92290   0.00000  Uiso   1.00
C17    C     0.74103   0.27881   0.93223   0.00000  Uiso   1.00
C18    C     0.56837   0.15843   0.96832   0.00000  Uiso   1.00
C19    C     0.53367   0.13240   0.88487   0.00000  Uiso   1.00
C20    C     0.48280   0.17129   0.87680   0.00000  Uiso   1.00
C21    C     0.62467   0.09531   0.11070   0.00000  Uiso   1.00
C22    C     0.63730   0.01621   0.14695   0.00000  Uiso   1.00
C23    C     0.63382   0.00196   0.25875   0.00000  Uiso   1.00
H24    H     0.58501   0.28854   0.18283   0.00000  Uiso   1.00
H25    H     0.66712   0.38228   0.12761   0.00000  Uiso   1.00
H26    H     0.48995   0.30851   0.08959   0.00000  Uiso   1.00
H27    H     0.59357   0.19234   0.35163   0.00000  Uiso   1.00
H28    H     0.76500   0.45859   0.03425   0.00000  Uiso   1.00
H29    H     0.39143   0.30302   0.95410   0.00000  Uiso   1.00
H30    H     0.60992   0.05806   0.50667   0.00000  Uiso   1.00
H31    H     0.63788   0.07561   0.93534   0.00000  Uiso   1.00
H32    H     0.72289   0.15767   0.86654   0.00000  Uiso   1.00
H33    H     0.54573   0.08390   0.82852   0.00000  Uiso   1.00
H34    H     0.64934   0.96773   0.09056   0.00000  Uiso   1.00
H35    H     0.81027   0.27629   0.82235   0.00000  Uiso   1.00
H36    H     0.43669   0.12072   0.74221   0.00000  Uiso   1.00
H37    H     0.65519   0.87576   0.29477   0.00000  Uiso   1.00
O38    O     0.84259   0.42528   0.88748   0.00000  Uiso   1.00
O39    O     0.35248   0.22117   0.78235   0.00000  Uiso   1.00
O40    O     0.63914   0.89978   0.50730   0.00000  Uiso   1.00
N41    N     0.76399   0.40442   0.99383   0.00000  Uiso   1.00
N42    N     0.41473   0.25898   0.91889   0.00000  Uiso   1.00
N43    N     0.61899   0.02995   0.43549   0.00000  Uiso   1.00
N44    N     0.78835   0.30632   0.87982   0.00000  Uiso   1.00
N45    N     0.43909   0.16089   0.80488   0.00000  Uiso   1.00
N46    N     0.64335   0.93186   0.32148   0.00000  Uiso   1.00
C47    C     0.90288   0.76025   0.62613   0.00000  Uiso   1.00
C48    C     0.85093   0.73884   0.56182   0.00000  Uiso   1.00
C49    C     0.82083   0.66620   0.57125   0.00000  Uiso   1.00
C50    C     0.77456   0.65842   0.50518   0.00000  Uiso   1.00
C51    C     0.69628   0.61564   0.41636   0.00000  Uiso   1.00
C52    C     0.94719   0.77892   0.54115   0.00000  Uiso   1.00
C53    C     0.99802   0.73997   0.53321   0.00000  Uiso   1.00
C54    C     0.03278   0.76594   0.44976   0.00000  Uiso   1.00
C55    C     0.10396   0.78541   0.32890   0.00000  Uiso   1.00
C56    C     0.89089   0.84203   0.68352   0.00000  Uiso   1.00
C57    C     0.89439   0.85616   0.79530   0.00000  Uiso   1.00
C58    C     0.88176   0.93527   0.83171   0.00000  Uiso   1.00
C59    C     0.86552   0.05274   0.93191   0.00000  Uiso   1.00
C60    C     0.87423   0.87561   0.49205   0.00000  Uiso   1.00
C61    C     0.83537   0.80150   0.48899   0.00000  Uiso   1.00
C62    C     0.78914   0.79383   0.42290   0.00000  Uiso   1.00
C63    C     0.75897   0.72119   0.43223   0.00000  Uiso   1.00
C64    C     0.93163   0.84157   0.46832   0.00000  Uiso   1.00
C65    C     0.96633   0.86760   0.38487   0.00000  Uiso   1.00
C66    C     0.01720   0.82871   0.37680   0.00000  Uiso   1.00
C67    C     0.87533   0.90469   0.61070   0.00000  Uiso   1.00
C68    C     0.86270   0.98379   0.64695   0.00000  Uiso   1.00
C69    C     0.86618   0.99804   0.75875   0.00000  Uiso   1.00
H70    H     0.91499   0.71146   0.68283   0.00000  Uiso   1.00
H71    H     0.83288   0.61772   0.62761   0.00000  Uiso   1.00
H72    H     0.01005   0.69149   0.58959   0.00000  Uiso   1.00
H73    H     0.90643   0.80766   0.85163   0.00000  Uiso   1.00
H74    H     0.73500   0.54141   0.53425   0.00000  Uiso   1.00
H75    H     0.10857   0.69698   0.45410   0.00000  Uiso   1.00
H76    H     0.89008   0.94194   0.00667   0.00000  Uiso   1.00
H77    H     0.86212   0.92439   0.43534   0.00000  Uiso   1.00
H78    H     0.77711   0.84233   0.36654   0.00000  Uiso   1.00
H79    H     0.95427   0.91610   0.32852   0.00000  Uiso   1.00
H80    H     0.85066   0.03227   0.59056   0.00000  Uiso   1.00
H81    H     0.68973   0.72371   0.32235   0.00000  Uiso   1.00
H82    H     0.06331   0.87928   0.24221   0.00000  Uiso   1.00
H83    H     0.84481   0.12424   0.79477   0.00000  Uiso   1.00
O84    O     0.65741   0.57472   0.38748   0.00000  Uiso   1.00
O85    O     0.14752   0.77883   0.28235   0.00000  Uiso   1.00
O86    O     0.86086   0.10022   0.00730   0.00000  Uiso   1.00
N87    N     0.73601   0.59558   0.49383   0.00000  Uiso   1.00
N88    N     0.08527   0.74102   0.41889   0.00000  Uiso   1.00
N89    N     0.88101   0.97005   0.93549   0.00000  Uiso   1.00
N90    N     0.71165   0.69368   0.37982   0.00000  Uiso   1.00
N91    N     0.06091   0.83911   0.30488   0.00000  Uiso   1.00
N92    N     0.85665   0.06814   0.82148   0.00000  Uiso   1.00
C93    C     0.40288   0.73975   0.37387   0.00000  Uiso   1.00
C94    C     0.35093   0.76116   0.43818   0.00000  Uiso   1.00
C95    C     0.32083   0.83380   0.42875   0.00000  Uiso   1.00
C96    C     0.27456   0.84158   0.49482   0.00000  Uiso   1.00
C97    C     0.19628   0.88436   0.58364   0.00000  Uiso   1.00
C98    C     0.44719   0.72108   0.45885   0.00000  Uiso   1.00
C99    C     0.49802   0.76003   0.46679   0.00000  Uiso   1.00
C100   C     0.53278   0.73406   0.55024   0.00000  Uiso   1.00
C101   C     0.60396   0.71459   0.67110   0.00000  Uiso   1.00
C102   C     0.39089   0.65797   0.31648   0.00000  Uiso   1.00
C103   C     0.39439   0.64384   0.20470   0.00000  Uiso   1.00
C104   C     0.38176   0.56473   0.16829   0.00000  Uiso   1.00
C105   C     0.36552   0.44726   0.06809   0.00000  Uiso   1.00
C106   C     0.37423   0.62439   0.50795   0.00000  Uiso   1.00
C107   C     0.33537   0.69850   0.51101   0.00000  Uiso   1.00
C108   C     0.28914   0.70617   0.57710   0.00000  Uiso   1.00
C109   C     0.25897   0.77881   0.56777   0.00000  Uiso   1.00
C110   C     0.43163   0.65843   0.53168   0.00000  Uiso   1.00
C111   C     0.46633   0.63240   0.61513   0.00000  Uiso   1.00
C112   C     0.51720   0.67129   0.62320   0.00000  Uiso   1.00
C113   C     0.37533   0.59531   0.38930   0.00000  Uiso   1.00
C114   C     0.36270   0.51621   0.35305   0.00000  Uiso   1.00
C115   C     0.36618   0.50196   0.24125   0.00000  Uiso   1.00
H116   H     0.41499   0.78854   0.31717   0.00000  Uiso   1.00
H117   H     0.33288   0.88228   0.37239   0.00000  Uiso   1.00
H118   H     0.51005   0.80851   0.41041   0.00000  Uiso   1.00
H119   H     0.40643   0.69234   0.14837   0.00000  Uiso   1.00
H120   H     0.23500   0.95859   0.46575   0.00000  Uiso   1.00
H121   H     0.60857   0.80302   0.54590   0.00000  Uiso   1.00
H122   H     0.39008   0.55806   0.99333   0.00000  Uiso   1.00
H123   H     0.36212   0.57561   0.56466   0.00000  Uiso   1.00
H124   H     0.27711   0.65767   0.63346   0.00000  Uiso   1.00
H125   H     0.45427   0.58390   0.67148   0.00000  Uiso   1.00
H126   H     0.35066   0.46773   0.40944   0.00000  Uiso   1.00
H127   H     0.18973   0.77629   0.67765   0.00000  Uiso   1.00
H128   H     0.56331   0.62072   0.75779   0.00000  Uiso   1.00
H129   H     0.34481   0.37576   0.20523   0.00000  Uiso   1.00
O130   O     0.15741   0.92528   0.61252   0.00000  Uiso   1.00
O131   O     0.64752   0.72117   0.71765   0.00000  Uiso   1.00
O132   O     0.36086   0.39978   0.99270   0.00000  Uiso   1.00
N133   N     0.23601   0.90442   0.50617   0.00000  Uiso   1.00
N134   N     0.58527   0.75898   0.58111   0.00000  Uiso   1.00
N135   N     0.38101   0.52995   0.06451   0.00000  Uiso   1.00
N136   N     0.21165   0.80632   0.62018   0.00000  Uiso   1.00
N137   N     0.56091   0.66089   0.69512   0.00000  Uiso   1.00
N138   N     0.35665   0.43186   0.17852   0.00000  Uiso   1.00
C139   C     0.09712   0.26025   0.87387   0.00000  Uiso   1.00
C140   C     0.14907   0.23884   0.93818   0.00000  Uiso   1.00
C141   C     0.17917   0.16620   0.92875   0.00000  Uiso   1.00
C142   C     0.22544   0.15842   0.99482   0.00000  Uiso   1.00
C143   C     0.30372   0.11564   0.08364   0.00000  Uiso   1.00
C144   C     0.05281   0.27892   0.95885   0.00000  Uiso   1.00
C145   C     0.00198   0.23997   0.96679   0.00000  Uiso   1.00
C146   C     0.96722   0.26594   0.05024   0.00000  Uiso   1.00
C147   C     0.89604   0.28541   0.17110   0.00000  Uiso   1.00
C148   C     0.10911   0.34203   0.81648   0.00000  Uiso   1.00
C149   C     0.10561   0.35616   0.70470   0.00000  Uiso   1.00
C150   C     0.11824   0.43527   0.66829   0.00000  Uiso   1.00
C151   C     0.13448   0.55274   0.56809   0.00000  Uiso   1.00
C152   C     0.12577   0.37561   0.00795   0.00000  Uiso   1.00
C153   C     0.16463   0.30150   0.01101   0.00000  Uiso   1.00
C154   C     0.21086   0.29383   0.07710   0.00000  Uiso   1.00
C155   C     0.24103   0.22119   0.06777   0.00000  Uiso   1.00
C156   C     0.06837   0.34157   0.03168   0.00000  Uiso   1.00
C157   C     0.03367   0.36760   0.11513   0.00000  Uiso   1.00
C158   C     0.98280   0.32871   0.12320   0.00000  Uiso   1.00
C159   C     0.12467   0.40469   0.88930   0.00000  Uiso   1.00
C160   C     0.13730   0.48379   0.85305   0.00000  Uiso   1.00
C161   C     0.13382   0.49804   0.74125   0.00000  Uiso   1.00
H162   H     0.08501   0.21146   0.81717   0.00000  Uiso   1.00
H163   H     0.16712   0.11772   0.87239   0.00000  Uiso   1.00
H164   H     0.98995   0.19149   0.91041   0.00000  Uiso   1.00
H165   H     0.09357   0.30766   0.64837   0.00000  Uiso   1.00
H166   H     0.26500   0.04141   0.96575   0.00000  Uiso   1.00
H167   H     0.89143   0.19698   0.04590   0.00000  Uiso   1.00
H168   H     0.10992   0.44194   0.49333   0.00000  Uiso   1.00
H169   H     0.13788   0.42439   0.06466   0.00000  Uiso   1.00
H170   H     0.22289   0.34233   0.13346   0.00000  Uiso   1.00
H171   H     0.04573   0.41610   0.17148   0.00000  Uiso   1.00
H172   H     0.14934   0.53227   0.90944   0.00000  Uiso   1.00
H173   H     0.31027   0.22371   0.17765   0.00000  Uiso   1.00
H174   H     0.93669   0.37928   0.25779   0.00000  Uiso   1.00
H175   H     0.15519   0.62424   0.70523   0.00000  Uiso   1.00
O176   O     0.34259   0.07472   0.11252   0.00000  Uiso   1.00
O177   O     0.85248   0.27883   0.21765   0.00000  Uiso   1.00
O178   O     0.13914   0.60022   0.49270   0.00000  Uiso   1.00
N179   N     0.26399   0.09558   0.00617   0.00000  Uiso   1.00
N180   N     0.91473   0.24102   0.08111   0.00000  Uiso   1.00
N181   N     0.11899   0.47005   0.56451   0.00000  Uiso   1.00
N182   N     0.28835   0.19368   0.12018   0.00000  Uiso   1.00
N183   N     0.93909   0.33911   0.19512   0.00000  Uiso   1.00
N184   N     0.14335   0.56814   0.67852   0.00000  Uiso   1.00
C185   C     0.40288   0.76025   0.87387   0.00000  Uiso   1.00
C186   C     0.35093   0.73884   0.93818   0.00000  Uiso   1.00
C187   C     0.32083   0.66620   0.92875   0.00000  Uiso   1.00
C188   C     0.27456   0.65842   0.99482   0.00000  Uiso   1.00
C189   C     0.19628   0.61564   0.08364   0.00000  Uiso   1.00
C190   C     0.44719   0.77892   0.95885   0.00000  Uiso   1.00
C191   C     0.49802   0.73997   0.96679   0.00000  Uiso   1.00
C192   C     0.53278   0.76594   0.05024   0.00000  Uiso   1.00
C193   C     0.60396   0.78541   0.17110   0.00000  Uiso   1.00
C194   C     0.39089   0.84203   0.81648   0.00000  Uiso   1.00
C195   C     0.39439   0.85616   0.70470   0.00000  Uiso   1.00
C196   C     0.38176   0.93527   0.66829   0.00000  Uiso   1.00
C197   C     0.36552   0.05274   0.56809   0.00000  Uiso   1.00
C198   C     0.37423   0.87561   0.00795   0.00000  Uiso   1.00
C199   C     0.33537   0.80150   0.01101   0.00000  Uiso   1.00
C200   C     0.28914   0.79383   0.07710   0.00000  Uiso   1.00
C201   C     0.25897   0.72119   0.06777   0.00000  Uiso   1.00
C202   C     0.43163   0.84157   0.03168   0.00000  Uiso   1.00
C203   C     0.46633   0.86760   0.11513   0.00000  Uiso   1.00
C204   C     0.51720   0.82871   0.12320   0.00000  Uiso   1.00
C205   C     0.37533   0.90469   0.88930   0.00000  Uiso   1.00
C206   C     0.36270   0.98379   0.85305   0.00000  Uiso   1.00
C207   C     0.36618   0.99804   0.74125   0.00000  Uiso   1.00
H208   H     0.41499   0.71146   0.81717   0.00000  Uiso   1.00
H209   H     0.33288   0.61772   0.87239   0.00000  Uiso   1.00
H210   H     0.51005   0.69149   0.91041   0.00000  Uiso   1.00
H211   H     0.40643   0.80766   0.64837   0.00000  Uiso   1.00
H212   H     0.23500   0.54141   0.96575   0.00000  Uiso   1.00
H213   H     0.60857   0.69698   0.04590   0.00000  Uiso   1.00
H214   H     0.39008   0.94194   0.49333   0.00000  Uiso   1.00
H215   H     0.36212   0.92439   0.06466   0.00000  Uiso   1.00
H216   H     0.27711   0.84233   0.13346   0.00000  Uiso   1.00
H217   H     0.45427   0.91610   0.17148   0.00000  Uiso   1.00
H218   H     0.35066   0.03227   0.90944   0.00000  Uiso   1.00
H219   H     0.18973   0.72371   0.17765   0.00000  Uiso   1.00
H220   H     0.56331   0.87928   0.25779   0.00000  Uiso   1.00
H221   H     0.34481   0.12424   0.70523   0.00000  Uiso   1.00
O222   O     0.15741   0.57472   0.11252   0.00000  Uiso   1.00
O223   O     0.64752   0.77883   0.21765   0.00000  Uiso   1.00
O224   O     0.36086   0.10022   0.49270   0.00000  Uiso   1.00
N225   N     0.23601   0.59558   0.00617   0.00000  Uiso   1.00
N226   N     0.58527   0.74102   0.08111   0.00000  Uiso   1.00
N227   N     0.38101   0.97005   0.56451   0.00000  Uiso   1.00
N228   N     0.21165   0.69368   0.12018   0.00000  Uiso   1.00
N229   N     0.56091   0.83911   0.19512   0.00000  Uiso   1.00
N230   N     0.35665   0.06814   0.67852   0.00000  Uiso   1.00
C231   C     0.09712   0.23975   0.37387   0.00000  Uiso   1.00
C232   C     0.14907   0.26116   0.43818   0.00000  Uiso   1.00
C233   C     0.17917   0.33380   0.42875   0.00000  Uiso   1.00
C234   C     0.22544   0.34158   0.49482   0.00000  Uiso   1.00
C235   C     0.30372   0.38436   0.58364   0.00000  Uiso   1.00
C236   C     0.05281   0.22108   0.45885   0.00000  Uiso   1.00
C237   C     0.00198   0.26003   0.46679   0.00000  Uiso   1.00
C238   C     0.96722   0.23406   0.55024   0.00000  Uiso   1.00
C239   C     0.89604   0.21459   0.67110   0.00000  Uiso   1.00
C240   C     0.10911   0.15797   0.31648   0.00000  Uiso   1.00
C241   C     0.10561   0.14384   0.20470   0.00000  Uiso   1.00
C242   C     0.11824   0.06473   0.16829   0.00000  Uiso   1.00
C243   C     0.13448   0.94726   0.06809   0.00000  Uiso   1.00
C244   C     0.12577   0.12439   0.50795   0.00000  Uiso   1.00
C245   C     0.16463   0.19850   0.51101   0.00000  Uiso   1.00
C246   C     0.21086   0.20617   0.57710   0.00000  Uiso   1.00
C247   C     0.24103   0.27881   0.56777   0.00000  Uiso   1.00
C248   C     0.06837   0.15843   0.53168   0.00000  Uiso   1.00
C249   C     0.03367   0.13240   0.61513   0.00000  Uiso   1.00
C250   C     0.98280   0.17129   0.62320   0.00000  Uiso   1.00
C251   C     0.12467   0.09531   0.38930   0.00000  Uiso   1.00
C252   C     0.13730   0.01621   0.35305   0.00000  Uiso   1.00
C253   C     0.13382   0.00196   0.24125   0.00000  Uiso   1.00
H254   H     0.08501   0.28854   0.31717   0.00000  Uiso   1.00
H255   H     0.16712   0.38228   0.37239   0.00000  Uiso   1.00
H256   H     0.98995   0.30851   0.41041   0.00000  Uiso   1.00
H257   H     0.09357   0.19234   0.14837   0.00000  Uiso   1.00
H258   H     0.26500   0.45859   0.46575   0.00000  Uiso   1.00
H259   H     0.89143   0.30302   0.54590   0.00000  Uiso   1.00
H260   H     0.10992   0.05806   0.99333   0.00000  Uiso   1.00
H261   H     0.13788   0.07561   0.56466   0.00000  Uiso   1.00
H262   H     0.22289   0.15767   0.63346   0.00000  Uiso   1.00
H263   H     0.04573   0.08390   0.67148   0.00000  Uiso   1.00
H264   H     0.14934   0.96773   0.40944   0.00000  Uiso   1.00
H265   H     0.31027   0.27629   0.67765   0.00000  Uiso   1.00
H266   H     0.93669   0.12072   0.75779   0.00000  Uiso   1.00
H267   H     0.15519   0.87576   0.20523   0.00000  Uiso   1.00
O268   O     0.34259   0.42528   0.61252   0.00000  Uiso   1.00
O269   O     0.85248   0.22117   0.71765   0.00000  Uiso   1.00
O270   O     0.13914   0.89978   0.99270   0.00000  Uiso   1.00
N271   N     0.26399   0.40442   0.50617   0.00000  Uiso   1.00
N272   N     0.91473   0.25898   0.58111   0.00000  Uiso   1.00
N273   N     0.11899   0.02995   0.06451   0.00000  Uiso   1.00
N274   N     0.28835   0.30632   0.62018   0.00000  Uiso   1.00
N275   N     0.93909   0.16089   0.69512   0.00000  Uiso   1.00
N276   N     0.14335   0.93186   0.17852   0.00000  Uiso   1.00
C277   C     0.59712   0.26025   0.62613   0.00000  Uiso   1.00
C278   C     0.64907   0.23884   0.56182   0.00000  Uiso   1.00
C279   C     0.67917   0.16620   0.57125   0.00000  Uiso   1.00
C280   C     0.72544   0.15842   0.50518   0.00000  Uiso   1.00
C281   C     0.80372   0.11564   0.41636   0.00000  Uiso   1.00
C282   C     0.55281   0.27892   0.54115   0.00000  Uiso   1.00
C283   C     0.50198   0.23997   0.53321   0.00000  Uiso   1.00
C284   C     0.46722   0.26594   0.44976   0.00000  Uiso   1.00
C285   C     0.39604   0.28541   0.32890   0.00000  Uiso   1.00
C286   C     0.60911   0.34203   0.68352   0.00000  Uiso   1.00
C287   C     0.60561   0.35616   0.79530   0.00000  Uiso   1.00
C288   C     0.61824   0.43527   0.83171   0.00000  Uiso   1.00
C289   C     0.63448   0.55274   0.93191   0.00000  Uiso   1.00
C290   C     0.62577   0.37561   0.49205   0.00000  Uiso   1.00
C291   C     0.66463   0.30150   0.48899   0.00000  Uiso   1.00
C292   C     0.71086   0.29383   0.42290   0.00000  Uiso   1.00
C293   C     0.74103   0.22119   0.43223   0.00000  Uiso   1.00
C294   C     0.56837   0.34157   0.46832   0.00000  Uiso   1.00
C295   C     0.53367   0.36760   0.38487   0.00000  Uiso   1.00
C296   C     0.48280   0.32871   0.37680   0.00000  Uiso   1.00
C297   C     0.62467   0.40469   0.61070   0.00000  Uiso   1.00
C298   C     0.63730   0.48379   0.64695   0.00000  Uiso   1.00
C299   C     0.63382   0.49804   0.75875   0.00000  Uiso   1.00
H300   H     0.58501   0.21146   0.68283   0.00000  Uiso   1.00
H301   H     0.66712   0.11772   0.62761   0.00000  Uiso   1.00
H302   H     0.48995   0.19149   0.58959   0.00000  Uiso   1.00
H303   H     0.59357   0.30766   0.85163   0.00000  Uiso   1.00
H304   H     0.76500   0.04141   0.53425   0.00000  Uiso   1.00
H305   H     0.39143   0.19698   0.45410   0.00000  Uiso   1.00
H306   H     0.60992   0.44194   0.00667   0.00000  Uiso   1.00
H307   H     0.63788   0.42439   0.43534   0.00000  Uiso   1.00
H308   H     0.72289   0.34233   0.36654   0.00000  Uiso   1.00
H309   H     0.54573   0.41610   0.32852   0.00000  Uiso   1.00
H310   H     0.64934   0.53227   0.59056   0.00000  Uiso   1.00
H311   H     0.81027   0.22371   0.32235   0.00000  Uiso   1.00
H312   H     0.43669   0.37928   0.24221   0.00000  Uiso   1.00
H313   H     0.65519   0.62424   0.79477   0.00000  Uiso   1.00
O314   O     0.84259   0.07472   0.38748   0.00000  Uiso   1.00
O315   O     0.35248   0.27883   0.28235   0.00000  Uiso   1.00
O316   O     0.63914   0.60022   0.00730   0.00000  Uiso   1.00
N317   N     0.76399   0.09558   0.49383   0.00000  Uiso   1.00
N318   N     0.41473   0.24102   0.41889   0.00000  Uiso   1.00
N319   N     0.61899   0.47005   0.93549   0.00000  Uiso   1.00
N320   N     0.78835   0.19368   0.37982   0.00000  Uiso   1.00
N321   N     0.43909   0.33911   0.30488   0.00000  Uiso   1.00
N322   N     0.64335   0.56814   0.82148   0.00000  Uiso   1.00
C323   C     0.90288   0.73975   0.12613   0.00000  Uiso   1.00
C324   C     0.85093   0.76116   0.06182   0.00000  Uiso   1.00
C325   C     0.82083   0.83380   0.07125   0.00000  Uiso   1.00
C326   C     0.77456   0.84158   0.00518   0.00000  Uiso   1.00
C327   C     0.69628   0.88436   0.91636   0.00000  Uiso   1.00
C328   C     0.94719   0.72108   0.04115   0.00000  Uiso   1.00
C329   C     0.99802   0.76003   0.03321   0.00000  Uiso   1.00
C330   C     0.03278   0.73406   0.94976   0.00000  Uiso   1.00
C331   C     0.10396   0.71459   0.82890   0.00000  Uiso   1.00
C332   C     0.89089   0.65797   0.18352   0.00000  Uiso   1.00
C333   C     0.89439   0.64384   0.29530   0.00000  Uiso   1.00
C334   C     0.88176   0.56473   0.33171   0.00000  Uiso   1.00
C335   C     0.86552   0.44726   0.43191   0.00000  Uiso   1.00
C336   C     0.87423   0.62439   0.99205   0.00000  Uiso   1.00
C337   C     0.83537   0.69850   0.98899   0.00000  Uiso   1.00
C338   C     0.78914   0.70617   0.92290   0.00000  Uiso   1.00
C339   C     0.75897   0.77881   0.93223   0.00000  Uiso   1.00
C340   C     0.93163   0.65843   0.96832   0.00000  Uiso   1.00
C341   C     0.96633   0.63240   0.88487   0.00000  Uiso   1.00
C342   C     0.01720   0.67129   0.87680   0.00000  Uiso   1.00
C343   C     0.87533   0.59531   0.11070   0.00000  Uiso   1.00
C344   C     0.86270   0.51621   0.14695   0.00000  Uiso   1.00
C345   C     0.86618   0.50196   0.25875   0.00000  Uiso   1.00
H346   H     0.91499   0.78854   0.18283   0.00000  Uiso   1.00
H347   H     0.83288   0.88228   0.12761   0.00000  Uiso   1.00
H348   H     0.01005   0.80851   0.08959   0.00000  Uiso   1.00
H349   H     0.90643   0.69234   0.35163   0.00000  Uiso   1.00
H350   H     0.73500   0.95859   0.03425   0.00000  Uiso   1.00
H351   H     0.10857   0.80302   0.95410   0.00000  Uiso   1.00
H352   H     0.89008   0.55806   0.50667   0.00000  Uiso   1.00
H353   H     0.86212   0.57561   0.93534   0.00000  Uiso   1.00
H354   H     0.77711   0.65767   0.86654   0.00000  Uiso   1.00
H355   H     0.95427   0.58390   0.82852   0.00000  Uiso   1.00
H356   H     0.85066   0.46773   0.09056   0.00000  Uiso   1.00
H357   H     0.68973   0.77629   0.82235   0.00000  Uiso   1.00
H358   H     0.06331   0.62072   0.74221   0.00000  Uiso   1.00
H359   H     0.84481   0.37576   0.29477   0.00000  Uiso   1.00
O360   O     0.65741   0.92528   0.88748   0.00000  Uiso   1.00
O361   O     0.14752   0.72117   0.78235   0.00000  Uiso   1.00
O362   O     0.86086   0.39978   0.50730   0.00000  Uiso   1.00
N363   N     0.73601   0.90442   0.99383   0.00000  Uiso   1.00
N364   N     0.08527   0.75898   0.91889   0.00000  Uiso   1.00
N365   N     0.88101   0.52995   0.43549   0.00000  Uiso   1.00
N366   N     0.71165   0.80632   0.87982   0.00000  Uiso   1.00
N367   N     0.06091   0.66089   0.80488   0.00000  Uiso   1.00
N368   N     0.85665   0.43186   0.32148   0.00000  Uiso   1.00
