data_job_02332
_audit_creation_date              2018-12-19
_audit_creation_method            'Materials Studio'
_symmetry_space_group_name_H-M    'P1'
_symmetry_Int_Tables_number       1
_symmetry_cell_setting            triclinic
loop_
_symmetry_equiv_pos_as_xyz
  x,y,z
_cell_length_a                    38.3288
_cell_length_b                    14.8273
_cell_length_c                    9.9374
_cell_angle_alpha                 90.0000
_cell_angle_beta                  93.6565
_cell_angle_gamma                 90.0000
loop_
_atom_site_label
_atom_site_type_symbol
_atom_site_fract_x
_atom_site_fract_y
_atom_site_fract_z
_atom_site_U_iso_or_equiv
_atom_site_adp_type
_atom_site_occupancy
C1     C     0.83444   0.94542   0.83321   0.00000  Uiso   1.00
C2     C     0.83895   0.85794   0.91313   0.00000  Uiso   1.00
C3     C     0.83535   0.84838   0.05047   0.00000  Uiso   1.00
C4     C     0.84053   0.76275   0.10461   0.00000  Uiso   1.00
C5     C     0.84626   0.63809   0.24095   0.00000  Uiso   1.00
C6     C     0.86851   0.95935   0.76462   0.00000  Uiso   1.00
C7     C     0.88976   0.03505   0.77709   0.00000  Uiso   1.00
C8     C     0.91983   0.03478   0.70620   0.00000  Uiso   1.00
C9     C     0.97143   0.06758   0.61191   0.00000  Uiso   1.00
C10    C     0.80657   0.92640   0.72039   0.00000  Uiso   1.00
C11    C     0.77574   0.97442   0.69564   0.00000  Uiso   1.00
C12    C     0.75366   0.94642   0.58749   0.00000  Uiso   1.00
C13    C     0.70909   0.92806   0.42452   0.00000  Uiso   1.00
C14    C     0.85004   0.81033   0.68512   0.00000  Uiso   1.00
C15    C     0.84742   0.78457   0.83269   0.00000  Uiso   1.00
C16    C     0.85261   0.69892   0.88663   0.00000  Uiso   1.00
C17    C     0.84902   0.68924   0.02403   0.00000  Uiso   1.00
C18    C     0.87698   0.88597   0.68419   0.00000  Uiso   1.00
C19    C     0.90702   0.88559   0.61325   0.00000  Uiso   1.00
C20    C     0.92831   0.96127   0.62562   0.00000  Uiso   1.00
C21    C     0.81504   0.85302   0.63995   0.00000  Uiso   1.00
C22    C     0.79300   0.82495   0.53181   0.00000  Uiso   1.00
C23    C     0.76215   0.87291   0.50690   0.00000  Uiso   1.00
H24    H     0.82785   0.00255   0.89583   0.00000  Uiso   1.00
H25    H     0.82880   0.90519   0.11269   0.00000  Uiso   1.00
H26    H     0.88320   0.09183   0.83934   0.00000  Uiso   1.00
H27    H     0.76920   0.03120   0.75791   0.00000  Uiso   1.00
H28    H     0.83360   0.76489   0.31765   0.00000  Uiso   1.00
H29    H     0.94830   0.15845   0.74125   0.00000  Uiso   1.00
H30    H     0.70791   0.03060   0.56954   0.00000  Uiso   1.00
H31    H     0.85664   0.75320   0.62249   0.00000  Uiso   1.00
H32    H     0.85917   0.64215   0.82435   0.00000  Uiso   1.00
H33    H     0.91357   0.82880   0.55101   0.00000  Uiso   1.00
H34    H     0.79957   0.76816   0.46958   0.00000  Uiso   1.00
H35    H     0.85825   0.55140   0.08363   0.00000  Uiso   1.00
H36    H     0.97295   0.94496   0.50722   0.00000  Uiso   1.00
H37    H     0.73256   0.81711   0.33551   0.00000  Uiso   1.00
O38    O     0.84708   0.58960   0.33838   0.00000  Uiso   1.00
O39    O     0.99755   0.10594   0.58214   0.00000  Uiso   1.00
O40    O     0.68217   0.93820   0.35686   0.00000  Uiso   1.00
N41    N     0.83905   0.72988   0.23487   0.00000  Uiso   1.00
N42    N     0.94628   0.09783   0.69598   0.00000  Uiso   1.00
N43    N     0.72154   0.97832   0.53542   0.00000  Uiso   1.00
N44    N     0.85231   0.61501   0.10894   0.00000  Uiso   1.00
N45    N     0.95955   0.98295   0.57006   0.00000  Uiso   1.00
N46    N     0.73481   0.86344   0.40950   0.00000  Uiso   1.00
C47    C     0.33444   0.44542   0.83321   0.00000  Uiso   1.00
C48    C     0.33895   0.35794   0.91313   0.00000  Uiso   1.00
C49    C     0.33535   0.34838   0.05047   0.00000  Uiso   1.00
C50    C     0.34053   0.26275   0.10461   0.00000  Uiso   1.00
C51    C     0.34626   0.13809   0.24095   0.00000  Uiso   1.00
C52    C     0.36851   0.45935   0.76462   0.00000  Uiso   1.00
C53    C     0.38976   0.53505   0.77709   0.00000  Uiso   1.00
C54    C     0.41983   0.53478   0.70620   0.00000  Uiso   1.00
C55    C     0.47143   0.56758   0.61191   0.00000  Uiso   1.00
C56    C     0.30657   0.42640   0.72039   0.00000  Uiso   1.00
C57    C     0.27574   0.47442   0.69564   0.00000  Uiso   1.00
C58    C     0.25366   0.44642   0.58749   0.00000  Uiso   1.00
C59    C     0.20909   0.42806   0.42452   0.00000  Uiso   1.00
C60    C     0.35004   0.31033   0.68512   0.00000  Uiso   1.00
C61    C     0.34742   0.28457   0.83269   0.00000  Uiso   1.00
C62    C     0.35261   0.19892   0.88663   0.00000  Uiso   1.00
C63    C     0.34902   0.18924   0.02403   0.00000  Uiso   1.00
C64    C     0.37698   0.38597   0.68419   0.00000  Uiso   1.00
C65    C     0.40702   0.38559   0.61325   0.00000  Uiso   1.00
C66    C     0.42831   0.46127   0.62562   0.00000  Uiso   1.00
C67    C     0.31504   0.35302   0.63995   0.00000  Uiso   1.00
C68    C     0.29300   0.32495   0.53181   0.00000  Uiso   1.00
C69    C     0.26215   0.37291   0.50690   0.00000  Uiso   1.00
H70    H     0.32785   0.50255   0.89583   0.00000  Uiso   1.00
H71    H     0.32880   0.40519   0.11269   0.00000  Uiso   1.00
H72    H     0.38320   0.59183   0.83934   0.00000  Uiso   1.00
H73    H     0.26920   0.53120   0.75791   0.00000  Uiso   1.00
H74    H     0.33360   0.26489   0.31765   0.00000  Uiso   1.00
H75    H     0.44830   0.65845   0.74125   0.00000  Uiso   1.00
H76    H     0.20791   0.53060   0.56954   0.00000  Uiso   1.00
H77    H     0.35664   0.25320   0.62249   0.00000  Uiso   1.00
H78    H     0.35917   0.14215   0.82435   0.00000  Uiso   1.00
H79    H     0.41357   0.32880   0.55101   0.00000  Uiso   1.00
H80    H     0.29957   0.26816   0.46958   0.00000  Uiso   1.00
H81    H     0.35825   0.05140   0.08363   0.00000  Uiso   1.00
H82    H     0.47295   0.44496   0.50722   0.00000  Uiso   1.00
H83    H     0.23256   0.31711   0.33551   0.00000  Uiso   1.00
O84    O     0.34708   0.08960   0.33838   0.00000  Uiso   1.00
O85    O     0.49755   0.60594   0.58214   0.00000  Uiso   1.00
O86    O     0.18217   0.43820   0.35686   0.00000  Uiso   1.00
N87    N     0.33905   0.22988   0.23487   0.00000  Uiso   1.00
N88    N     0.44628   0.59783   0.69598   0.00000  Uiso   1.00
N89    N     0.22154   0.47832   0.53542   0.00000  Uiso   1.00
N90    N     0.35231   0.11501   0.10894   0.00000  Uiso   1.00
N91    N     0.45955   0.48295   0.57006   0.00000  Uiso   1.00
N92    N     0.23481   0.36344   0.40950   0.00000  Uiso   1.00
C93    C     0.16556   0.94542   0.66679   0.00000  Uiso   1.00
C94    C     0.16105   0.85794   0.58687   0.00000  Uiso   1.00
C95    C     0.16465   0.84838   0.44953   0.00000  Uiso   1.00
C96    C     0.15947   0.76275   0.39539   0.00000  Uiso   1.00
C97    C     0.15374   0.63809   0.25905   0.00000  Uiso   1.00
C98    C     0.13149   0.95935   0.73538   0.00000  Uiso   1.00
C99    C     0.11024   0.03505   0.72291   0.00000  Uiso   1.00
C100   C     0.08017   0.03478   0.79380   0.00000  Uiso   1.00
C101   C     0.02857   0.06758   0.88809   0.00000  Uiso   1.00
C102   C     0.19343   0.92640   0.77961   0.00000  Uiso   1.00
C103   C     0.22426   0.97442   0.80436   0.00000  Uiso   1.00
C104   C     0.24634   0.94642   0.91251   0.00000  Uiso   1.00
C105   C     0.29091   0.92806   0.07548   0.00000  Uiso   1.00
C106   C     0.14996   0.81033   0.81488   0.00000  Uiso   1.00
C107   C     0.15258   0.78457   0.66731   0.00000  Uiso   1.00
C108   C     0.14739   0.69892   0.61337   0.00000  Uiso   1.00
C109   C     0.15098   0.68924   0.47597   0.00000  Uiso   1.00
C110   C     0.12302   0.88597   0.81581   0.00000  Uiso   1.00
C111   C     0.09298   0.88559   0.88675   0.00000  Uiso   1.00
C112   C     0.07169   0.96127   0.87438   0.00000  Uiso   1.00
C113   C     0.18496   0.85302   0.86005   0.00000  Uiso   1.00
C114   C     0.20700   0.82495   0.96819   0.00000  Uiso   1.00
C115   C     0.23785   0.87291   0.99310   0.00000  Uiso   1.00
H116   H     0.17215   0.00255   0.60417   0.00000  Uiso   1.00
H117   H     0.17120   0.90519   0.38731   0.00000  Uiso   1.00
H118   H     0.11680   0.09183   0.66066   0.00000  Uiso   1.00
H119   H     0.23080   0.03120   0.74209   0.00000  Uiso   1.00
H120   H     0.16640   0.76489   0.18235   0.00000  Uiso   1.00
H121   H     0.05170   0.15845   0.75875   0.00000  Uiso   1.00
H122   H     0.29209   0.03060   0.93046   0.00000  Uiso   1.00
H123   H     0.14336   0.75320   0.87751   0.00000  Uiso   1.00
H124   H     0.14083   0.64215   0.67565   0.00000  Uiso   1.00
H125   H     0.08643   0.82880   0.94899   0.00000  Uiso   1.00
H126   H     0.20043   0.76816   0.03042   0.00000  Uiso   1.00
H127   H     0.14175   0.55140   0.41637   0.00000  Uiso   1.00
H128   H     0.02705   0.94496   0.99278   0.00000  Uiso   1.00
H129   H     0.26744   0.81711   0.16449   0.00000  Uiso   1.00
O130   O     0.15292   0.58960   0.16162   0.00000  Uiso   1.00
O131   O     0.00245   0.10594   0.91786   0.00000  Uiso   1.00
O132   O     0.31783   0.93820   0.14314   0.00000  Uiso   1.00
N133   N     0.16095   0.72988   0.26513   0.00000  Uiso   1.00
N134   N     0.05372   0.09783   0.80402   0.00000  Uiso   1.00
N135   N     0.27846   0.97832   0.96458   0.00000  Uiso   1.00
N136   N     0.14769   0.61501   0.39106   0.00000  Uiso   1.00
N137   N     0.04045   0.98295   0.92994   0.00000  Uiso   1.00
N138   N     0.26519   0.86344   0.09050   0.00000  Uiso   1.00
C139   C     0.66556   0.44542   0.66679   0.00000  Uiso   1.00
C140   C     0.66105   0.35794   0.58687   0.00000  Uiso   1.00
C141   C     0.66465   0.34838   0.44953   0.00000  Uiso   1.00
C142   C     0.65947   0.26275   0.39539   0.00000  Uiso   1.00
C143   C     0.65374   0.13809   0.25905   0.00000  Uiso   1.00
C144   C     0.63149   0.45935   0.73538   0.00000  Uiso   1.00
C145   C     0.61024   0.53505   0.72291   0.00000  Uiso   1.00
C146   C     0.58017   0.53478   0.79380   0.00000  Uiso   1.00
C147   C     0.52857   0.56758   0.88809   0.00000  Uiso   1.00
C148   C     0.69343   0.42640   0.77961   0.00000  Uiso   1.00
C149   C     0.72426   0.47442   0.80436   0.00000  Uiso   1.00
C150   C     0.74634   0.44642   0.91251   0.00000  Uiso   1.00
C151   C     0.79091   0.42806   0.07548   0.00000  Uiso   1.00
C152   C     0.64996   0.31033   0.81488   0.00000  Uiso   1.00
C153   C     0.65258   0.28457   0.66731   0.00000  Uiso   1.00
C154   C     0.64739   0.19892   0.61337   0.00000  Uiso   1.00
C155   C     0.65098   0.18924   0.47597   0.00000  Uiso   1.00
C156   C     0.62302   0.38597   0.81581   0.00000  Uiso   1.00
C157   C     0.59298   0.38559   0.88675   0.00000  Uiso   1.00
C158   C     0.57169   0.46127   0.87438   0.00000  Uiso   1.00
C159   C     0.68496   0.35302   0.86005   0.00000  Uiso   1.00
C160   C     0.70700   0.32495   0.96819   0.00000  Uiso   1.00
C161   C     0.73785   0.37291   0.99310   0.00000  Uiso   1.00
H162   H     0.67215   0.50255   0.60417   0.00000  Uiso   1.00
H163   H     0.67120   0.40519   0.38731   0.00000  Uiso   1.00
H164   H     0.61680   0.59183   0.66066   0.00000  Uiso   1.00
H165   H     0.73080   0.53120   0.74209   0.00000  Uiso   1.00
H166   H     0.66640   0.26489   0.18235   0.00000  Uiso   1.00
H167   H     0.55170   0.65845   0.75875   0.00000  Uiso   1.00
H168   H     0.79209   0.53060   0.93046   0.00000  Uiso   1.00
H169   H     0.64336   0.25320   0.87751   0.00000  Uiso   1.00
H170   H     0.64083   0.14215   0.67565   0.00000  Uiso   1.00
H171   H     0.58643   0.32880   0.94899   0.00000  Uiso   1.00
H172   H     0.70043   0.26816   0.03042   0.00000  Uiso   1.00
H173   H     0.64175   0.05140   0.41637   0.00000  Uiso   1.00
H174   H     0.52705   0.44496   0.99278   0.00000  Uiso   1.00
H175   H     0.76744   0.31711   0.16449   0.00000  Uiso   1.00
O176   O     0.65292   0.08960   0.16162   0.00000  Uiso   1.00
O177   O     0.50245   0.60594   0.91786   0.00000  Uiso   1.00
O178   O     0.81783   0.43820   0.14314   0.00000  Uiso   1.00
N179   N     0.66095   0.22988   0.26513   0.00000  Uiso   1.00
N180   N     0.55372   0.59783   0.80402   0.00000  Uiso   1.00
N181   N     0.77846   0.47832   0.96458   0.00000  Uiso   1.00
N182   N     0.64769   0.11501   0.39106   0.00000  Uiso   1.00
N183   N     0.54045   0.48295   0.92994   0.00000  Uiso   1.00
N184   N     0.76519   0.36344   0.09050   0.00000  Uiso   1.00
C185   C     0.16556   0.05458   0.16679   0.00000  Uiso   1.00
C186   C     0.16105   0.14206   0.08687   0.00000  Uiso   1.00
C187   C     0.16465   0.15162   0.94953   0.00000  Uiso   1.00
C188   C     0.15947   0.23725   0.89539   0.00000  Uiso   1.00
C189   C     0.15374   0.36191   0.75905   0.00000  Uiso   1.00
C190   C     0.13149   0.04065   0.23538   0.00000  Uiso   1.00
C191   C     0.11024   0.96495   0.22291   0.00000  Uiso   1.00
C192   C     0.08017   0.96522   0.29380   0.00000  Uiso   1.00
C193   C     0.02857   0.93242   0.38809   0.00000  Uiso   1.00
C194   C     0.19343   0.07360   0.27961   0.00000  Uiso   1.00
C195   C     0.22426   0.02558   0.30436   0.00000  Uiso   1.00
C196   C     0.24634   0.05358   0.41251   0.00000  Uiso   1.00
C197   C     0.29091   0.07194   0.57548   0.00000  Uiso   1.00
C198   C     0.14996   0.18967   0.31488   0.00000  Uiso   1.00
C199   C     0.15258   0.21543   0.16731   0.00000  Uiso   1.00
C200   C     0.14739   0.30108   0.11337   0.00000  Uiso   1.00
C201   C     0.15098   0.31076   0.97597   0.00000  Uiso   1.00
C202   C     0.12302   0.11403   0.31581   0.00000  Uiso   1.00
C203   C     0.09298   0.11441   0.38675   0.00000  Uiso   1.00
C204   C     0.07169   0.03873   0.37438   0.00000  Uiso   1.00
C205   C     0.18496   0.14698   0.36005   0.00000  Uiso   1.00
C206   C     0.20700   0.17505   0.46819   0.00000  Uiso   1.00
C207   C     0.23785   0.12709   0.49310   0.00000  Uiso   1.00
H208   H     0.17215   0.99745   0.10417   0.00000  Uiso   1.00
H209   H     0.17120   0.09481   0.88731   0.00000  Uiso   1.00
H210   H     0.11680   0.90817   0.16066   0.00000  Uiso   1.00
H211   H     0.23080   0.96880   0.24209   0.00000  Uiso   1.00
H212   H     0.16640   0.23511   0.68235   0.00000  Uiso   1.00
H213   H     0.05170   0.84155   0.25875   0.00000  Uiso   1.00
H214   H     0.29209   0.96940   0.43046   0.00000  Uiso   1.00
H215   H     0.14336   0.24680   0.37751   0.00000  Uiso   1.00
H216   H     0.14083   0.35785   0.17565   0.00000  Uiso   1.00
H217   H     0.08643   0.17120   0.44899   0.00000  Uiso   1.00
H218   H     0.20043   0.23184   0.53042   0.00000  Uiso   1.00
H219   H     0.14175   0.44860   0.91637   0.00000  Uiso   1.00
H220   H     0.02705   0.05504   0.49278   0.00000  Uiso   1.00
H221   H     0.26744   0.18289   0.66449   0.00000  Uiso   1.00
O222   O     0.15292   0.41040   0.66162   0.00000  Uiso   1.00
O223   O     0.00245   0.89406   0.41786   0.00000  Uiso   1.00
O224   O     0.31783   0.06180   0.64314   0.00000  Uiso   1.00
N225   N     0.16095   0.27012   0.76513   0.00000  Uiso   1.00
N226   N     0.05372   0.90217   0.30402   0.00000  Uiso   1.00
N227   N     0.27846   0.02168   0.46458   0.00000  Uiso   1.00
N228   N     0.14769   0.38499   0.89106   0.00000  Uiso   1.00
N229   N     0.04045   0.01705   0.42994   0.00000  Uiso   1.00
N230   N     0.26519   0.13656   0.59050   0.00000  Uiso   1.00
C231   C     0.66556   0.55458   0.16679   0.00000  Uiso   1.00
C232   C     0.66105   0.64206   0.08687   0.00000  Uiso   1.00
C233   C     0.66465   0.65162   0.94953   0.00000  Uiso   1.00
C234   C     0.65947   0.73725   0.89539   0.00000  Uiso   1.00
C235   C     0.65374   0.86191   0.75905   0.00000  Uiso   1.00
C236   C     0.63149   0.54065   0.23538   0.00000  Uiso   1.00
C237   C     0.61024   0.46495   0.22291   0.00000  Uiso   1.00
C238   C     0.58017   0.46522   0.29380   0.00000  Uiso   1.00
C239   C     0.52857   0.43242   0.38809   0.00000  Uiso   1.00
C240   C     0.69343   0.57360   0.27961   0.00000  Uiso   1.00
C241   C     0.72426   0.52558   0.30436   0.00000  Uiso   1.00
C242   C     0.74634   0.55358   0.41251   0.00000  Uiso   1.00
C243   C     0.79091   0.57194   0.57548   0.00000  Uiso   1.00
C244   C     0.64996   0.68967   0.31488   0.00000  Uiso   1.00
C245   C     0.65258   0.71543   0.16731   0.00000  Uiso   1.00
C246   C     0.64739   0.80108   0.11337   0.00000  Uiso   1.00
C247   C     0.65098   0.81076   0.97597   0.00000  Uiso   1.00
C248   C     0.62302   0.61403   0.31581   0.00000  Uiso   1.00
C249   C     0.59298   0.61441   0.38675   0.00000  Uiso   1.00
C250   C     0.57169   0.53873   0.37438   0.00000  Uiso   1.00
C251   C     0.68496   0.64698   0.36005   0.00000  Uiso   1.00
C252   C     0.70700   0.67505   0.46819   0.00000  Uiso   1.00
C253   C     0.73785   0.62709   0.49310   0.00000  Uiso   1.00
H254   H     0.67215   0.49745   0.10417   0.00000  Uiso   1.00
H255   H     0.67120   0.59481   0.88731   0.00000  Uiso   1.00
H256   H     0.61680   0.40817   0.16066   0.00000  Uiso   1.00
H257   H     0.73080   0.46880   0.24209   0.00000  Uiso   1.00
H258   H     0.66640   0.73511   0.68235   0.00000  Uiso   1.00
H259   H     0.55170   0.34155   0.25875   0.00000  Uiso   1.00
H260   H     0.79209   0.46940   0.43046   0.00000  Uiso   1.00
H261   H     0.64336   0.74680   0.37751   0.00000  Uiso   1.00
H262   H     0.64083   0.85785   0.17565   0.00000  Uiso   1.00
H263   H     0.58643   0.67120   0.44899   0.00000  Uiso   1.00
H264   H     0.70043   0.73184   0.53042   0.00000  Uiso   1.00
H265   H     0.64175   0.94860   0.91637   0.00000  Uiso   1.00
H266   H     0.52705   0.55504   0.49278   0.00000  Uiso   1.00
H267   H     0.76744   0.68289   0.66449   0.00000  Uiso   1.00
O268   O     0.65292   0.91040   0.66162   0.00000  Uiso   1.00
O269   O     0.50245   0.39406   0.41786   0.00000  Uiso   1.00
O270   O     0.81783   0.56180   0.64314   0.00000  Uiso   1.00
N271   N     0.66095   0.77012   0.76513   0.00000  Uiso   1.00
N272   N     0.55372   0.40217   0.30402   0.00000  Uiso   1.00
N273   N     0.77846   0.52168   0.46458   0.00000  Uiso   1.00
N274   N     0.64769   0.88499   0.89106   0.00000  Uiso   1.00
N275   N     0.54045   0.51705   0.42994   0.00000  Uiso   1.00
N276   N     0.76519   0.63656   0.59050   0.00000  Uiso   1.00
C277   C     0.83444   0.05458   0.33321   0.00000  Uiso   1.00
C278   C     0.83895   0.14206   0.41313   0.00000  Uiso   1.00
C279   C     0.83535   0.15162   0.55047   0.00000  Uiso   1.00
C280   C     0.84053   0.23725   0.60461   0.00000  Uiso   1.00
C281   C     0.84626   0.36191   0.74095   0.00000  Uiso   1.00
C282   C     0.86851   0.04065   0.26462   0.00000  Uiso   1.00
C283   C     0.88976   0.96495   0.27709   0.00000  Uiso   1.00
C284   C     0.91983   0.96522   0.20620   0.00000  Uiso   1.00
C285   C     0.97143   0.93242   0.11191   0.00000  Uiso   1.00
C286   C     0.80657   0.07360   0.22039   0.00000  Uiso   1.00
C287   C     0.77574   0.02558   0.19564   0.00000  Uiso   1.00
C288   C     0.75366   0.05358   0.08749   0.00000  Uiso   1.00
C289   C     0.70909   0.07194   0.92452   0.00000  Uiso   1.00
C290   C     0.85004   0.18967   0.18512   0.00000  Uiso   1.00
C291   C     0.84742   0.21543   0.33269   0.00000  Uiso   1.00
C292   C     0.85261   0.30108   0.38663   0.00000  Uiso   1.00
C293   C     0.84902   0.31076   0.52403   0.00000  Uiso   1.00
C294   C     0.87698   0.11403   0.18419   0.00000  Uiso   1.00
C295   C     0.90702   0.11441   0.11325   0.00000  Uiso   1.00
C296   C     0.92831   0.03873   0.12562   0.00000  Uiso   1.00
C297   C     0.81504   0.14698   0.13995   0.00000  Uiso   1.00
C298   C     0.79300   0.17505   0.03181   0.00000  Uiso   1.00
C299   C     0.76215   0.12709   0.00690   0.00000  Uiso   1.00
H300   H     0.82785   0.99745   0.39583   0.00000  Uiso   1.00
H301   H     0.82880   0.09481   0.61269   0.00000  Uiso   1.00
H302   H     0.88320   0.90817   0.33934   0.00000  Uiso   1.00
H303   H     0.76920   0.96880   0.25791   0.00000  Uiso   1.00
H304   H     0.83360   0.23511   0.81765   0.00000  Uiso   1.00
H305   H     0.94830   0.84155   0.24125   0.00000  Uiso   1.00
H306   H     0.70791   0.96940   0.06954   0.00000  Uiso   1.00
H307   H     0.85664   0.24680   0.12249   0.00000  Uiso   1.00
H308   H     0.85917   0.35785   0.32435   0.00000  Uiso   1.00
H309   H     0.91357   0.17120   0.05101   0.00000  Uiso   1.00
H310   H     0.79957   0.23184   0.96958   0.00000  Uiso   1.00
H311   H     0.85825   0.44860   0.58363   0.00000  Uiso   1.00
H312   H     0.97295   0.05504   0.00722   0.00000  Uiso   1.00
H313   H     0.73256   0.18289   0.83551   0.00000  Uiso   1.00
O314   O     0.84708   0.41040   0.83838   0.00000  Uiso   1.00
O315   O     0.99755   0.89406   0.08214   0.00000  Uiso   1.00
O316   O     0.68217   0.06180   0.85686   0.00000  Uiso   1.00
N317   N     0.83905   0.27012   0.73487   0.00000  Uiso   1.00
N318   N     0.94628   0.90217   0.19598   0.00000  Uiso   1.00
N319   N     0.72154   0.02168   0.03542   0.00000  Uiso   1.00
N320   N     0.85231   0.38499   0.60894   0.00000  Uiso   1.00
N321   N     0.95955   0.01705   0.07006   0.00000  Uiso   1.00
N322   N     0.73481   0.13656   0.90950   0.00000  Uiso   1.00
C323   C     0.33444   0.55458   0.33321   0.00000  Uiso   1.00
C324   C     0.33895   0.64206   0.41313   0.00000  Uiso   1.00
C325   C     0.33535   0.65162   0.55047   0.00000  Uiso   1.00
C326   C     0.34053   0.73725   0.60461   0.00000  Uiso   1.00
C327   C     0.34626   0.86191   0.74095   0.00000  Uiso   1.00
C328   C     0.36851   0.54065   0.26462   0.00000  Uiso   1.00
C329   C     0.38976   0.46495   0.27709   0.00000  Uiso   1.00
C330   C     0.41983   0.46522   0.20620   0.00000  Uiso   1.00
C331   C     0.47143   0.43242   0.11191   0.00000  Uiso   1.00
C332   C     0.30657   0.57360   0.22039   0.00000  Uiso   1.00
C333   C     0.27574   0.52558   0.19564   0.00000  Uiso   1.00
C334   C     0.25366   0.55358   0.08749   0.00000  Uiso   1.00
C335   C     0.20909   0.57194   0.92452   0.00000  Uiso   1.00
C336   C     0.35004   0.68967   0.18512   0.00000  Uiso   1.00
C337   C     0.34742   0.71543   0.33269   0.00000  Uiso   1.00
C338   C     0.35261   0.80108   0.38663   0.00000  Uiso   1.00
C339   C     0.34902   0.81076   0.52403   0.00000  Uiso   1.00
C340   C     0.37698   0.61403   0.18419   0.00000  Uiso   1.00
C341   C     0.40702   0.61441   0.11325   0.00000  Uiso   1.00
C342   C     0.42831   0.53873   0.12562   0.00000  Uiso   1.00
C343   C     0.31504   0.64698   0.13995   0.00000  Uiso   1.00
C344   C     0.29300   0.67505   0.03181   0.00000  Uiso   1.00
C345   C     0.26215   0.62709   0.00690   0.00000  Uiso   1.00
H346   H     0.32785   0.49745   0.39583   0.00000  Uiso   1.00
H347   H     0.32880   0.59481   0.61269   0.00000  Uiso   1.00
H348   H     0.38320   0.40817   0.33934   0.00000  Uiso   1.00
H349   H     0.26920   0.46880   0.25791   0.00000  Uiso   1.00
H350   H     0.33360   0.73511   0.81765   0.00000  Uiso   1.00
H351   H     0.44830   0.34155   0.24125   0.00000  Uiso   1.00
H352   H     0.20791   0.46940   0.06954   0.00000  Uiso   1.00
H353   H     0.35664   0.74680   0.12249   0.00000  Uiso   1.00
H354   H     0.35917   0.85785   0.32435   0.00000  Uiso   1.00
H355   H     0.41357   0.67120   0.05101   0.00000  Uiso   1.00
H356   H     0.29957   0.73184   0.96958   0.00000  Uiso   1.00
H357   H     0.35825   0.94860   0.58363   0.00000  Uiso   1.00
H358   H     0.47295   0.55504   0.00722   0.00000  Uiso   1.00
H359   H     0.23256   0.68289   0.83551   0.00000  Uiso   1.00
O360   O     0.34708   0.91040   0.83838   0.00000  Uiso   1.00
O361   O     0.49755   0.39406   0.08214   0.00000  Uiso   1.00
O362   O     0.18217   0.56180   0.85686   0.00000  Uiso   1.00
N363   N     0.33905   0.77012   0.73487   0.00000  Uiso   1.00
N364   N     0.44628   0.40217   0.19598   0.00000  Uiso   1.00
N365   N     0.22154   0.52168   0.03542   0.00000  Uiso   1.00
N366   N     0.35231   0.88499   0.60894   0.00000  Uiso   1.00
N367   N     0.45955   0.51705   0.07006   0.00000  Uiso   1.00
N368   N     0.23481   0.63656   0.90950   0.00000  Uiso   1.00
