data_job_00865
_audit_creation_date              2018-12-19
_audit_creation_method            'Materials Studio'
_symmetry_space_group_name_H-M    'P1'
_symmetry_Int_Tables_number       1
_symmetry_cell_setting            triclinic
loop_
_symmetry_equiv_pos_as_xyz
  x,y,z
_cell_length_a                    14.2396
_cell_length_b                    39.6294
_cell_length_c                    10.1686
_cell_angle_alpha                 90.0000
_cell_angle_beta                  89.0162
_cell_angle_gamma                 90.0000
loop_
_atom_site_label
_atom_site_type_symbol
_atom_site_fract_x
_atom_site_fract_y
_atom_site_fract_z
_atom_site_U_iso_or_equiv
_atom_site_adp_type
_atom_site_occupancy
C1     C     0.43648   0.88400   0.57442   0.00000  Uiso   1.00
C2     C     0.33579   0.89166   0.61835   0.00000  Uiso   1.00
C3     C     0.25530   0.87999   0.55819   0.00000  Uiso   1.00
C4     C     0.16975   0.88985   0.61335   0.00000  Uiso   1.00
C5     C     0.01413   0.89860   0.66459   0.00000  Uiso   1.00
C6     C     0.48363   0.91812   0.55218   0.00000  Uiso   1.00
C7     C     0.52745   0.92870   0.43639   0.00000  Uiso   1.00
C8     C     0.56636   0.96083   0.43587   0.00000  Uiso   1.00
C9     C     0.64033   0.01065   0.38440   0.00000  Uiso   1.00
C10    C     0.48399   0.86843   0.69318   0.00000  Uiso   1.00
C11    C     0.52814   0.83722   0.69595   0.00000  Uiso   1.00
C12    C     0.56738   0.82750   0.81414   0.00000  Uiso   1.00
C13    C     0.64191   0.80016   0.98160   0.00000  Uiso   1.00
C14    C     0.42769   0.92224   0.77938   0.00000  Uiso   1.00
C15    C     0.33102   0.91244   0.72967   0.00000  Uiso   1.00
C16    C     0.24557   0.92231   0.78495   0.00000  Uiso   1.00
C17    C     0.16496   0.91066   0.72488   0.00000  Uiso   1.00
C18    C     0.47885   0.93890   0.66350   0.00000  Uiso   1.00
C19    C     0.51772   0.97101   0.66316   0.00000  Uiso   1.00
C20    C     0.56158   0.98164   0.54739   0.00000  Uiso   1.00
C21    C     0.47922   0.88920   0.80451   0.00000  Uiso   1.00
C22    C     0.51840   0.87953   0.92272   0.00000  Uiso   1.00
C23    C     0.56260   0.84832   0.92566   0.00000  Uiso   1.00
H24    H     0.44020   0.86783   0.48774   0.00000  Uiso   1.00
H25    H     0.25902   0.86392   0.47202   0.00000  Uiso   1.00
H26    H     0.53114   0.91262   0.35026   0.00000  Uiso   1.00
H27    H     0.53182   0.82115   0.60978   0.00000  Uiso   1.00
H28    H     0.05605   0.86876   0.50366   0.00000  Uiso   1.00
H29    H     0.62985   0.97143   0.24692   0.00000  Uiso   1.00
H30    H     0.63129   0.77856   0.79417   0.00000  Uiso   1.00
H31    H     0.42397   0.93842   0.86606   0.00000  Uiso   1.00
H32    H     0.24189   0.93838   0.87110   0.00000  Uiso   1.00
H33    H     0.51401   0.98708   0.74933   0.00000  Uiso   1.00
H34    H     0.51470   0.89561   0.00885   0.00000  Uiso   1.00
H35    H     0.04214   0.92920   0.82756   0.00000  Uiso   1.00
H36    H     0.61595   0.03187   0.57082   0.00000  Uiso   1.00
H37    H     0.61739   0.83899   0.11807   0.00000  Uiso   1.00
O38    O     0.92962   0.89769   0.66208   0.00000  Uiso   1.00
O39    O     0.68244   0.03239   0.32525   0.00000  Uiso   1.00
O40    O     0.68432   0.77934   0.04323   0.00000  Uiso   1.00
N41    N     0.07776   0.88298   0.57922   0.00000  Uiso   1.00
N42    N     0.61422   0.97898   0.33917   0.00000  Uiso   1.00
N43    N     0.61559   0.79866   0.85079   0.00000  Uiso   1.00
N44    N     0.07028   0.91550   0.75351   0.00000  Uiso   1.00
N45    N     0.60674   0.01150   0.51346   0.00000  Uiso   1.00
N46    N     0.60811   0.83118   0.02508   0.00000  Uiso   1.00
C47    C     0.08397   0.12703   0.67644   0.00000  Uiso   1.00
C48    C     0.98743   0.11662   0.62803   0.00000  Uiso   1.00
C49    C     0.90185   0.12681   0.68196   0.00000  Uiso   1.00
C50    C     0.82141   0.11449   0.62348   0.00000  Uiso   1.00
C51    C     0.67074   0.10163   0.56485   0.00000  Uiso   1.00
C52    C     0.13588   0.09431   0.70594   0.00000  Uiso   1.00
C53    C     0.17512   0.08574   0.82539   0.00000  Uiso   1.00
C54    C     0.21964   0.05464   0.83248   0.00000  Uiso   1.00
C55    C     0.29950   0.00713   0.89478   0.00000  Uiso   1.00
C56    C     0.13498   0.14275   0.55845   0.00000  Uiso   1.00
C57    C     0.17350   0.17490   0.55389   0.00000  Uiso   1.00
C58    C     0.21729   0.18458   0.43682   0.00000  Uiso   1.00
C59    C     0.29576   0.21229   0.27013   0.00000  Uiso   1.00
C60    C     0.09328   0.08703   0.47665   0.00000  Uiso   1.00
C61    C     0.99249   0.09490   0.51951   0.00000  Uiso   1.00
C62    C     0.91215   0.08256   0.46092   0.00000  Uiso   1.00
C63    C     0.82647   0.09273   0.51476   0.00000  Uiso   1.00
C64    C     0.14093   0.07258   0.59743   0.00000  Uiso   1.00
C65    C     0.18541   0.04149   0.60434   0.00000  Uiso   1.00
C66    C     0.22471   0.03287   0.72376   0.00000  Uiso   1.00
C67    C     0.14004   0.12102   0.44993   0.00000  Uiso   1.00
C68    C     0.18379   0.13065   0.33285   0.00000  Uiso   1.00
C69    C     0.22236   0.16282   0.32811   0.00000  Uiso   1.00
H70    H     0.08004   0.14394   0.76093   0.00000  Uiso   1.00
H71    H     0.89797   0.14362   0.76596   0.00000  Uiso   1.00
H72    H     0.17120   0.10255   0.90934   0.00000  Uiso   1.00
H73    H     0.16957   0.19170   0.63789   0.00000  Uiso   1.00
H74    H     0.69835   0.13368   0.72370   0.00000  Uiso   1.00
H75    H     0.27450   0.04709   0.02603   0.00000  Uiso   1.00
H76    H     0.27107   0.23509   0.45362   0.00000  Uiso   1.00
H77    H     0.09722   0.07012   0.39216   0.00000  Uiso   1.00
H78    H     0.91608   0.06575   0.37694   0.00000  Uiso   1.00
H79    H     0.18932   0.02469   0.52034   0.00000  Uiso   1.00
H80    H     0.18769   0.11384   0.24889   0.00000  Uiso   1.00
H81    H     0.71305   0.07048   0.40796   0.00000  Uiso   1.00
H82    H     0.28920   0.98389   0.71030   0.00000  Uiso   1.00
H83    H     0.28577   0.17189   0.13789   0.00000  Uiso   1.00
O84    O     0.58623   0.10053   0.56250   0.00000  Uiso   1.00
O85    O     0.34214   0.98693   0.95914   0.00000  Uiso   1.00
O86    O     0.33763   0.23358   0.20816   0.00000  Uiso   1.00
N87    N     0.72666   0.11941   0.65146   0.00000  Uiso   1.00
N88    N     0.26532   0.03845   0.93413   0.00000  Uiso   1.00
N89    N     0.26213   0.21421   0.39899   0.00000  Uiso   1.00
N90    N     0.73457   0.08540   0.48157   0.00000  Uiso   1.00
N91    N     0.27323   0.00445   0.76424   0.00000  Uiso   1.00
N92    N     0.27004   0.18020   0.22910   0.00000  Uiso   1.00
C93    C     0.55707   0.13050   0.17233   0.00000  Uiso   1.00
C94    C     0.65800   0.12324   0.12844   0.00000  Uiso   1.00
C95    C     0.73810   0.13537   0.18826   0.00000  Uiso   1.00
C96    C     0.82397   0.12584   0.13320   0.00000  Uiso   1.00
C97    C     0.97986   0.11773   0.08196   0.00000  Uiso   1.00
C98    C     0.51115   0.09620   0.19535   0.00000  Uiso   1.00
C99    C     0.46778   0.08559   0.31142   0.00000  Uiso   1.00
C100   C     0.43002   0.05329   0.31267   0.00000  Uiso   1.00
C101   C     0.35786   0.00320   0.36528   0.00000  Uiso   1.00
C102   C     0.50894   0.14568   0.05329   0.00000  Uiso   1.00
C103   C     0.46367   0.17668   0.04992   0.00000  Uiso   1.00
C104   C     0.42402   0.18603   0.93157   0.00000  Uiso   1.00
C105   C     0.34843   0.21278   0.76362   0.00000  Uiso   1.00
C106   C     0.56711   0.09200   0.96818   0.00000  Uiso   1.00
C107   C     0.66345   0.10233   0.01756   0.00000  Uiso   1.00
C108   C     0.74922   0.09278   0.96239   0.00000  Uiso   1.00
C109   C     0.82943   0.10489   0.02211   0.00000  Uiso   1.00
C110   C     0.51661   0.07528   0.08447   0.00000  Uiso   1.00
C111   C     0.47889   0.04299   0.08555   0.00000  Uiso   1.00
C112   C     0.43548   0.03234   0.20158   0.00000  Uiso   1.00
C113   C     0.51439   0.12477   0.94240   0.00000  Uiso   1.00
C114   C     0.47479   0.13408   0.82404   0.00000  Uiso   1.00
C115   C     0.42949   0.16509   0.82049   0.00000  Uiso   1.00
H116   H     0.55282   0.14678   0.25866   0.00000  Uiso   1.00
H117   H     0.73385   0.15155   0.27408   0.00000  Uiso   1.00
H118   H     0.46356   0.10178   0.39721   0.00000  Uiso   1.00
H119   H     0.45947   0.19285   0.13575   0.00000  Uiso   1.00
H120   H     0.93697   0.14761   0.24230   0.00000  Uiso   1.00
H121   H     0.36702   0.04266   0.50191   0.00000  Uiso   1.00
H122   H     0.35838   0.23471   0.95057   0.00000  Uiso   1.00
H123   H     0.57135   0.07572   0.88184   0.00000  Uiso   1.00
H124   H     0.75341   0.07659   0.87658   0.00000  Uiso   1.00
H125   H     0.48312   0.02682   0.99972   0.00000  Uiso   1.00
H126   H     0.47903   0.11789   0.73825   0.00000  Uiso   1.00
H127   H     0.95285   0.08677   0.91968   0.00000  Uiso   1.00
H128   H     0.38289   0.98182   0.17929   0.00000  Uiso   1.00
H129   H     0.37425   0.17387   0.62795   0.00000  Uiso   1.00
O130   O     0.06434   0.11904   0.08435   0.00000  Uiso   1.00
O131   O     0.31657   0.98135   0.42495   0.00000  Uiso   1.00
O132   O     0.30524   0.23331   0.70160   0.00000  Uiso   1.00
N133   N     0.91572   0.13318   0.16707   0.00000  Uiso   1.00
N134   N     0.38286   0.03505   0.40981   0.00000  Uiso   1.00
N135   N     0.37476   0.21460   0.89436   0.00000  Uiso   1.00
N136   N     0.92426   0.10044   0.99347   0.00000  Uiso   1.00
N137   N     0.39141   0.00231   0.23621   0.00000  Uiso   1.00
N138   N     0.38331   0.18186   0.72076   0.00000  Uiso   1.00
C139   C     0.91443   0.88731   0.07249   0.00000  Uiso   1.00
C140   C     0.01091   0.89802   0.12015   0.00000  Uiso   1.00
C141   C     0.09653   0.88812   0.06549   0.00000  Uiso   1.00
C142   C     0.17691   0.90069   0.12336   0.00000  Uiso   1.00
C143   C     0.32750   0.91404   0.18081   0.00000  Uiso   1.00
C144   C     0.86158   0.91986   0.04351   0.00000  Uiso   1.00
C145   C     0.82162   0.92832   0.92442   0.00000  Uiso   1.00
C146   C     0.77628   0.95927   0.91779   0.00000  Uiso   1.00
C147   C     0.69497   0.00652   0.85628   0.00000  Uiso   1.00
C148   C     0.86430   0.87140   0.19082   0.00000  Uiso   1.00
C149   C     0.82662   0.83912   0.19560   0.00000  Uiso   1.00
C150   C     0.78355   0.82928   0.31298   0.00000  Uiso   1.00
C151   C     0.70647   0.80129   0.48020   0.00000  Uiso   1.00
C152   C     0.90494   0.92724   0.27245   0.00000  Uiso   1.00
C153   C     0.00575   0.91971   0.22876   0.00000  Uiso   1.00
C154   C     0.08603   0.93230   0.28673   0.00000  Uiso   1.00
C155   C     0.17175   0.92241   0.23217   0.00000  Uiso   1.00
C156   C     0.85642   0.94155   0.15212   0.00000  Uiso   1.00
C157   C     0.81112   0.97250   0.14566   0.00000  Uiso   1.00
C158   C     0.77111   0.98100   0.02659   0.00000  Uiso   1.00
C159   C     0.85915   0.89309   0.29944   0.00000  Uiso   1.00
C160   C     0.81612   0.88330   0.41684   0.00000  Uiso   1.00
C161   C     0.77838   0.85101   0.42179   0.00000  Uiso   1.00
H162   H     0.91844   0.87042   0.98792   0.00000  Uiso   1.00
H163   H     0.10049   0.87133   0.98143   0.00000  Uiso   1.00
H164   H     0.82562   0.91153   0.84039   0.00000  Uiso   1.00
H165   H     0.83062   0.82235   0.11153   0.00000  Uiso   1.00
H166   H     0.30005   0.88192   0.02210   0.00000  Uiso   1.00
H167   H     0.72044   0.96667   0.72473   0.00000  Uiso   1.00
H168   H     0.73098   0.77861   0.29646   0.00000  Uiso   1.00
H169   H     0.90092   0.94412   0.35701   0.00000  Uiso   1.00
H170   H     0.08201   0.94908   0.37078   0.00000  Uiso   1.00
H171   H     0.80714   0.98927   0.22973   0.00000  Uiso   1.00
H172   H     0.81214   0.90009   0.50087   0.00000  Uiso   1.00
H173   H     0.28505   0.94502   0.33811   0.00000  Uiso   1.00
H174   H     0.70543   0.02977   0.04073   0.00000  Uiso   1.00
H175   H     0.71598   0.84171   0.61247   0.00000  Uiso   1.00
O176   O     0.41199   0.91541   0.18248   0.00000  Uiso   1.00
O177   O     0.65155   0.02659   0.79233   0.00000  Uiso   1.00
O178   O     0.66539   0.77986   0.54244   0.00000  Uiso   1.00
N179   N     0.27167   0.89609   0.09460   0.00000  Uiso   1.00
N180   N     0.72978   0.97532   0.81656   0.00000  Uiso   1.00
N181   N     0.73961   0.79951   0.35108   0.00000  Uiso   1.00
N182   N     0.26360   0.93004   0.26465   0.00000  Uiso   1.00
N183   N     0.72171   0.00928   0.98661   0.00000  Uiso   1.00
N184   N     0.73154   0.83346   0.52112   0.00000  Uiso   1.00
C185   C     0.56352   0.38400   0.42558   0.00000  Uiso   1.00
C186   C     0.66421   0.39166   0.38165   0.00000  Uiso   1.00
C187   C     0.74470   0.37999   0.44181   0.00000  Uiso   1.00
C188   C     0.83025   0.38985   0.38665   0.00000  Uiso   1.00
C189   C     0.98587   0.39860   0.33541   0.00000  Uiso   1.00
C190   C     0.51637   0.41812   0.44782   0.00000  Uiso   1.00
C191   C     0.47255   0.42870   0.56361   0.00000  Uiso   1.00
C192   C     0.43364   0.46083   0.56413   0.00000  Uiso   1.00
C193   C     0.35967   0.51065   0.61560   0.00000  Uiso   1.00
C194   C     0.51601   0.36843   0.30682   0.00000  Uiso   1.00
C195   C     0.47186   0.33722   0.30405   0.00000  Uiso   1.00
C196   C     0.43262   0.32750   0.18586   0.00000  Uiso   1.00
C197   C     0.35809   0.30016   0.01840   0.00000  Uiso   1.00
C198   C     0.57231   0.42224   0.22062   0.00000  Uiso   1.00
C199   C     0.66898   0.41244   0.27033   0.00000  Uiso   1.00
C200   C     0.75443   0.42231   0.21505   0.00000  Uiso   1.00
C201   C     0.83504   0.41066   0.27512   0.00000  Uiso   1.00
C202   C     0.52115   0.43890   0.33650   0.00000  Uiso   1.00
C203   C     0.48228   0.47101   0.33684   0.00000  Uiso   1.00
C204   C     0.43842   0.48164   0.45261   0.00000  Uiso   1.00
C205   C     0.52078   0.38920   0.19549   0.00000  Uiso   1.00
C206   C     0.48160   0.37953   0.07728   0.00000  Uiso   1.00
C207   C     0.43740   0.34832   0.07434   0.00000  Uiso   1.00
H208   H     0.55980   0.36783   0.51226   0.00000  Uiso   1.00
H209   H     0.74098   0.36392   0.52798   0.00000  Uiso   1.00
H210   H     0.46886   0.41262   0.64974   0.00000  Uiso   1.00
H211   H     0.46818   0.32115   0.39022   0.00000  Uiso   1.00
H212   H     0.94395   0.36876   0.49634   0.00000  Uiso   1.00
H213   H     0.37015   0.47143   0.75308   0.00000  Uiso   1.00
H214   H     0.36871   0.27856   0.20583   0.00000  Uiso   1.00
H215   H     0.57603   0.43842   0.13394   0.00000  Uiso   1.00
H216   H     0.75811   0.43838   0.12890   0.00000  Uiso   1.00
H217   H     0.48599   0.48708   0.25067   0.00000  Uiso   1.00
H218   H     0.48530   0.39561   0.99115   0.00000  Uiso   1.00
H219   H     0.95786   0.42920   0.17244   0.00000  Uiso   1.00
H220   H     0.38405   0.53187   0.42918   0.00000  Uiso   1.00
H221   H     0.38261   0.33899   0.88193   0.00000  Uiso   1.00
O222   O     0.07038   0.39769   0.33792   0.00000  Uiso   1.00
O223   O     0.31756   0.53239   0.67475   0.00000  Uiso   1.00
O224   O     0.31568   0.27934   0.95677   0.00000  Uiso   1.00
N225   N     0.92224   0.38298   0.42078   0.00000  Uiso   1.00
N226   N     0.38578   0.47898   0.66083   0.00000  Uiso   1.00
N227   N     0.38441   0.29866   0.14921   0.00000  Uiso   1.00
N228   N     0.92972   0.41550   0.24649   0.00000  Uiso   1.00
N229   N     0.39326   0.51150   0.48654   0.00000  Uiso   1.00
N230   N     0.39189   0.33118   0.97492   0.00000  Uiso   1.00
C231   C     0.91603   0.62703   0.32356   0.00000  Uiso   1.00
C232   C     0.01257   0.61662   0.37197   0.00000  Uiso   1.00
C233   C     0.09815   0.62681   0.31804   0.00000  Uiso   1.00
C234   C     0.17859   0.61449   0.37652   0.00000  Uiso   1.00
C235   C     0.32926   0.60163   0.43515   0.00000  Uiso   1.00
C236   C     0.86412   0.59431   0.29406   0.00000  Uiso   1.00
C237   C     0.82488   0.58574   0.17461   0.00000  Uiso   1.00
C238   C     0.78036   0.55464   0.16752   0.00000  Uiso   1.00
C239   C     0.70050   0.50713   0.10522   0.00000  Uiso   1.00
C240   C     0.86502   0.64275   0.44155   0.00000  Uiso   1.00
C241   C     0.82650   0.67490   0.44611   0.00000  Uiso   1.00
C242   C     0.78271   0.68458   0.56318   0.00000  Uiso   1.00
C243   C     0.70424   0.71229   0.72987   0.00000  Uiso   1.00
C244   C     0.90672   0.58703   0.52335   0.00000  Uiso   1.00
C245   C     0.00751   0.59490   0.48049   0.00000  Uiso   1.00
C246   C     0.08785   0.58256   0.53908   0.00000  Uiso   1.00
C247   C     0.17353   0.59273   0.48524   0.00000  Uiso   1.00
C248   C     0.85907   0.57258   0.40257   0.00000  Uiso   1.00
C249   C     0.81459   0.54149   0.39566   0.00000  Uiso   1.00
C250   C     0.77529   0.53287   0.27624   0.00000  Uiso   1.00
C251   C     0.85996   0.62102   0.55007   0.00000  Uiso   1.00
C252   C     0.81621   0.63065   0.66715   0.00000  Uiso   1.00
C253   C     0.77764   0.66282   0.67189   0.00000  Uiso   1.00
H254   H     0.91996   0.64394   0.23907   0.00000  Uiso   1.00
H255   H     0.10203   0.64362   0.23404   0.00000  Uiso   1.00
H256   H     0.82880   0.60255   0.09066   0.00000  Uiso   1.00
H257   H     0.83043   0.69170   0.36211   0.00000  Uiso   1.00
H258   H     0.30165   0.63368   0.27630   0.00000  Uiso   1.00
H259   H     0.72550   0.54709   0.97397   0.00000  Uiso   1.00
H260   H     0.72893   0.73509   0.54638   0.00000  Uiso   1.00
H261   H     0.90278   0.57012   0.60784   0.00000  Uiso   1.00
H262   H     0.08392   0.56575   0.62306   0.00000  Uiso   1.00
H263   H     0.81068   0.52469   0.47966   0.00000  Uiso   1.00
H264   H     0.81231   0.61384   0.75111   0.00000  Uiso   1.00
H265   H     0.28695   0.57048   0.59204   0.00000  Uiso   1.00
H266   H     0.71080   0.48389   0.28970   0.00000  Uiso   1.00
H267   H     0.71423   0.67189   0.86211   0.00000  Uiso   1.00
O268   O     0.41377   0.60053   0.43750   0.00000  Uiso   1.00
O269   O     0.65786   0.48693   0.04086   0.00000  Uiso   1.00
O270   O     0.66237   0.73358   0.79184   0.00000  Uiso   1.00
N271   N     0.27334   0.61941   0.34854   0.00000  Uiso   1.00
N272   N     0.73468   0.53845   0.06587   0.00000  Uiso   1.00
N273   N     0.73787   0.71421   0.60101   0.00000  Uiso   1.00
N274   N     0.26543   0.58540   0.51843   0.00000  Uiso   1.00
N275   N     0.72677   0.50445   0.23576   0.00000  Uiso   1.00
N276   N     0.72996   0.68020   0.77090   0.00000  Uiso   1.00
C277   C     0.44293   0.63050   0.82767   0.00000  Uiso   1.00
C278   C     0.34200   0.62324   0.87156   0.00000  Uiso   1.00
C279   C     0.26190   0.63537   0.81174   0.00000  Uiso   1.00
C280   C     0.17603   0.62584   0.86680   0.00000  Uiso   1.00
C281   C     0.02014   0.61773   0.91804   0.00000  Uiso   1.00
C282   C     0.48885   0.59620   0.80465   0.00000  Uiso   1.00
C283   C     0.53222   0.58559   0.68858   0.00000  Uiso   1.00
C284   C     0.56998   0.55329   0.68733   0.00000  Uiso   1.00
C285   C     0.64214   0.50320   0.63472   0.00000  Uiso   1.00
C286   C     0.49106   0.64568   0.94671   0.00000  Uiso   1.00
C287   C     0.53633   0.67668   0.95008   0.00000  Uiso   1.00
C288   C     0.57598   0.68603   0.06843   0.00000  Uiso   1.00
C289   C     0.65157   0.71278   0.23638   0.00000  Uiso   1.00
C290   C     0.43289   0.59200   0.03182   0.00000  Uiso   1.00
C291   C     0.33655   0.60233   0.98244   0.00000  Uiso   1.00
C292   C     0.25078   0.59278   0.03761   0.00000  Uiso   1.00
C293   C     0.17057   0.60489   0.97789   0.00000  Uiso   1.00
C294   C     0.48339   0.57528   0.91553   0.00000  Uiso   1.00
C295   C     0.52111   0.54299   0.91445   0.00000  Uiso   1.00
C296   C     0.56452   0.53234   0.79842   0.00000  Uiso   1.00
C297   C     0.48561   0.62477   0.05760   0.00000  Uiso   1.00
C298   C     0.52521   0.63408   0.17596   0.00000  Uiso   1.00
C299   C     0.57051   0.66509   0.17951   0.00000  Uiso   1.00
H300   H     0.44718   0.64678   0.74134   0.00000  Uiso   1.00
H301   H     0.26615   0.65155   0.72592   0.00000  Uiso   1.00
H302   H     0.53644   0.60178   0.60279   0.00000  Uiso   1.00
H303   H     0.54053   0.69285   0.86425   0.00000  Uiso   1.00
H304   H     0.06303   0.64761   0.75770   0.00000  Uiso   1.00
H305   H     0.63298   0.54266   0.49809   0.00000  Uiso   1.00
H306   H     0.64162   0.73471   0.04943   0.00000  Uiso   1.00
H307   H     0.42865   0.57572   0.11816   0.00000  Uiso   1.00
H308   H     0.24659   0.57659   0.12342   0.00000  Uiso   1.00
H309   H     0.51688   0.52682   0.00028   0.00000  Uiso   1.00
H310   H     0.52097   0.61789   0.26175   0.00000  Uiso   1.00
H311   H     0.04715   0.58677   0.08032   0.00000  Uiso   1.00
H312   H     0.61711   0.48182   0.82071   0.00000  Uiso   1.00
H313   H     0.62575   0.67387   0.37205   0.00000  Uiso   1.00
O314   O     0.93566   0.61904   0.91565   0.00000  Uiso   1.00
O315   O     0.68343   0.48135   0.57505   0.00000  Uiso   1.00
O316   O     0.69476   0.73331   0.29840   0.00000  Uiso   1.00
N317   N     0.08428   0.63318   0.83293   0.00000  Uiso   1.00
N318   N     0.61714   0.53505   0.59019   0.00000  Uiso   1.00
N319   N     0.62524   0.71460   0.10564   0.00000  Uiso   1.00
N320   N     0.07574   0.60044   0.00653   0.00000  Uiso   1.00
N321   N     0.60859   0.50231   0.76379   0.00000  Uiso   1.00
N322   N     0.61669   0.68186   0.27924   0.00000  Uiso   1.00
C323   C     0.08557   0.38731   0.92751   0.00000  Uiso   1.00
C324   C     0.98909   0.39802   0.87985   0.00000  Uiso   1.00
C325   C     0.90347   0.38812   0.93451   0.00000  Uiso   1.00
C326   C     0.82309   0.40069   0.87664   0.00000  Uiso   1.00
C327   C     0.67250   0.41404   0.81919   0.00000  Uiso   1.00
C328   C     0.13842   0.41986   0.95649   0.00000  Uiso   1.00
C329   C     0.17838   0.42832   0.07558   0.00000  Uiso   1.00
C330   C     0.22372   0.45927   0.08221   0.00000  Uiso   1.00
C331   C     0.30503   0.50652   0.14372   0.00000  Uiso   1.00
C332   C     0.13570   0.37140   0.80918   0.00000  Uiso   1.00
C333   C     0.17338   0.33912   0.80440   0.00000  Uiso   1.00
C334   C     0.21645   0.32928   0.68702   0.00000  Uiso   1.00
C335   C     0.29353   0.30129   0.51980   0.00000  Uiso   1.00
C336   C     0.09506   0.42724   0.72755   0.00000  Uiso   1.00
C337   C     0.99425   0.41971   0.77124   0.00000  Uiso   1.00
C338   C     0.91397   0.43230   0.71327   0.00000  Uiso   1.00
C339   C     0.82825   0.42241   0.76783   0.00000  Uiso   1.00
C340   C     0.14358   0.44155   0.84788   0.00000  Uiso   1.00
C341   C     0.18888   0.47250   0.85434   0.00000  Uiso   1.00
C342   C     0.22889   0.48100   0.97341   0.00000  Uiso   1.00
C343   C     0.14085   0.39309   0.70056   0.00000  Uiso   1.00
C344   C     0.18388   0.38330   0.58316   0.00000  Uiso   1.00
C345   C     0.22162   0.35101   0.57821   0.00000  Uiso   1.00
H346   H     0.08156   0.37042   0.01208   0.00000  Uiso   1.00
H347   H     0.89951   0.37133   0.01857   0.00000  Uiso   1.00
H348   H     0.17438   0.41153   0.15961   0.00000  Uiso   1.00
H349   H     0.16938   0.32235   0.88847   0.00000  Uiso   1.00
H350   H     0.69995   0.38192   0.97790   0.00000  Uiso   1.00
H351   H     0.27956   0.46667   0.27527   0.00000  Uiso   1.00
H352   H     0.26902   0.27861   0.70354   0.00000  Uiso   1.00
H353   H     0.09908   0.44412   0.64299   0.00000  Uiso   1.00
H354   H     0.91799   0.44908   0.62922   0.00000  Uiso   1.00
H355   H     0.19286   0.48927   0.77027   0.00000  Uiso   1.00
H356   H     0.18786   0.40009   0.49913   0.00000  Uiso   1.00
H357   H     0.71495   0.44502   0.66189   0.00000  Uiso   1.00
H358   H     0.29457   0.52977   0.95927   0.00000  Uiso   1.00
H359   H     0.28402   0.34171   0.38753   0.00000  Uiso   1.00
O360   O     0.58801   0.41541   0.81752   0.00000  Uiso   1.00
O361   O     0.34845   0.52659   0.20767   0.00000  Uiso   1.00
O362   O     0.33461   0.27986   0.45756   0.00000  Uiso   1.00
N363   N     0.72833   0.39609   0.90540   0.00000  Uiso   1.00
N364   N     0.27022   0.47532   0.18344   0.00000  Uiso   1.00
N365   N     0.26039   0.29951   0.64892   0.00000  Uiso   1.00
N366   N     0.73640   0.43004   0.73535   0.00000  Uiso   1.00
N367   N     0.27829   0.50928   0.01339   0.00000  Uiso   1.00
N368   N     0.26846   0.33346   0.47888   0.00000  Uiso   1.00
