data_job_00769
_audit_creation_date              2018-12-19
_audit_creation_method            'Materials Studio'
_symmetry_space_group_name_H-M    'P1'
_symmetry_Int_Tables_number       1
_symmetry_cell_setting            triclinic
loop_
_symmetry_equiv_pos_as_xyz
  x,y,z
_cell_length_a                    9.4023
_cell_length_b                    22.9101
_cell_length_c                    25.4913
_cell_angle_alpha                 90.0000
_cell_angle_beta                  90.0000
_cell_angle_gamma                 90.0000
loop_
_atom_site_label
_atom_site_type_symbol
_atom_site_fract_x
_atom_site_fract_y
_atom_site_fract_z
_atom_site_U_iso_or_equiv
_atom_site_adp_type
_atom_site_occupancy
C1     C     0.74073   0.08778   0.06758   0.00000  Uiso   1.00
C2     C     0.88436   0.08812   0.03980   0.00000  Uiso   1.00
C3     C     0.90514   0.08617   0.98593   0.00000  Uiso   1.00
C4     C     0.04480   0.08687   0.96826   0.00000  Uiso   1.00
C5     C     0.25039   0.08697   0.91980   0.00000  Uiso   1.00
C6     C     0.74443   0.03610   0.10526   0.00000  Uiso   1.00
C7     C     0.64754   0.99042   0.10642   0.00000  Uiso   1.00
C8     C     0.66941   0.94733   0.14386   0.00000  Uiso   1.00
C9     C     0.65769   0.86670   0.19705   0.00000  Uiso   1.00
C10    C     0.73806   0.14234   0.10183   0.00000  Uiso   1.00
C11    C     0.63579   0.18598   0.10014   0.00000  Uiso   1.00
C12    C     0.65227   0.23232   0.13470   0.00000  Uiso   1.00
C13    C     0.63065   0.31664   0.18258   0.00000  Uiso   1.00
C14    C     0.95183   0.09248   0.13200   0.00000  Uiso   1.00
C15    C     0.99902   0.09067   0.07479   0.00000  Uiso   1.00
C16    C     0.13869   0.09137   0.05720   0.00000  Uiso   1.00
C17    C     0.15967   0.08943   0.00331   0.00000  Uiso   1.00
C18    C     0.85909   0.03865   0.14024   0.00000  Uiso   1.00
C19    C     0.88110   0.99562   0.17769   0.00000  Uiso   1.00
C20    C     0.78427   0.94988   0.17891   0.00000  Uiso   1.00
C21    C     0.85272   0.14489   0.13682   0.00000  Uiso   1.00
C22    C     0.86935   0.19118   0.17140   0.00000  Uiso   1.00
C23    C     0.76714   0.23488   0.16976   0.00000  Uiso   1.00
H24    H     0.65146   0.08579   0.04034   0.00000  Uiso   1.00
H25    H     0.81637   0.08419   0.95887   0.00000  Uiso   1.00
H26    H     0.55881   0.98846   0.07935   0.00000  Uiso   1.00
H27    H     0.54707   0.18399   0.07306   0.00000  Uiso   1.00
H28    H     0.04978   0.08352   0.88396   0.00000  Uiso   1.00
H29    H     0.50667   0.88168   0.13801   0.00000  Uiso   1.00
H30    H     0.48190   0.29398   0.12475   0.00000  Uiso   1.00
H31    H     0.04110   0.09447   0.15924   0.00000  Uiso   1.00
H32    H     0.22740   0.09335   0.08429   0.00000  Uiso   1.00
H33    H     0.96984   0.99761   0.20476   0.00000  Uiso   1.00
H34    H     0.95810   0.19314   0.19848   0.00000  Uiso   1.00
H35    H     0.38339   0.09095   0.98576   0.00000  Uiso   1.00
H36    H     0.84027   0.88910   0.23981   0.00000  Uiso   1.00
H37    H     0.81551   0.30141   0.22655   0.00000  Uiso   1.00
O38    O     0.33211   0.08632   0.88341   0.00000  Uiso   1.00
O39    O     0.61955   0.82151   0.21671   0.00000  Uiso   1.00
O40    O     0.58707   0.36245   0.19932   0.00000  Uiso   1.00
N41    N     0.10272   0.08544   0.91821   0.00000  Uiso   1.00
N42    N     0.59496   0.89672   0.15572   0.00000  Uiso   1.00
N43    N     0.57179   0.28218   0.14333   0.00000  Uiso   1.00
N44    N     0.28224   0.08943   0.97298   0.00000  Uiso   1.00
N45    N     0.77447   0.90071   0.21050   0.00000  Uiso   1.00
N46    N     0.75130   0.28618   0.19811   0.00000  Uiso   1.00
C47    C     0.24073   0.58778   0.06758   0.00000  Uiso   1.00
C48    C     0.38436   0.58812   0.03980   0.00000  Uiso   1.00
C49    C     0.40514   0.58617   0.98593   0.00000  Uiso   1.00
C50    C     0.54480   0.58687   0.96826   0.00000  Uiso   1.00
C51    C     0.75039   0.58697   0.91980   0.00000  Uiso   1.00
C52    C     0.24443   0.53610   0.10526   0.00000  Uiso   1.00
C53    C     0.14754   0.49042   0.10642   0.00000  Uiso   1.00
C54    C     0.16941   0.44733   0.14386   0.00000  Uiso   1.00
C55    C     0.15769   0.36670   0.19705   0.00000  Uiso   1.00
C56    C     0.23806   0.64234   0.10183   0.00000  Uiso   1.00
C57    C     0.13579   0.68598   0.10014   0.00000  Uiso   1.00
C58    C     0.15227   0.73232   0.13470   0.00000  Uiso   1.00
C59    C     0.13065   0.81664   0.18258   0.00000  Uiso   1.00
C60    C     0.45183   0.59248   0.13200   0.00000  Uiso   1.00
C61    C     0.49902   0.59067   0.07479   0.00000  Uiso   1.00
C62    C     0.63869   0.59137   0.05720   0.00000  Uiso   1.00
C63    C     0.65967   0.58943   0.00331   0.00000  Uiso   1.00
C64    C     0.35909   0.53865   0.14024   0.00000  Uiso   1.00
C65    C     0.38110   0.49562   0.17769   0.00000  Uiso   1.00
C66    C     0.28427   0.44988   0.17891   0.00000  Uiso   1.00
C67    C     0.35272   0.64489   0.13682   0.00000  Uiso   1.00
C68    C     0.36935   0.69118   0.17140   0.00000  Uiso   1.00
C69    C     0.26714   0.73488   0.16976   0.00000  Uiso   1.00
H70    H     0.15146   0.58579   0.04034   0.00000  Uiso   1.00
H71    H     0.31637   0.58419   0.95887   0.00000  Uiso   1.00
H72    H     0.05881   0.48846   0.07935   0.00000  Uiso   1.00
H73    H     0.04707   0.68399   0.07306   0.00000  Uiso   1.00
H74    H     0.54978   0.58352   0.88396   0.00000  Uiso   1.00
H75    H     0.00667   0.38168   0.13801   0.00000  Uiso   1.00
H76    H     0.98190   0.79398   0.12475   0.00000  Uiso   1.00
H77    H     0.54110   0.59447   0.15924   0.00000  Uiso   1.00
H78    H     0.72740   0.59335   0.08429   0.00000  Uiso   1.00
H79    H     0.46984   0.49761   0.20476   0.00000  Uiso   1.00
H80    H     0.45810   0.69314   0.19848   0.00000  Uiso   1.00
H81    H     0.88339   0.59095   0.98576   0.00000  Uiso   1.00
H82    H     0.34027   0.38910   0.23981   0.00000  Uiso   1.00
H83    H     0.31551   0.80141   0.22655   0.00000  Uiso   1.00
O84    O     0.83211   0.58632   0.88341   0.00000  Uiso   1.00
O85    O     0.11955   0.32151   0.21671   0.00000  Uiso   1.00
O86    O     0.08707   0.86245   0.19932   0.00000  Uiso   1.00
N87    N     0.60272   0.58544   0.91821   0.00000  Uiso   1.00
N88    N     0.09496   0.39672   0.15572   0.00000  Uiso   1.00
N89    N     0.07179   0.78218   0.14333   0.00000  Uiso   1.00
N90    N     0.78224   0.58943   0.97298   0.00000  Uiso   1.00
N91    N     0.27447   0.40071   0.21050   0.00000  Uiso   1.00
N92    N     0.25130   0.78618   0.19811   0.00000  Uiso   1.00
C93    C     0.25927   0.91222   0.56758   0.00000  Uiso   1.00
C94    C     0.11564   0.91188   0.53980   0.00000  Uiso   1.00
C95    C     0.09486   0.91383   0.48593   0.00000  Uiso   1.00
C96    C     0.95520   0.91313   0.46826   0.00000  Uiso   1.00
C97    C     0.74961   0.91303   0.41980   0.00000  Uiso   1.00
C98    C     0.25557   0.96390   0.60526   0.00000  Uiso   1.00
C99    C     0.35246   0.00958   0.60642   0.00000  Uiso   1.00
C100   C     0.33059   0.05267   0.64386   0.00000  Uiso   1.00
C101   C     0.34231   0.13330   0.69705   0.00000  Uiso   1.00
C102   C     0.26194   0.85766   0.60183   0.00000  Uiso   1.00
C103   C     0.36421   0.81402   0.60014   0.00000  Uiso   1.00
C104   C     0.34773   0.76768   0.63470   0.00000  Uiso   1.00
C105   C     0.36935   0.68336   0.68258   0.00000  Uiso   1.00
C106   C     0.04817   0.90752   0.63200   0.00000  Uiso   1.00
C107   C     0.00098   0.90933   0.57479   0.00000  Uiso   1.00
C108   C     0.86131   0.90863   0.55720   0.00000  Uiso   1.00
C109   C     0.84033   0.91057   0.50331   0.00000  Uiso   1.00
C110   C     0.14091   0.96135   0.64024   0.00000  Uiso   1.00
C111   C     0.11890   0.00438   0.67769   0.00000  Uiso   1.00
C112   C     0.21573   0.05012   0.67891   0.00000  Uiso   1.00
C113   C     0.14728   0.85511   0.63682   0.00000  Uiso   1.00
C114   C     0.13065   0.80882   0.67140   0.00000  Uiso   1.00
C115   C     0.23286   0.76512   0.66976   0.00000  Uiso   1.00
H116   H     0.34854   0.91421   0.54034   0.00000  Uiso   1.00
H117   H     0.18363   0.91581   0.45887   0.00000  Uiso   1.00
H118   H     0.44119   0.01154   0.57935   0.00000  Uiso   1.00
H119   H     0.45293   0.81601   0.57306   0.00000  Uiso   1.00
H120   H     0.95022   0.91648   0.38396   0.00000  Uiso   1.00
H121   H     0.49333   0.11832   0.63801   0.00000  Uiso   1.00
H122   H     0.51810   0.70602   0.62475   0.00000  Uiso   1.00
H123   H     0.95890   0.90553   0.65924   0.00000  Uiso   1.00
H124   H     0.77260   0.90665   0.58429   0.00000  Uiso   1.00
H125   H     0.03016   0.00239   0.70476   0.00000  Uiso   1.00
H126   H     0.04190   0.80686   0.69848   0.00000  Uiso   1.00
H127   H     0.61661   0.90905   0.48576   0.00000  Uiso   1.00
H128   H     0.15973   0.11090   0.73981   0.00000  Uiso   1.00
H129   H     0.18449   0.69859   0.72655   0.00000  Uiso   1.00
O130   O     0.66789   0.91368   0.38341   0.00000  Uiso   1.00
O131   O     0.38045   0.17849   0.71671   0.00000  Uiso   1.00
O132   O     0.41293   0.63755   0.69932   0.00000  Uiso   1.00
N133   N     0.89728   0.91456   0.41821   0.00000  Uiso   1.00
N134   N     0.40504   0.10328   0.65572   0.00000  Uiso   1.00
N135   N     0.42821   0.71782   0.64333   0.00000  Uiso   1.00
N136   N     0.71776   0.91057   0.47298   0.00000  Uiso   1.00
N137   N     0.22553   0.09929   0.71050   0.00000  Uiso   1.00
N138   N     0.24870   0.71382   0.69811   0.00000  Uiso   1.00
C139   C     0.75927   0.41222   0.56758   0.00000  Uiso   1.00
C140   C     0.61564   0.41188   0.53980   0.00000  Uiso   1.00
C141   C     0.59486   0.41383   0.48593   0.00000  Uiso   1.00
C142   C     0.45520   0.41313   0.46826   0.00000  Uiso   1.00
C143   C     0.24961   0.41303   0.41980   0.00000  Uiso   1.00
C144   C     0.75557   0.46390   0.60526   0.00000  Uiso   1.00
C145   C     0.85246   0.50958   0.60642   0.00000  Uiso   1.00
C146   C     0.83059   0.55267   0.64386   0.00000  Uiso   1.00
C147   C     0.84231   0.63330   0.69705   0.00000  Uiso   1.00
C148   C     0.76194   0.35766   0.60183   0.00000  Uiso   1.00
C149   C     0.86421   0.31402   0.60014   0.00000  Uiso   1.00
C150   C     0.84773   0.26768   0.63470   0.00000  Uiso   1.00
C151   C     0.86935   0.18336   0.68258   0.00000  Uiso   1.00
C152   C     0.54817   0.40752   0.63200   0.00000  Uiso   1.00
C153   C     0.50098   0.40933   0.57479   0.00000  Uiso   1.00
C154   C     0.36131   0.40863   0.55720   0.00000  Uiso   1.00
C155   C     0.34033   0.41057   0.50331   0.00000  Uiso   1.00
C156   C     0.64091   0.46135   0.64024   0.00000  Uiso   1.00
C157   C     0.61890   0.50438   0.67769   0.00000  Uiso   1.00
C158   C     0.71573   0.55012   0.67891   0.00000  Uiso   1.00
C159   C     0.64728   0.35511   0.63682   0.00000  Uiso   1.00
C160   C     0.63065   0.30882   0.67140   0.00000  Uiso   1.00
C161   C     0.73286   0.26512   0.66976   0.00000  Uiso   1.00
H162   H     0.84854   0.41421   0.54034   0.00000  Uiso   1.00
H163   H     0.68363   0.41581   0.45887   0.00000  Uiso   1.00
H164   H     0.94119   0.51154   0.57935   0.00000  Uiso   1.00
H165   H     0.95293   0.31601   0.57306   0.00000  Uiso   1.00
H166   H     0.45022   0.41648   0.38396   0.00000  Uiso   1.00
H167   H     0.99333   0.61832   0.63801   0.00000  Uiso   1.00
H168   H     0.01810   0.20602   0.62475   0.00000  Uiso   1.00
H169   H     0.45890   0.40553   0.65924   0.00000  Uiso   1.00
H170   H     0.27260   0.40665   0.58429   0.00000  Uiso   1.00
H171   H     0.53016   0.50239   0.70476   0.00000  Uiso   1.00
H172   H     0.54190   0.30686   0.69848   0.00000  Uiso   1.00
H173   H     0.11661   0.40905   0.48576   0.00000  Uiso   1.00
H174   H     0.65973   0.61090   0.73981   0.00000  Uiso   1.00
H175   H     0.68449   0.19859   0.72655   0.00000  Uiso   1.00
O176   O     0.16789   0.41368   0.38341   0.00000  Uiso   1.00
O177   O     0.88045   0.67849   0.71671   0.00000  Uiso   1.00
O178   O     0.91293   0.13755   0.69932   0.00000  Uiso   1.00
N179   N     0.39728   0.41456   0.41821   0.00000  Uiso   1.00
N180   N     0.90504   0.60328   0.65572   0.00000  Uiso   1.00
N181   N     0.92821   0.21782   0.64333   0.00000  Uiso   1.00
N182   N     0.21776   0.41057   0.47298   0.00000  Uiso   1.00
N183   N     0.72553   0.59929   0.71050   0.00000  Uiso   1.00
N184   N     0.74870   0.21382   0.69811   0.00000  Uiso   1.00
C185   C     0.25927   0.08778   0.43242   0.00000  Uiso   1.00
C186   C     0.11564   0.08812   0.46020   0.00000  Uiso   1.00
C187   C     0.09486   0.08617   0.51407   0.00000  Uiso   1.00
C188   C     0.95520   0.08687   0.53174   0.00000  Uiso   1.00
C189   C     0.74961   0.08697   0.58020   0.00000  Uiso   1.00
C190   C     0.25557   0.03610   0.39474   0.00000  Uiso   1.00
C191   C     0.35246   0.99042   0.39358   0.00000  Uiso   1.00
C192   C     0.33059   0.94733   0.35614   0.00000  Uiso   1.00
C193   C     0.34231   0.86670   0.30295   0.00000  Uiso   1.00
C194   C     0.26194   0.14234   0.39817   0.00000  Uiso   1.00
C195   C     0.36421   0.18598   0.39986   0.00000  Uiso   1.00
C196   C     0.34773   0.23232   0.36530   0.00000  Uiso   1.00
C197   C     0.36935   0.31664   0.31742   0.00000  Uiso   1.00
C198   C     0.04817   0.09248   0.36800   0.00000  Uiso   1.00
C199   C     0.00098   0.09067   0.42521   0.00000  Uiso   1.00
C200   C     0.86131   0.09137   0.44280   0.00000  Uiso   1.00
C201   C     0.84033   0.08943   0.49669   0.00000  Uiso   1.00
C202   C     0.14091   0.03865   0.35976   0.00000  Uiso   1.00
C203   C     0.11890   0.99562   0.32231   0.00000  Uiso   1.00
C204   C     0.21573   0.94988   0.32109   0.00000  Uiso   1.00
C205   C     0.14728   0.14489   0.36318   0.00000  Uiso   1.00
C206   C     0.13065   0.19118   0.32860   0.00000  Uiso   1.00
C207   C     0.23286   0.23488   0.33024   0.00000  Uiso   1.00
H208   H     0.34854   0.08579   0.45966   0.00000  Uiso   1.00
H209   H     0.18363   0.08419   0.54113   0.00000  Uiso   1.00
H210   H     0.44119   0.98846   0.42065   0.00000  Uiso   1.00
H211   H     0.45293   0.18399   0.42694   0.00000  Uiso   1.00
H212   H     0.95022   0.08352   0.61604   0.00000  Uiso   1.00
H213   H     0.49333   0.88168   0.36199   0.00000  Uiso   1.00
H214   H     0.51810   0.29398   0.37525   0.00000  Uiso   1.00
H215   H     0.95890   0.09447   0.34076   0.00000  Uiso   1.00
H216   H     0.77260   0.09335   0.41571   0.00000  Uiso   1.00
H217   H     0.03016   0.99761   0.29524   0.00000  Uiso   1.00
H218   H     0.04190   0.19314   0.30152   0.00000  Uiso   1.00
H219   H     0.61661   0.09095   0.51424   0.00000  Uiso   1.00
H220   H     0.15973   0.88910   0.26019   0.00000  Uiso   1.00
H221   H     0.18449   0.30141   0.27345   0.00000  Uiso   1.00
O222   O     0.66789   0.08632   0.61659   0.00000  Uiso   1.00
O223   O     0.38045   0.82151   0.28329   0.00000  Uiso   1.00
O224   O     0.41293   0.36245   0.30068   0.00000  Uiso   1.00
N225   N     0.89728   0.08544   0.58179   0.00000  Uiso   1.00
N226   N     0.40504   0.89672   0.34428   0.00000  Uiso   1.00
N227   N     0.42821   0.28218   0.35667   0.00000  Uiso   1.00
N228   N     0.71776   0.08943   0.52702   0.00000  Uiso   1.00
N229   N     0.22553   0.90071   0.28950   0.00000  Uiso   1.00
N230   N     0.24870   0.28618   0.30189   0.00000  Uiso   1.00
C231   C     0.75927   0.58778   0.43242   0.00000  Uiso   1.00
C232   C     0.61564   0.58812   0.46020   0.00000  Uiso   1.00
C233   C     0.59486   0.58617   0.51407   0.00000  Uiso   1.00
C234   C     0.45520   0.58687   0.53174   0.00000  Uiso   1.00
C235   C     0.24961   0.58697   0.58020   0.00000  Uiso   1.00
C236   C     0.75557   0.53610   0.39474   0.00000  Uiso   1.00
C237   C     0.85246   0.49042   0.39358   0.00000  Uiso   1.00
C238   C     0.83059   0.44733   0.35614   0.00000  Uiso   1.00
C239   C     0.84231   0.36670   0.30295   0.00000  Uiso   1.00
C240   C     0.76194   0.64234   0.39817   0.00000  Uiso   1.00
C241   C     0.86421   0.68598   0.39986   0.00000  Uiso   1.00
C242   C     0.84773   0.73232   0.36530   0.00000  Uiso   1.00
C243   C     0.86935   0.81664   0.31742   0.00000  Uiso   1.00
C244   C     0.54817   0.59248   0.36800   0.00000  Uiso   1.00
C245   C     0.50098   0.59067   0.42521   0.00000  Uiso   1.00
C246   C     0.36131   0.59137   0.44280   0.00000  Uiso   1.00
C247   C     0.34033   0.58943   0.49669   0.00000  Uiso   1.00
C248   C     0.64091   0.53865   0.35976   0.00000  Uiso   1.00
C249   C     0.61890   0.49562   0.32231   0.00000  Uiso   1.00
C250   C     0.71573   0.44988   0.32109   0.00000  Uiso   1.00
C251   C     0.64728   0.64489   0.36318   0.00000  Uiso   1.00
C252   C     0.63065   0.69118   0.32860   0.00000  Uiso   1.00
C253   C     0.73286   0.73488   0.33024   0.00000  Uiso   1.00
H254   H     0.84854   0.58579   0.45966   0.00000  Uiso   1.00
H255   H     0.68363   0.58419   0.54113   0.00000  Uiso   1.00
H256   H     0.94119   0.48846   0.42065   0.00000  Uiso   1.00
H257   H     0.95293   0.68399   0.42694   0.00000  Uiso   1.00
H258   H     0.45022   0.58352   0.61604   0.00000  Uiso   1.00
H259   H     0.99333   0.38168   0.36199   0.00000  Uiso   1.00
H260   H     0.01810   0.79398   0.37525   0.00000  Uiso   1.00
H261   H     0.45890   0.59447   0.34076   0.00000  Uiso   1.00
H262   H     0.27260   0.59335   0.41571   0.00000  Uiso   1.00
H263   H     0.53016   0.49761   0.29524   0.00000  Uiso   1.00
H264   H     0.54190   0.69314   0.30152   0.00000  Uiso   1.00
H265   H     0.11661   0.59095   0.51424   0.00000  Uiso   1.00
H266   H     0.65973   0.38910   0.26019   0.00000  Uiso   1.00
H267   H     0.68449   0.80141   0.27345   0.00000  Uiso   1.00
O268   O     0.16789   0.58632   0.61659   0.00000  Uiso   1.00
O269   O     0.88045   0.32151   0.28329   0.00000  Uiso   1.00
O270   O     0.91293   0.86245   0.30068   0.00000  Uiso   1.00
N271   N     0.39728   0.58544   0.58179   0.00000  Uiso   1.00
N272   N     0.90504   0.39672   0.34428   0.00000  Uiso   1.00
N273   N     0.92821   0.78218   0.35667   0.00000  Uiso   1.00
N274   N     0.21776   0.58943   0.52702   0.00000  Uiso   1.00
N275   N     0.72553   0.40071   0.28950   0.00000  Uiso   1.00
N276   N     0.74870   0.78618   0.30189   0.00000  Uiso   1.00
C277   C     0.74073   0.91222   0.93242   0.00000  Uiso   1.00
C278   C     0.88436   0.91188   0.96020   0.00000  Uiso   1.00
C279   C     0.90514   0.91383   0.01407   0.00000  Uiso   1.00
C280   C     0.04480   0.91313   0.03174   0.00000  Uiso   1.00
C281   C     0.25039   0.91303   0.08020   0.00000  Uiso   1.00
C282   C     0.74443   0.96390   0.89474   0.00000  Uiso   1.00
C283   C     0.64754   0.00958   0.89358   0.00000  Uiso   1.00
C284   C     0.66941   0.05267   0.85614   0.00000  Uiso   1.00
C285   C     0.65769   0.13330   0.80295   0.00000  Uiso   1.00
C286   C     0.73806   0.85766   0.89817   0.00000  Uiso   1.00
C287   C     0.63579   0.81402   0.89986   0.00000  Uiso   1.00
C288   C     0.65227   0.76768   0.86530   0.00000  Uiso   1.00
C289   C     0.63065   0.68336   0.81742   0.00000  Uiso   1.00
C290   C     0.95183   0.90752   0.86800   0.00000  Uiso   1.00
C291   C     0.99902   0.90933   0.92521   0.00000  Uiso   1.00
C292   C     0.13869   0.90863   0.94280   0.00000  Uiso   1.00
C293   C     0.15967   0.91057   0.99669   0.00000  Uiso   1.00
C294   C     0.85909   0.96135   0.85976   0.00000  Uiso   1.00
C295   C     0.88110   0.00438   0.82231   0.00000  Uiso   1.00
C296   C     0.78427   0.05012   0.82109   0.00000  Uiso   1.00
C297   C     0.85272   0.85511   0.86318   0.00000  Uiso   1.00
C298   C     0.86935   0.80882   0.82860   0.00000  Uiso   1.00
C299   C     0.76714   0.76512   0.83024   0.00000  Uiso   1.00
H300   H     0.65146   0.91421   0.95966   0.00000  Uiso   1.00
H301   H     0.81637   0.91581   0.04113   0.00000  Uiso   1.00
H302   H     0.55881   0.01154   0.92065   0.00000  Uiso   1.00
H303   H     0.54707   0.81601   0.92694   0.00000  Uiso   1.00
H304   H     0.04978   0.91648   0.11604   0.00000  Uiso   1.00
H305   H     0.50667   0.11832   0.86199   0.00000  Uiso   1.00
H306   H     0.48190   0.70602   0.87525   0.00000  Uiso   1.00
H307   H     0.04110   0.90553   0.84076   0.00000  Uiso   1.00
H308   H     0.22740   0.90665   0.91571   0.00000  Uiso   1.00
H309   H     0.96984   0.00239   0.79524   0.00000  Uiso   1.00
H310   H     0.95810   0.80686   0.80152   0.00000  Uiso   1.00
H311   H     0.38339   0.90905   0.01424   0.00000  Uiso   1.00
H312   H     0.84027   0.11090   0.76019   0.00000  Uiso   1.00
H313   H     0.81551   0.69859   0.77345   0.00000  Uiso   1.00
O314   O     0.33211   0.91368   0.11659   0.00000  Uiso   1.00
O315   O     0.61955   0.17849   0.78329   0.00000  Uiso   1.00
O316   O     0.58707   0.63755   0.80068   0.00000  Uiso   1.00
N317   N     0.10272   0.91456   0.08179   0.00000  Uiso   1.00
N318   N     0.59496   0.10328   0.84428   0.00000  Uiso   1.00
N319   N     0.57179   0.71782   0.85667   0.00000  Uiso   1.00
N320   N     0.28224   0.91057   0.02702   0.00000  Uiso   1.00
N321   N     0.77447   0.09929   0.78950   0.00000  Uiso   1.00
N322   N     0.75130   0.71382   0.80189   0.00000  Uiso   1.00
C323   C     0.24073   0.41222   0.93242   0.00000  Uiso   1.00
C324   C     0.38436   0.41188   0.96020   0.00000  Uiso   1.00
C325   C     0.40514   0.41383   0.01407   0.00000  Uiso   1.00
C326   C     0.54480   0.41313   0.03174   0.00000  Uiso   1.00
C327   C     0.75039   0.41303   0.08020   0.00000  Uiso   1.00
C328   C     0.24443   0.46390   0.89474   0.00000  Uiso   1.00
C329   C     0.14754   0.50958   0.89358   0.00000  Uiso   1.00
C330   C     0.16941   0.55267   0.85614   0.00000  Uiso   1.00
C331   C     0.15769   0.63330   0.80295   0.00000  Uiso   1.00
C332   C     0.23806   0.35766   0.89817   0.00000  Uiso   1.00
C333   C     0.13579   0.31402   0.89986   0.00000  Uiso   1.00
C334   C     0.15227   0.26768   0.86530   0.00000  Uiso   1.00
C335   C     0.13065   0.18336   0.81742   0.00000  Uiso   1.00
C336   C     0.45183   0.40752   0.86800   0.00000  Uiso   1.00
C337   C     0.49902   0.40933   0.92521   0.00000  Uiso   1.00
C338   C     0.63869   0.40863   0.94280   0.00000  Uiso   1.00
C339   C     0.65967   0.41057   0.99669   0.00000  Uiso   1.00
C340   C     0.35909   0.46135   0.85976   0.00000  Uiso   1.00
C341   C     0.38110   0.50438   0.82231   0.00000  Uiso   1.00
C342   C     0.28427   0.55012   0.82109   0.00000  Uiso   1.00
C343   C     0.35272   0.35511   0.86318   0.00000  Uiso   1.00
C344   C     0.36935   0.30882   0.82860   0.00000  Uiso   1.00
C345   C     0.26714   0.26512   0.83024   0.00000  Uiso   1.00
H346   H     0.15146   0.41421   0.95966   0.00000  Uiso   1.00
H347   H     0.31637   0.41581   0.04113   0.00000  Uiso   1.00
H348   H     0.05881   0.51154   0.92065   0.00000  Uiso   1.00
H349   H     0.04707   0.31601   0.92694   0.00000  Uiso   1.00
H350   H     0.54978   0.41648   0.11604   0.00000  Uiso   1.00
H351   H     0.00667   0.61832   0.86199   0.00000  Uiso   1.00
H352   H     0.98190   0.20602   0.87525   0.00000  Uiso   1.00
H353   H     0.54110   0.40553   0.84076   0.00000  Uiso   1.00
H354   H     0.72740   0.40665   0.91571   0.00000  Uiso   1.00
H355   H     0.46984   0.50239   0.79524   0.00000  Uiso   1.00
H356   H     0.45810   0.30686   0.80152   0.00000  Uiso   1.00
H357   H     0.88339   0.40905   0.01424   0.00000  Uiso   1.00
H358   H     0.34027   0.61090   0.76019   0.00000  Uiso   1.00
H359   H     0.31551   0.19859   0.77345   0.00000  Uiso   1.00
O360   O     0.83211   0.41368   0.11659   0.00000  Uiso   1.00
O361   O     0.11955   0.67849   0.78329   0.00000  Uiso   1.00
O362   O     0.08707   0.13755   0.80068   0.00000  Uiso   1.00
N363   N     0.60272   0.41456   0.08179   0.00000  Uiso   1.00
N364   N     0.09496   0.60328   0.84428   0.00000  Uiso   1.00
N365   N     0.07179   0.21782   0.85667   0.00000  Uiso   1.00
N366   N     0.78224   0.41057   0.02702   0.00000  Uiso   1.00
N367   N     0.27447   0.59929   0.78950   0.00000  Uiso   1.00
N368   N     0.25130   0.21382   0.80189   0.00000  Uiso   1.00
