data_job_06259
_audit_creation_date              2018-12-19
_audit_creation_method            'Materials Studio'
_symmetry_space_group_name_H-M    'P1'
_symmetry_Int_Tables_number       1
_symmetry_cell_setting            triclinic
loop_
_symmetry_equiv_pos_as_xyz
  x,y,z
_cell_length_a                    8.9322
_cell_length_b                    23.5792
_cell_length_c                    24.3296
_cell_angle_alpha                 118.2830
_cell_angle_beta                  80.2460
_cell_angle_gamma                 88.8408
loop_
_atom_site_label
_atom_site_type_symbol
_atom_site_fract_x
_atom_site_fract_y
_atom_site_fract_z
_atom_site_U_iso_or_equiv
_atom_site_adp_type
_atom_site_occupancy
C1     C     0.80067   0.62478   0.88535   0.00000  Uiso   1.00
C2     C     0.86914   0.62233   0.82233   0.00000  Uiso   1.00
C3     C     0.79453   0.60779   0.77241   0.00000  Uiso   1.00
C4     C     0.87696   0.60806   0.71877   0.00000  Uiso   1.00
C5     C     0.96024   0.60206   0.62144   0.00000  Uiso   1.00
C6     C     0.90685   0.57776   0.89179   0.00000  Uiso   1.00
C7     C     0.86392   0.52574   0.90027   0.00000  Uiso   1.00
C8     C     0.97810   0.48850   0.90511   0.00000  Uiso   1.00
C9     C     0.11990   0.41332   0.91566   0.00000  Uiso   1.00
C10    C     0.81728   0.69229   0.93750   0.00000  Uiso   1.00
C11    C     0.69905   0.73657   0.98443   0.00000  Uiso   1.00
C12    C     0.73783   0.79575   0.02776   0.00000  Uiso   1.00
C13    C     0.74056   0.89840   0.10928   0.00000  Uiso   1.00
C14    C     0.07975   0.65113   0.87888   0.00000  Uiso   1.00
C15    C     0.02073   0.63665   0.81882   0.00000  Uiso   1.00
C16    C     0.10329   0.63695   0.76524   0.00000  Uiso   1.00
C17    C     0.02881   0.62240   0.71525   0.00000  Uiso   1.00
C18    C     0.05843   0.59207   0.88827   0.00000  Uiso   1.00
C19    C     0.17269   0.55490   0.89311   0.00000  Uiso   1.00
C20    C     0.12996   0.50284   0.90159   0.00000  Uiso   1.00
C21    C     0.96886   0.70661   0.93398   0.00000  Uiso   1.00
C22    C     0.00783   0.76573   0.97726   0.00000  Uiso   1.00
C23    C     0.88969   0.81009   0.02424   0.00000  Uiso   1.00
H24    H     0.68266   0.61363   0.88809   0.00000  Uiso   1.00
H25    H     0.67722   0.59671   0.77515   0.00000  Uiso   1.00
H26    H     0.74661   0.51468   0.90300   0.00000  Uiso   1.00
H27    H     0.58177   0.72548   0.98713   0.00000  Uiso   1.00
H28    H     0.73806   0.58423   0.64836   0.00000  Uiso   1.00
H29    H     0.88436   0.41129   0.91797   0.00000  Uiso   1.00
H30    H     0.53675   0.85580   0.09539   0.00000  Uiso   1.00
H31    H     0.19777   0.66228   0.87614   0.00000  Uiso   1.00
H32    H     0.22060   0.64802   0.76254   0.00000  Uiso   1.00
H33    H     0.28998   0.56599   0.89039   0.00000  Uiso   1.00
H34    H     0.12514   0.77679   0.97452   0.00000  Uiso   1.00
H35    H     0.17909   0.62588   0.63813   0.00000  Uiso   1.00
H36    H     0.32538   0.45293   0.90773   0.00000  Uiso   1.00
H37    H     0.97778   0.89744   0.08515   0.00000  Uiso   1.00
O38    O     0.96431   0.59478   0.56872   0.00000  Uiso   1.00
O39    O     0.15624   0.36789   0.92244   0.00000  Uiso   1.00
O40    O     0.70019   0.95108   0.15521   0.00000  Uiso   1.00
N41    N     0.83871   0.59600   0.66155   0.00000  Uiso   1.00
N42    N     0.97550   0.43430   0.91360   0.00000  Uiso   1.00
N43    N     0.65052   0.84987   0.07949   0.00000  Uiso   1.00
N44    N     0.07602   0.61841   0.65604   0.00000  Uiso   1.00
N45    N     0.21281   0.45671   0.90810   0.00000  Uiso   1.00
N46    N     0.88783   0.87229   0.07398   0.00000  Uiso   1.00
C47    C     0.67065   0.11234   0.73848   0.00000  Uiso   1.00
C48    C     0.67745   0.17696   0.79688   0.00000  Uiso   1.00
C49    C     0.55539   0.22478   0.83385   0.00000  Uiso   1.00
C50    C     0.58507   0.28041   0.88528   0.00000  Uiso   1.00
C51    C     0.57335   0.37963   0.97382   0.00000  Uiso   1.00
C52    C     0.78986   0.10948   0.68408   0.00000  Uiso   1.00
C53    C     0.76231   0.10055   0.62620   0.00000  Uiso   1.00
C54    C     0.88663   0.09937   0.58267   0.00000  Uiso   1.00
C55    C     0.04945   0.09377   0.49606   0.00000  Uiso   1.00
C56    C     0.72952   0.06001   0.75203   0.00000  Uiso   1.00
C57    C     0.65126   0.00948   0.75127   0.00000  Uiso   1.00
C58    C     0.72480   0.96663   0.76494   0.00000  Uiso   1.00
C59    C     0.79393   0.88423   0.78383   0.00000  Uiso   1.00
C60    C     0.94041   0.12610   0.76408   0.00000  Uiso   1.00
C61    C     0.82397   0.18443   0.81078   0.00000  Uiso   1.00
C62    C     0.85385   0.24000   0.86217   0.00000  Uiso   1.00
C63    C     0.73185   0.28790   0.89921   0.00000  Uiso   1.00
C64    C     0.93638   0.11695   0.69798   0.00000  Uiso   1.00
C65    C     0.06077   0.11578   0.65452   0.00000  Uiso   1.00
C66    C     0.03342   0.10685   0.59660   0.00000  Uiso   1.00
C67    C     0.87604   0.06748   0.76593   0.00000  Uiso   1.00
C68    C     0.94972   0.02471   0.77959   0.00000  Uiso   1.00
C69    C     0.87158   0.97412   0.77886   0.00000  Uiso   1.00
H70    H     0.55659   0.10652   0.72766   0.00000  Uiso   1.00
H71    H     0.44202   0.21898   0.82307   0.00000  Uiso   1.00
H72    H     0.64892   0.09476   0.61545   0.00000  Uiso   1.00
H73    H     0.53788   0.00371   0.74051   0.00000  Uiso   1.00
H74    H     0.37963   0.34697   0.93498   0.00000  Uiso   1.00
H75    H     0.81589   0.08503   0.49719   0.00000  Uiso   1.00
H76    H     0.58175   0.89302   0.76089   0.00000  Uiso   1.00
H77    H     0.05449   0.13192   0.77490   0.00000  Uiso   1.00
H78    H     0.96724   0.24578   0.87292   0.00000  Uiso   1.00
H79    H     0.17414   0.12156   0.66529   0.00000  Uiso   1.00
H80    H     0.06310   0.03051   0.79035   0.00000  Uiso   1.00
H81    H     0.80592   0.36872   0.97543   0.00000  Uiso   1.00
H82    H     0.24218   0.10678   0.53764   0.00000  Uiso   1.00
H83    H     0.00804   0.91477   0.80135   0.00000  Uiso   1.00
O84    O     0.52641   0.43229   0.01882   0.00000  Uiso   1.00
O85    O     0.09877   0.08863   0.44446   0.00000  Uiso   1.00
O86    O     0.79158   0.83672   0.79043   0.00000  Uiso   1.00
N87    N     0.49193   0.33645   0.93106   0.00000  Uiso   1.00
N88    N     0.89980   0.09157   0.52176   0.00000  Uiso   1.00
N89    N     0.68091   0.91205   0.76828   0.00000  Uiso   1.00
N90    N     0.72131   0.34816   0.95282   0.00000  Uiso   1.00
N91    N     0.12918   0.10327   0.54352   0.00000  Uiso   1.00
N92    N     0.91030   0.92375   0.79004   0.00000  Uiso   1.00
C93    C     0.42348   0.26401   0.37623   0.00000  Uiso   1.00
C94    C     0.47908   0.20523   0.38100   0.00000  Uiso   1.00
C95    C     0.38667   0.16445   0.39362   0.00000  Uiso   1.00
C96    C     0.45955   0.11336   0.39604   0.00000  Uiso   1.00
C97    C     0.52160   0.02361   0.40499   0.00000  Uiso   1.00
C98    C     0.48969   0.32146   0.42454   0.00000  Uiso   1.00
C99    C     0.40620   0.37841   0.47375   0.00000  Uiso   1.00
C100   C     0.48803   0.42516   0.51282   0.00000  Uiso   1.00
C101   C     0.56656   0.51588   0.58933   0.00000  Uiso   1.00
C102   C     0.50300   0.25285   0.31072   0.00000  Uiso   1.00
C103   C     0.43072   0.25212   0.26423   0.00000  Uiso   1.00
C104   C     0.52376   0.24112   0.20747   0.00000  Uiso   1.00
C105   C     0.62296   0.22531   0.10726   0.00000  Uiso   1.00
C106   C     0.71725   0.24577   0.35810   0.00000  Uiso   1.00
C107   C     0.63864   0.19533   0.37116   0.00000  Uiso   1.00
C108   C     0.71169   0.14428   0.37356   0.00000  Uiso   1.00
C109   C     0.61940   0.10343   0.38617   0.00000  Uiso   1.00
C110   C     0.64925   0.31156   0.41470   0.00000  Uiso   1.00
C111   C     0.73122   0.35823   0.45369   0.00000  Uiso   1.00
C112   C     0.64788   0.41523   0.50295   0.00000  Uiso   1.00
C113   C     0.66257   0.24294   0.30087   0.00000  Uiso   1.00
C114   C     0.75574   0.23194   0.24417   0.00000  Uiso   1.00
C115   C     0.68361   0.23120   0.19761   0.00000  Uiso   1.00
H116   H     0.29926   0.27173   0.38390   0.00000  Uiso   1.00
H117   H     0.26318   0.17214   0.40124   0.00000  Uiso   1.00
H118   H     0.28272   0.38606   0.48135   0.00000  Uiso   1.00
H119   H     0.30723   0.25979   0.27187   0.00000  Uiso   1.00
H120   H     0.29356   0.05737   0.41615   0.00000  Uiso   1.00
H121   H     0.33475   0.50845   0.58507   0.00000  Uiso   1.00
H122   H     0.38644   0.24219   0.14332   0.00000  Uiso   1.00
H123   H     0.84149   0.23807   0.35043   0.00000  Uiso   1.00
H124   H     0.83517   0.13662   0.36594   0.00000  Uiso   1.00
H125   H     0.85470   0.35055   0.44606   0.00000  Uiso   1.00
H126   H     0.87922   0.22428   0.23657   0.00000  Uiso   1.00
H127   H     0.75780   0.02855   0.38750   0.00000  Uiso   1.00
H128   H     0.79899   0.47963   0.55642   0.00000  Uiso   1.00
H129   H     0.85069   0.21337   0.11467   0.00000  Uiso   1.00
O130   O     0.51174   0.97685   0.41265   0.00000  Uiso   1.00
O131   O     0.56578   0.56866   0.63425   0.00000  Uiso   1.00
O132   O     0.63360   0.21932   0.05470   0.00000  Uiso   1.00
N133   N     0.40369   0.06450   0.40727   0.00000  Uiso   1.00
N134   N     0.44220   0.48623   0.56520   0.00000  Uiso   1.00
N135   N     0.49053   0.23732   0.15221   0.00000  Uiso   1.00
N136   N     0.65349   0.04899   0.39185   0.00000  Uiso   1.00
N137   N     0.69200   0.47072   0.54978   0.00000  Uiso   1.00
N138   N     0.74033   0.22181   0.13679   0.00000  Uiso   1.00
C139   C     0.19933   0.37522   0.11465   0.00000  Uiso   1.00
C140   C     0.13086   0.37767   0.17767   0.00000  Uiso   1.00
C141   C     0.20547   0.39221   0.22759   0.00000  Uiso   1.00
C142   C     0.12304   0.39194   0.28123   0.00000  Uiso   1.00
C143   C     0.03976   0.39794   0.37856   0.00000  Uiso   1.00
C144   C     0.09315   0.42224   0.10821   0.00000  Uiso   1.00
C145   C     0.13608   0.47426   0.09973   0.00000  Uiso   1.00
C146   C     0.02190   0.51150   0.09489   0.00000  Uiso   1.00
C147   C     0.88010   0.58668   0.08434   0.00000  Uiso   1.00
C148   C     0.18272   0.30771   0.06250   0.00000  Uiso   1.00
C149   C     0.30095   0.26343   0.01557   0.00000  Uiso   1.00
C150   C     0.26217   0.20425   0.97224   0.00000  Uiso   1.00
C151   C     0.25944   0.10160   0.89072   0.00000  Uiso   1.00
C152   C     0.92025   0.34887   0.12112   0.00000  Uiso   1.00
C153   C     0.97927   0.36335   0.18118   0.00000  Uiso   1.00
C154   C     0.89671   0.36305   0.23476   0.00000  Uiso   1.00
C155   C     0.97119   0.37760   0.28475   0.00000  Uiso   1.00
C156   C     0.94157   0.40793   0.11173   0.00000  Uiso   1.00
C157   C     0.82731   0.44510   0.10689   0.00000  Uiso   1.00
C158   C     0.87004   0.49716   0.09841   0.00000  Uiso   1.00
C159   C     0.03114   0.29339   0.06602   0.00000  Uiso   1.00
C160   C     0.99217   0.23427   0.02274   0.00000  Uiso   1.00
C161   C     0.11031   0.18991   0.97576   0.00000  Uiso   1.00
H162   H     0.31734   0.38637   0.11191   0.00000  Uiso   1.00
H163   H     0.32278   0.40329   0.22485   0.00000  Uiso   1.00
H164   H     0.25339   0.48532   0.09700   0.00000  Uiso   1.00
H165   H     0.41823   0.27452   0.01287   0.00000  Uiso   1.00
H166   H     0.26194   0.41577   0.35164   0.00000  Uiso   1.00
H167   H     0.11564   0.58871   0.08203   0.00000  Uiso   1.00
H168   H     0.46325   0.14420   0.90461   0.00000  Uiso   1.00
H169   H     0.80223   0.33772   0.12386   0.00000  Uiso   1.00
H170   H     0.77940   0.35198   0.23746   0.00000  Uiso   1.00
H171   H     0.71002   0.43401   0.10961   0.00000  Uiso   1.00
H172   H     0.87486   0.22321   0.02548   0.00000  Uiso   1.00
H173   H     0.82091   0.37412   0.36187   0.00000  Uiso   1.00
H174   H     0.67462   0.54707   0.09227   0.00000  Uiso   1.00
H175   H     0.02222   0.10256   0.91485   0.00000  Uiso   1.00
O176   O     0.03569   0.40522   0.43128   0.00000  Uiso   1.00
O177   O     0.84376   0.63211   0.07756   0.00000  Uiso   1.00
O178   O     0.29981   0.04893   0.84479   0.00000  Uiso   1.00
N179   N     0.16129   0.40400   0.33845   0.00000  Uiso   1.00
N180   N     0.02450   0.56570   0.08640   0.00000  Uiso   1.00
N181   N     0.34948   0.15013   0.92051   0.00000  Uiso   1.00
N182   N     0.92398   0.38159   0.34396   0.00000  Uiso   1.00
N183   N     0.78719   0.54329   0.09190   0.00000  Uiso   1.00
N184   N     0.11217   0.12771   0.92602   0.00000  Uiso   1.00
C185   C     0.32935   0.88766   0.26152   0.00000  Uiso   1.00
C186   C     0.32255   0.82304   0.20312   0.00000  Uiso   1.00
C187   C     0.44461   0.77522   0.16615   0.00000  Uiso   1.00
C188   C     0.41493   0.71959   0.11472   0.00000  Uiso   1.00
C189   C     0.42665   0.62038   0.02617   0.00000  Uiso   1.00
C190   C     0.21014   0.89052   0.31592   0.00000  Uiso   1.00
C191   C     0.23769   0.89945   0.37380   0.00000  Uiso   1.00
C192   C     0.11337   0.90063   0.41733   0.00000  Uiso   1.00
C193   C     0.95055   0.90623   0.50394   0.00000  Uiso   1.00
C194   C     0.27048   0.93999   0.24797   0.00000  Uiso   1.00
C195   C     0.34874   0.99052   0.24873   0.00000  Uiso   1.00
C196   C     0.27520   0.03337   0.23506   0.00000  Uiso   1.00
C197   C     0.20607   0.11577   0.21617   0.00000  Uiso   1.00
C198   C     0.05959   0.87390   0.23592   0.00000  Uiso   1.00
C199   C     0.17603   0.81557   0.18922   0.00000  Uiso   1.00
C200   C     0.14615   0.76000   0.13783   0.00000  Uiso   1.00
C201   C     0.26815   0.71210   0.10079   0.00000  Uiso   1.00
C202   C     0.06362   0.88305   0.30202   0.00000  Uiso   1.00
C203   C     0.93923   0.88422   0.34548   0.00000  Uiso   1.00
C204   C     0.96658   0.89315   0.40340   0.00000  Uiso   1.00
C205   C     0.12396   0.93252   0.23407   0.00000  Uiso   1.00
C206   C     0.05028   0.97529   0.22041   0.00000  Uiso   1.00
C207   C     0.12842   0.02588   0.22114   0.00000  Uiso   1.00
H208   H     0.44341   0.89348   0.27234   0.00000  Uiso   1.00
H209   H     0.55798   0.78102   0.17693   0.00000  Uiso   1.00
H210   H     0.35108   0.90524   0.38455   0.00000  Uiso   1.00
H211   H     0.46212   0.99629   0.25949   0.00000  Uiso   1.00
H212   H     0.62037   0.65303   0.06502   0.00000  Uiso   1.00
H213   H     0.18411   0.91497   0.50281   0.00000  Uiso   1.00
H214   H     0.41825   0.10698   0.23911   0.00000  Uiso   1.00
H215   H     0.94551   0.86808   0.22510   0.00000  Uiso   1.00
H216   H     0.03276   0.75422   0.12708   0.00000  Uiso   1.00
H217   H     0.82586   0.87844   0.33471   0.00000  Uiso   1.00
H218   H     0.93690   0.96949   0.20965   0.00000  Uiso   1.00
H219   H     0.19408   0.63128   0.02457   0.00000  Uiso   1.00
H220   H     0.75782   0.89322   0.46236   0.00000  Uiso   1.00
H221   H     0.99196   0.08523   0.19865   0.00000  Uiso   1.00
O222   O     0.47359   0.56771   0.98118   0.00000  Uiso   1.00
O223   O     0.90123   0.91137   0.55554   0.00000  Uiso   1.00
O224   O     0.20842   0.16328   0.20957   0.00000  Uiso   1.00
N225   N     0.50807   0.66355   0.06894   0.00000  Uiso   1.00
N226   N     0.10020   0.90843   0.47824   0.00000  Uiso   1.00
N227   N     0.31909   0.08795   0.23172   0.00000  Uiso   1.00
N228   N     0.27869   0.65184   0.04718   0.00000  Uiso   1.00
N229   N     0.87082   0.89673   0.45648   0.00000  Uiso   1.00
N230   N     0.08970   0.07625   0.20996   0.00000  Uiso   1.00
C231   C     0.57652   0.73599   0.62377   0.00000  Uiso   1.00
C232   C     0.52092   0.79477   0.61900   0.00000  Uiso   1.00
C233   C     0.61333   0.83555   0.60638   0.00000  Uiso   1.00
C234   C     0.54045   0.88664   0.60396   0.00000  Uiso   1.00
C235   C     0.47840   0.97639   0.59501   0.00000  Uiso   1.00
C236   C     0.51031   0.67854   0.57546   0.00000  Uiso   1.00
C237   C     0.59380   0.62159   0.52625   0.00000  Uiso   1.00
C238   C     0.51197   0.57484   0.48718   0.00000  Uiso   1.00
C239   C     0.43344   0.48412   0.41067   0.00000  Uiso   1.00
C240   C     0.49700   0.74715   0.68928   0.00000  Uiso   1.00
C241   C     0.56928   0.74788   0.73577   0.00000  Uiso   1.00
C242   C     0.47624   0.75888   0.79253   0.00000  Uiso   1.00
C243   C     0.37704   0.77469   0.89274   0.00000  Uiso   1.00
C244   C     0.28275   0.75423   0.64190   0.00000  Uiso   1.00
C245   C     0.36136   0.80467   0.62884   0.00000  Uiso   1.00
C246   C     0.28831   0.85572   0.62644   0.00000  Uiso   1.00
C247   C     0.38060   0.89657   0.61383   0.00000  Uiso   1.00
C248   C     0.35075   0.68844   0.58530   0.00000  Uiso   1.00
C249   C     0.26878   0.64177   0.54631   0.00000  Uiso   1.00
C250   C     0.35212   0.58477   0.49705   0.00000  Uiso   1.00
C251   C     0.33743   0.75706   0.69913   0.00000  Uiso   1.00
C252   C     0.24426   0.76806   0.75583   0.00000  Uiso   1.00
C253   C     0.31639   0.76880   0.80239   0.00000  Uiso   1.00
H254   H     0.70074   0.72827   0.61610   0.00000  Uiso   1.00
H255   H     0.73682   0.82786   0.59876   0.00000  Uiso   1.00
H256   H     0.71728   0.61394   0.51864   0.00000  Uiso   1.00
H257   H     0.69277   0.74021   0.72813   0.00000  Uiso   1.00
H258   H     0.70644   0.94263   0.58385   0.00000  Uiso   1.00
H259   H     0.66525   0.49155   0.41493   0.00000  Uiso   1.00
H260   H     0.61356   0.75781   0.85668   0.00000  Uiso   1.00
H261   H     0.15851   0.76193   0.64957   0.00000  Uiso   1.00
H262   H     0.16483   0.86338   0.63406   0.00000  Uiso   1.00
H263   H     0.14530   0.64945   0.55394   0.00000  Uiso   1.00
H264   H     0.12078   0.77572   0.76343   0.00000  Uiso   1.00
H265   H     0.24220   0.97145   0.61250   0.00000  Uiso   1.00
H266   H     0.20101   0.52037   0.44358   0.00000  Uiso   1.00
H267   H     0.14931   0.78663   0.88533   0.00000  Uiso   1.00
O268   O     0.48826   0.02315   0.58735   0.00000  Uiso   1.00
O269   O     0.43422   0.43134   0.36575   0.00000  Uiso   1.00
O270   O     0.36640   0.78068   0.94530   0.00000  Uiso   1.00
N271   N     0.59631   0.93550   0.59273   0.00000  Uiso   1.00
N272   N     0.55780   0.51377   0.43480   0.00000  Uiso   1.00
N273   N     0.50947   0.76269   0.84779   0.00000  Uiso   1.00
N274   N     0.34651   0.95101   0.60815   0.00000  Uiso   1.00
N275   N     0.30800   0.52928   0.45022   0.00000  Uiso   1.00
N276   N     0.25967   0.77819   0.86321   0.00000  Uiso   1.00
