data_job_03960
_audit_creation_date              2018-12-19
_audit_creation_method            'Materials Studio'
_symmetry_space_group_name_H-M    'P1'
_symmetry_Int_Tables_number       1
_symmetry_cell_setting            triclinic
loop_
_symmetry_equiv_pos_as_xyz
  x,y,z
_cell_length_a                    12.1010
_cell_length_b                    12.1534
_cell_length_c                    14.3174
_cell_angle_alpha                 68.5915
_cell_angle_beta                  84.5206
_cell_angle_gamma                 114.5669
loop_
_atom_site_label
_atom_site_type_symbol
_atom_site_fract_x
_atom_site_fract_y
_atom_site_fract_z
_atom_site_U_iso_or_equiv
_atom_site_adp_type
_atom_site_occupancy
C1     C     0.07003   0.65691   0.68515   0.00000  Uiso   1.00
C2     C     0.95202   0.62044   0.64733   0.00000  Uiso   1.00
C3     C     0.86678   0.49209   0.66179   0.00000  Uiso   1.00
C4     C     0.76482   0.47970   0.62126   0.00000  Uiso   1.00
C5     C     0.58405   0.40604   0.57057   0.00000  Uiso   1.00
C6     C     0.18147   0.76687   0.58800   0.00000  Uiso   1.00
C7     C     0.28917   0.76162   0.55258   0.00000  Uiso   1.00
C8     C     0.38037   0.87250   0.46211   0.00000  Uiso   1.00
C9     C     0.55587   0.02621   0.31935   0.00000  Uiso   1.00
C10    C     0.05638   0.72479   0.75317   0.00000  Uiso   1.00
C11    C     0.05894   0.68419   0.85662   0.00000  Uiso   1.00
C12    C     0.04485   0.75967   0.90521   0.00000  Uiso   1.00
C13    C     0.02614   0.84803   0.01890   0.00000  Uiso   1.00
C14    C     0.04052   0.86318   0.58748   0.00000  Uiso   1.00
C15    C     0.93599   0.73248   0.59428   0.00000  Uiso   1.00
C16    C     0.83413   0.72029   0.55373   0.00000  Uiso   1.00
C17    C     0.74876   0.59193   0.56813   0.00000  Uiso   1.00
C18    C     0.16545   0.87890   0.53495   0.00000  Uiso   1.00
C19    C     0.25651   0.98982   0.44452   0.00000  Uiso   1.00
C20    C     0.36431   0.98474   0.40897   0.00000  Uiso   1.00
C21    C     0.04035   0.83682   0.70013   0.00000  Uiso   1.00
C22    C     0.02627   0.91238   0.74857   0.00000  Uiso   1.00
C23    C     0.02880   0.87190   0.85207   0.00000  Uiso   1.00
H24    H     0.08252   0.56970   0.72644   0.00000  Uiso   1.00
H25    H     0.87923   0.40541   0.70284   0.00000  Uiso   1.00
H26    H     0.30155   0.67491   0.59365   0.00000  Uiso   1.00
H27    H     0.07134   0.59748   0.89765   0.00000  Uiso   1.00
H28    H     0.64680   0.27268   0.65324   0.00000  Uiso   1.00
H29    H     0.53731   0.84096   0.42303   0.00000  Uiso   1.00
H30    H     0.05188   0.67769   0.06407   0.00000  Uiso   1.00
H31    H     0.02804   0.95041   0.54618   0.00000  Uiso   1.00
H32    H     0.82175   0.80700   0.51268   0.00000  Uiso   1.00
H33    H     0.24408   0.07650   0.40349   0.00000  Uiso   1.00
H34    H     0.01387   0.99908   0.70749   0.00000  Uiso   1.00
H35    H     0.60015   0.59863   0.49890   0.00000  Uiso   1.00
H36    H     0.49067   0.16691   0.26869   0.00000  Uiso   1.00
H37    H     0.00523   0.00364   0.90973   0.00000  Uiso   1.00
O38    O     0.48878   0.33446   0.55725   0.00000  Uiso   1.00
O39    O     0.65710   0.08003   0.25525   0.00000  Uiso   1.00
O40    O     0.02023   0.86582   0.09627   0.00000  Uiso   1.00
N41    N     0.66412   0.36907   0.62153   0.00000  Uiso   1.00
N42    N     0.49668   0.90036   0.40629   0.00000  Uiso   1.00
N43    N     0.04288   0.74774   0.00560   0.00000  Uiso   1.00
N44    N     0.63902   0.54446   0.53848   0.00000  Uiso   1.00
N45    N     0.47158   0.07575   0.32324   0.00000  Uiso   1.00
N46    N     0.01778   0.92313   0.92255   0.00000  Uiso   1.00
C47    C     0.92997   0.34309   0.31485   0.00000  Uiso   1.00
C48    C     0.04798   0.37956   0.35267   0.00000  Uiso   1.00
C49    C     0.13322   0.50791   0.33821   0.00000  Uiso   1.00
C50    C     0.23518   0.52030   0.37874   0.00000  Uiso   1.00
C51    C     0.41595   0.59396   0.42943   0.00000  Uiso   1.00
C52    C     0.81853   0.23313   0.41200   0.00000  Uiso   1.00
C53    C     0.71083   0.23838   0.44742   0.00000  Uiso   1.00
C54    C     0.61963   0.12750   0.53789   0.00000  Uiso   1.00
C55    C     0.44413   0.97379   0.68065   0.00000  Uiso   1.00
C56    C     0.94362   0.27521   0.24683   0.00000  Uiso   1.00
C57    C     0.94106   0.31581   0.14338   0.00000  Uiso   1.00
C58    C     0.95515   0.24033   0.09479   0.00000  Uiso   1.00
C59    C     0.97386   0.15197   0.98110   0.00000  Uiso   1.00
C60    C     0.95948   0.13682   0.41252   0.00000  Uiso   1.00
C61    C     0.06401   0.26752   0.40572   0.00000  Uiso   1.00
C62    C     0.16587   0.27971   0.44627   0.00000  Uiso   1.00
C63    C     0.25124   0.40807   0.43187   0.00000  Uiso   1.00
C64    C     0.83455   0.12110   0.46505   0.00000  Uiso   1.00
C65    C     0.74349   0.01018   0.55548   0.00000  Uiso   1.00
C66    C     0.63569   0.01526   0.59103   0.00000  Uiso   1.00
C67    C     0.95965   0.16318   0.29987   0.00000  Uiso   1.00
C68    C     0.97373   0.08762   0.25143   0.00000  Uiso   1.00
C69    C     0.97120   0.12810   0.14793   0.00000  Uiso   1.00
H70    H     0.91748   0.43030   0.27356   0.00000  Uiso   1.00
H71    H     0.12077   0.59459   0.29716   0.00000  Uiso   1.00
H72    H     0.69845   0.32509   0.40635   0.00000  Uiso   1.00
H73    H     0.92866   0.40252   0.10235   0.00000  Uiso   1.00
H74    H     0.35320   0.72732   0.34676   0.00000  Uiso   1.00
H75    H     0.46269   0.15904   0.57697   0.00000  Uiso   1.00
H76    H     0.94812   0.32231   0.93593   0.00000  Uiso   1.00
H77    H     0.97196   0.04959   0.45382   0.00000  Uiso   1.00
H78    H     0.17825   0.19300   0.48732   0.00000  Uiso   1.00
H79    H     0.75592   0.92350   0.59651   0.00000  Uiso   1.00
H80    H     0.98613   0.00092   0.29251   0.00000  Uiso   1.00
H81    H     0.39985   0.40137   0.50110   0.00000  Uiso   1.00
H82    H     0.50933   0.83309   0.73131   0.00000  Uiso   1.00
H83    H     0.99477   0.99636   0.09027   0.00000  Uiso   1.00
O84    O     0.51122   0.66554   0.44275   0.00000  Uiso   1.00
O85    O     0.34290   0.91997   0.74475   0.00000  Uiso   1.00
O86    O     0.97977   0.13418   0.90373   0.00000  Uiso   1.00
N87    N     0.33588   0.63093   0.37847   0.00000  Uiso   1.00
N88    N     0.50332   0.09964   0.59371   0.00000  Uiso   1.00
N89    N     0.95712   0.25226   0.99440   0.00000  Uiso   1.00
N90    N     0.36098   0.45554   0.46152   0.00000  Uiso   1.00
N91    N     0.52842   0.92425   0.67676   0.00000  Uiso   1.00
N92    N     0.98222   0.07687   0.07745   0.00000  Uiso   1.00
