data_job_06473
_audit_creation_date              2018-12-19
_audit_creation_method            'Materials Studio'
_symmetry_space_group_name_H-M    'P1'
_symmetry_Int_Tables_number       1
_symmetry_cell_setting            triclinic
loop_
_symmetry_equiv_pos_as_xyz
  x,y,z
_cell_length_a                    20.0371
_cell_length_b                    22.0709
_cell_length_c                    24.6020
_cell_angle_alpha                 64.4207
_cell_angle_beta                  91.7664
_cell_angle_gamma                 64.6055
loop_
_atom_site_label
_atom_site_type_symbol
_atom_site_fract_x
_atom_site_fract_y
_atom_site_fract_z
_atom_site_U_iso_or_equiv
_atom_site_adp_type
_atom_site_occupancy
C1     C     0.25600   0.74932   0.90029   0.00000  Uiso   1.00
C2     C     0.17041   0.79838   0.86798   0.00000  Uiso   1.00
C3     C     0.12781   0.77910   0.83967   0.00000  Uiso   1.00
C4     C     0.05025   0.83176   0.81267   0.00000  Uiso   1.00
C5     C     0.92248   0.89741   0.76226   0.00000  Uiso   1.00
C6     C     0.29122   0.80000   0.86797   0.00000  Uiso   1.00
C7     C     0.35021   0.78206   0.83967   0.00000  Uiso   1.00
C8     C     0.37436   0.83608   0.81267   0.00000  Uiso   1.00
C9     C     0.43420   0.90420   0.76230   0.00000  Uiso   1.00
C10    C     0.26389   0.73717   0.96656   0.00000  Uiso   1.00
C11    C     0.29991   0.66640   0.02115   0.00000  Uiso   1.00
C12    C     0.30106   0.66753   0.07716   0.00000  Uiso   1.00
C13    C     0.31845   0.63810   0.17987   0.00000  Uiso   1.00
C14    C     0.19402   0.87714   0.90269   0.00000  Uiso   1.00
C15    C     0.13675   0.86781   0.86928   0.00000  Uiso   1.00
C16    C     0.05923   0.92052   0.84232   0.00000  Uiso   1.00
C17    C     0.01652   0.90132   0.81397   0.00000  Uiso   1.00
C18    C     0.25756   0.86942   0.86927   0.00000  Uiso   1.00
C19    C     0.28164   0.92348   0.84231   0.00000  Uiso   1.00
C20    C     0.34064   0.90563   0.81397   0.00000  Uiso   1.00
C21    C     0.23022   0.80660   0.96786   0.00000  Uiso   1.00
C22    C     0.23132   0.80783   0.02380   0.00000  Uiso   1.00
C23    C     0.26733   0.73708   0.07846   0.00000  Uiso   1.00
H24    H     0.28221   0.69527   0.89928   0.00000  Uiso   1.00
H25    H     0.15388   0.72537   0.83867   0.00000  Uiso   1.00
H26    H     0.37626   0.72833   0.83867   0.00000  Uiso   1.00
H27    H     0.32595   0.61269   0.02013   0.00000  Uiso   1.00
H28    H     0.99677   0.78937   0.77202   0.00000  Uiso   1.00
H29    H     0.46567   0.79560   0.77205   0.00000  Uiso   1.00
H30    H     0.35960   0.55175   0.15469   0.00000  Uiso   1.00
H31    H     0.16781   0.93119   0.90370   0.00000  Uiso   1.00
H32    H     0.03320   0.97424   0.84333   0.00000  Uiso   1.00
H33    H     0.25557   0.97720   0.84333   0.00000  Uiso   1.00
H34    H     0.20527   0.86157   0.02479   0.00000  Uiso   1.00
H35    H     0.89882   0.99137   0.77580   0.00000  Uiso   1.00
H36    H     0.36772   0.99759   0.77583   0.00000  Uiso   1.00
H37    H     0.26164   0.75375   0.15847   0.00000  Uiso   1.00
O38    O     0.86131   0.91444   0.73410   0.00000  Uiso   1.00
O39    O     0.47650   0.92260   0.73415   0.00000  Uiso   1.00
O40    O     0.33733   0.60269   0.23616   0.00000  Uiso   1.00
N41    N     0.99219   0.83100   0.78120   0.00000  Uiso   1.00
N42    N     0.43057   0.83682   0.78122   0.00000  Uiso   1.00
N43    N     0.33142   0.60885   0.13896   0.00000  Uiso   1.00
N44    N     0.93948   0.93969   0.78324   0.00000  Uiso   1.00
N45    N     0.37787   0.94551   0.78326   0.00000  Uiso   1.00
N46    N     0.27871   0.71754   0.14099   0.00000  Uiso   1.00
C47    C     0.58345   0.03900   0.89838   0.00000  Uiso   1.00
C48    C     0.57709   0.11812   0.86122   0.00000  Uiso   1.00
C49    C     0.50989   0.18837   0.83521   0.00000  Uiso   1.00
C50    C     0.51613   0.25429   0.80293   0.00000  Uiso   1.00
C51    C     0.49547   0.37780   0.74611   0.00000  Uiso   1.00
C52    C     0.62231   0.99441   0.86507   0.00000  Uiso   1.00
C53    C     0.59313   0.96062   0.84230   0.00000  Uiso   1.00
C54    C     0.63745   0.92239   0.81326   0.00000  Uiso   1.00
C55    C     0.68702   0.85378   0.76246   0.00000  Uiso   1.00
C56    C     0.64043   0.99908   0.96128   0.00000  Uiso   1.00
C57    C     0.62650   0.96921   0.01941   0.00000  Uiso   1.00
C58    C     0.68608   0.93489   0.07138   0.00000  Uiso   1.00
C59    C     0.76378   0.87354   0.16995   0.00000  Uiso   1.00
C60    C     0.71404   0.03115   0.88732   0.00000  Uiso   1.00
C61    C     0.64803   0.11386   0.85521   0.00000  Uiso   1.00
C62    C     0.65438   0.17969   0.82297   0.00000  Uiso   1.00
C63    C     0.58719   0.25002   0.79691   0.00000  Uiso   1.00
C64    C     0.69324   0.99015   0.85906   0.00000  Uiso   1.00
C65    C     0.73762   0.95195   0.83006   0.00000  Uiso   1.00
C66    C     0.70851   0.91812   0.80724   0.00000  Uiso   1.00
C67    C     0.71137   0.99482   0.95527   0.00000  Uiso   1.00
C68    C     0.77098   0.96054   0.00716   0.00000  Uiso   1.00
C69    C     0.75714   0.93063   0.06536   0.00000  Uiso   1.00
H70    H     0.52822   0.04231   0.90306   0.00000  Uiso   1.00
H71    H     0.45500   0.19164   0.83986   0.00000  Uiso   1.00
H72    H     0.53824   0.96392   0.84696   0.00000  Uiso   1.00
H73    H     0.57160   0.97252   0.02404   0.00000  Uiso   1.00
H74    H     0.40510   0.35532   0.76713   0.00000  Uiso   1.00
H75    H     0.58062   0.87515   0.78211   0.00000  Uiso   1.00
H76    H     0.65096   0.89326   0.15551   0.00000  Uiso   1.00
H77    H     0.76927   0.02784   0.88264   0.00000  Uiso   1.00
H78    H     0.70928   0.17638   0.81832   0.00000  Uiso   1.00
H79    H     0.79251   0.94866   0.82542   0.00000  Uiso   1.00
H80    H     0.82587   0.95725   0.00249   0.00000  Uiso   1.00
H81    H     0.61148   0.34294   0.74964   0.00000  Uiso   1.00
H82    H     0.78700   0.86275   0.76462   0.00000  Uiso   1.00
H83    H     0.85734   0.88087   0.13803   0.00000  Uiso   1.00
O84    O     0.46447   0.44710   0.71642   0.00000  Uiso   1.00
O85    O     0.69476   0.81712   0.73609   0.00000  Uiso   1.00
O86    O     0.78704   0.84089   0.22598   0.00000  Uiso   1.00
N87    N     0.46191   0.33202   0.77185   0.00000  Uiso   1.00
N88    N     0.62601   0.88310   0.78585   0.00000  Uiso   1.00
N89    N     0.69177   0.90001   0.13495   0.00000  Uiso   1.00
N90    N     0.57296   0.32536   0.76244   0.00000  Uiso   1.00
N91    N     0.73706   0.87643   0.77644   0.00000  Uiso   1.00
N92    N     0.80282   0.89335   0.12554   0.00000  Uiso   1.00
C93    C     0.95509   0.50066   0.85256   0.00000  Uiso   1.00
C94    C     0.98700   0.45716   0.81706   0.00000  Uiso   1.00
C95    C     0.03234   0.46978   0.77663   0.00000  Uiso   1.00
C96    C     0.05573   0.42395   0.74872   0.00000  Uiso   1.00
C97    C     0.10848   0.36501   0.69173   0.00000  Uiso   1.00
C98    C     0.86847   0.53404   0.83445   0.00000  Uiso   1.00
C99    C     0.81416   0.61130   0.80864   0.00000  Uiso   1.00
C100   C     0.73777   0.63018   0.79537   0.00000  Uiso   1.00
C101   C     0.60650   0.69060   0.76541   0.00000  Uiso   1.00
C102   C     0.98299   0.43962   0.92148   0.00000  Uiso   1.00
C103   C     0.02494   0.43750   0.96885   0.00000  Uiso   1.00
C104   C     0.04495   0.37689   0.02886   0.00000  Uiso   1.00
C105   C     0.09149   0.29070   0.13403   0.00000  Uiso   1.00
C106   C     0.91600   0.39681   0.87489   0.00000  Uiso   1.00
C107   C     0.96577   0.40076   0.82919   0.00000  Uiso   1.00
C108   C     0.98910   0.35489   0.80134   0.00000  Uiso   1.00
C109   C     0.03446   0.36744   0.76087   0.00000  Uiso   1.00
C110   C     0.84724   0.47764   0.84657   0.00000  Uiso   1.00
C111   C     0.77091   0.49641   0.83334   0.00000  Uiso   1.00
C112   C     0.71650   0.57368   0.80752   0.00000  Uiso   1.00
C113   C     0.96176   0.38321   0.93361   0.00000  Uiso   1.00
C114   C     0.98170   0.32260   0.99356   0.00000  Uiso   1.00
C115   C     0.02368   0.32038   0.04101   0.00000  Uiso   1.00
H116   H     0.97161   0.54458   0.84312   0.00000  Uiso   1.00
H117   H     0.04875   0.51345   0.76725   0.00000  Uiso   1.00
H118   H     0.83061   0.65494   0.79926   0.00000  Uiso   1.00
H119   H     0.04136   0.48116   0.95945   0.00000  Uiso   1.00
H120   H     0.12489   0.45408   0.68847   0.00000  Uiso   1.00
H121   H     0.66492   0.75242   0.75599   0.00000  Uiso   1.00
H122   H     0.10934   0.38597   0.09377   0.00000  Uiso   1.00
H123   H     0.89947   0.35290   0.88434   0.00000  Uiso   1.00
H124   H     0.97266   0.31124   0.81073   0.00000  Uiso   1.00
H125   H     0.75450   0.45274   0.84274   0.00000  Uiso   1.00
H126   H     0.96526   0.27896   0.00292   0.00000  Uiso   1.00
H127   H     0.06313   0.28996   0.72376   0.00000  Uiso   1.00
H128   H     0.60315   0.58831   0.79128   0.00000  Uiso   1.00
H129   H     0.04757   0.22186   0.12906   0.00000  Uiso   1.00
O130   O     0.14344   0.34809   0.65693   0.00000  Uiso   1.00
O131   O     0.53997   0.73951   0.74553   0.00000  Uiso   1.00
O132   O     0.12304   0.25873   0.18868   0.00000  Uiso   1.00
N133   N     0.10033   0.42116   0.70689   0.00000  Uiso   1.00
N134   N     0.67027   0.70009   0.77000   0.00000  Uiso   1.00
N135   N     0.08575   0.35751   0.08580   0.00000  Uiso   1.00
N136   N     0.06709   0.33285   0.72587   0.00000  Uiso   1.00
N137   N     0.63704   0.61178   0.78899   0.00000  Uiso   1.00
N138   N     0.05252   0.26920   0.10479   0.00000  Uiso   1.00
C139   C     0.11803   0.39113   0.44227   0.00000  Uiso   1.00
C140   C     0.10418   0.36138   0.39988   0.00000  Uiso   1.00
C141   C     0.03528   0.36725   0.37930   0.00000  Uiso   1.00
C142   C     0.03435   0.33643   0.34078   0.00000  Uiso   1.00
C143   C     0.00285   0.29567   0.27755   0.00000  Uiso   1.00
C144   C     0.14845   0.44545   0.40685   0.00000  Uiso   1.00
C145   C     0.11678   0.52199   0.39213   0.00000  Uiso   1.00
C146   C     0.15312   0.56193   0.35949   0.00000  Uiso   1.00
C147   C     0.19037   0.65166   0.30712   0.00000  Uiso   1.00
C148   C     0.18429   0.32190   0.49828   0.00000  Uiso   1.00
C149   C     0.18277   0.29458   0.56045   0.00000  Uiso   1.00
C150   C     0.24930   0.23051   0.60478   0.00000  Uiso   1.00
C151   C     0.34220   0.12842   0.69438   0.00000  Uiso   1.00
C152   C     0.23890   0.32596   0.41046   0.00000  Uiso   1.00
C153   C     0.16983   0.32599   0.38260   0.00000  Uiso   1.00
C154   C     0.16900   0.29515   0.34410   0.00000  Uiso   1.00
C155   C     0.10012   0.30097   0.32347   0.00000  Uiso   1.00
C156   C     0.21410   0.41005   0.38957   0.00000  Uiso   1.00
C157   C     0.25050   0.44989   0.35694   0.00000  Uiso   1.00
C158   C     0.21888   0.52647   0.34218   0.00000  Uiso   1.00
C159   C     0.24994   0.28650   0.48100   0.00000  Uiso   1.00
C160   C     0.31649   0.22247   0.52525   0.00000  Uiso   1.00
C161   C     0.31506   0.19505   0.58747   0.00000  Uiso   1.00
H162   H     0.06693   0.41869   0.45572   0.00000  Uiso   1.00
H163   H     0.98449   0.39466   0.39267   0.00000  Uiso   1.00
H164   H     0.06598   0.54937   0.40552   0.00000  Uiso   1.00
H165   H     0.13196   0.32199   0.57380   0.00000  Uiso   1.00
H166   H     0.92204   0.35243   0.31514   0.00000  Uiso   1.00
H167   H     0.09387   0.67863   0.34223   0.00000  Uiso   1.00
H168   H     0.23301   0.19916   0.69710   0.00000  Uiso   1.00
H169   H     0.29001   0.29840   0.39701   0.00000  Uiso   1.00
H170   H     0.21982   0.26776   0.33074   0.00000  Uiso   1.00
H171   H     0.30130   0.42247   0.34358   0.00000  Uiso   1.00
H172   H     0.36728   0.19509   0.51186   0.00000  Uiso   1.00
H173   H     0.11304   0.24943   0.26486   0.00000  Uiso   1.00
H174   H     0.28487   0.57564   0.29196   0.00000  Uiso   1.00
H175   H     0.42400   0.09617   0.64682   0.00000  Uiso   1.00
O176   O     0.96733   0.28297   0.24745   0.00000  Uiso   1.00
O177   O     0.19278   0.71094   0.28301   0.00000  Uiso   1.00
O178   O     0.37531   0.08187   0.74858   0.00000  Uiso   1.00
N179   N     0.97663   0.33238   0.31241   0.00000  Uiso   1.00
N180   N     0.13727   0.63737   0.33773   0.00000  Uiso   1.00
N181   N     0.26736   0.18911   0.66950   0.00000  Uiso   1.00
N182   N     0.07940   0.27696   0.28536   0.00000  Uiso   1.00
N183   N     0.24005   0.58195   0.31068   0.00000  Uiso   1.00
N184   N     0.37013   0.13369   0.64245   0.00000  Uiso   1.00
C185   C     0.49974   0.60287   0.45827   0.00000  Uiso   1.00
C186   C     0.57128   0.59425   0.43511   0.00000  Uiso   1.00
C187   C     0.61896   0.53415   0.42551   0.00000  Uiso   1.00
C188   C     0.68151   0.53680   0.40415   0.00000  Uiso   1.00
C189   C     0.79040   0.51421   0.36989   0.00000  Uiso   1.00
C190   C     0.43431   0.68116   0.40894   0.00000  Uiso   1.00
C191   C     0.36682   0.69414   0.37734   0.00000  Uiso   1.00
C192   C     0.31408   0.76996   0.33396   0.00000  Uiso   1.00
C193   C     0.21029   0.88231   0.25910   0.00000  Uiso   1.00
C194   C     0.51167   0.60968   0.51647   0.00000  Uiso   1.00
C195   C     0.50919   0.56257   0.57527   0.00000  Uiso   1.00
C196   C     0.52156   0.57822   0.62242   0.00000  Uiso   1.00
C197   C     0.53787   0.57958   0.71450   0.00000  Uiso   1.00
C198   C     0.52606   0.71446   0.43744   0.00000  Uiso   1.00
C199   C     0.58557   0.65486   0.42380   0.00000  Uiso   1.00
C200   C     0.64808   0.65761   0.40246   0.00000  Uiso   1.00
C201   C     0.69584   0.59752   0.39282   0.00000  Uiso   1.00
C202   C     0.44861   0.74178   0.39763   0.00000  Uiso   1.00
C203   C     0.39595   0.81760   0.35429   0.00000  Uiso   1.00
C204   C     0.32840   0.83068   0.32262   0.00000  Uiso   1.00
C205   C     0.52596   0.67029   0.50515   0.00000  Uiso   1.00
C206   C     0.53832   0.68603   0.55222   0.00000  Uiso   1.00
C207   C     0.53588   0.63894   0.61108   0.00000  Uiso   1.00
H208   H     0.48861   0.55569   0.46708   0.00000  Uiso   1.00
H209   H     0.60787   0.48725   0.43426   0.00000  Uiso   1.00
H210   H     0.35577   0.64722   0.38611   0.00000  Uiso   1.00
H211   H     0.49813   0.51567   0.58401   0.00000  Uiso   1.00
H212   H     0.74638   0.43813   0.39287   0.00000  Uiso   1.00
H213   H     0.21481   0.77543   0.29135   0.00000  Uiso   1.00
H214   H     0.51499   0.49802   0.70866   0.00000  Uiso   1.00
H215   H     0.53719   0.76166   0.42863   0.00000  Uiso   1.00
H216   H     0.65913   0.70452   0.39370   0.00000  Uiso   1.00
H217   H     0.40703   0.86449   0.34555   0.00000  Uiso   1.00
H218   H     0.54938   0.73294   0.54344   0.00000  Uiso   1.00
H219   H     0.78798   0.61447   0.35995   0.00000  Uiso   1.00
H220   H     0.25641   0.95177   0.25843   0.00000  Uiso   1.00
H221   H     0.55660   0.67437   0.67573   0.00000  Uiso   1.00
O222   O     0.84650   0.48501   0.35411   0.00000  Uiso   1.00
O223   O     0.14910   0.92753   0.22093   0.00000  Uiso   1.00
O224   O     0.54294   0.56359   0.76842   0.00000  Uiso   1.00
N225   N     0.73945   0.48746   0.38993   0.00000  Uiso   1.00
N226   N     0.24247   0.80282   0.29500   0.00000  Uiso   1.00
N227   N     0.52309   0.54348   0.68515   0.00000  Uiso   1.00
N228   N     0.76183   0.58235   0.37221   0.00000  Uiso   1.00
N229   N     0.26485   0.89771   0.27729   0.00000  Uiso   1.00
N230   N     0.54548   0.63837   0.66743   0.00000  Uiso   1.00
C231   C     0.86253   0.15978   0.34360   0.00000  Uiso   1.00
C232   C     0.78887   0.23295   0.29847   0.00000  Uiso   1.00
C233   C     0.78422   0.30002   0.25179   0.00000  Uiso   1.00
C234   C     0.71147   0.36057   0.21542   0.00000  Uiso   1.00
C235   C     0.60709   0.47514   0.14380   0.00000  Uiso   1.00
C236   C     0.86210   0.09500   0.33587   0.00000  Uiso   1.00
C237   C     0.91903   0.04608   0.32065   0.00000  Uiso   1.00
C238   C     0.90793   0.99050   0.31579   0.00000  Uiso   1.00
C239   C     0.91727   0.89086   0.30229   0.00000  Uiso   1.00
C240   C     0.85375   0.14335   0.40908   0.00000  Uiso   1.00
C241   C     0.90367   0.13506   0.45541   0.00000  Uiso   1.00
C242   C     0.88554   0.12017   0.51219   0.00000  Uiso   1.00
C243   C     0.88192   0.09560   0.61234   0.00000  Uiso   1.00
C244   C     0.74161   0.14805   0.36202   0.00000  Uiso   1.00
C245   C     0.72319   0.22657   0.30848   0.00000  Uiso   1.00
C246   C     0.65043   0.28704   0.27217   0.00000  Uiso   1.00
C247   C     0.64567   0.35419   0.22545   0.00000  Uiso   1.00
C248   C     0.79642   0.08863   0.34588   0.00000  Uiso   1.00
C249   C     0.78524   0.03310   0.34104   0.00000  Uiso   1.00
C250   C     0.84213   0.98411   0.32581   0.00000  Uiso   1.00
C251   C     0.78807   0.13698   0.41909   0.00000  Uiso   1.00
C252   C     0.76987   0.12209   0.47580   0.00000  Uiso   1.00
C253   C     0.81974   0.11379   0.52221   0.00000  Uiso   1.00
H254   H     0.91367   0.16473   0.33580   0.00000  Uiso   1.00
H255   H     0.83506   0.30492   0.24405   0.00000  Uiso   1.00
H256   H     0.96985   0.05102   0.31292   0.00000  Uiso   1.00
H257   H     0.95449   0.13999   0.44765   0.00000  Uiso   1.00
H258   H     0.71895   0.45753   0.14672   0.00000  Uiso   1.00
H259   H     0.00317   0.92214   0.29195   0.00000  Uiso   1.00
H260   H     0.97078   0.10976   0.57607   0.00000  Uiso   1.00
H261   H     0.69047   0.14309   0.36982   0.00000  Uiso   1.00
H262   H     0.59961   0.28210   0.27993   0.00000  Uiso   1.00
H263   H     0.73441   0.02819   0.34879   0.00000  Uiso   1.00
H264   H     0.71904   0.11716   0.48353   0.00000  Uiso   1.00
H265   H     0.52785   0.43900   0.17584   0.00000  Uiso   1.00
H266   H     0.81208   0.90361   0.32107   0.00000  Uiso   1.00
H267   H     0.77968   0.09123   0.60519   0.00000  Uiso   1.00
O268   O     0.56766   0.54009   0.10152   0.00000  Uiso   1.00
O269   O     0.94056   0.83767   0.29207   0.00000  Uiso   1.00
O270   O     0.89805   0.08382   0.66482   0.00000  Uiso   1.00
N271   N     0.68644   0.43410   0.16592   0.00000  Uiso   1.00
N272   N     0.95217   0.93355   0.30169   0.00000  Uiso   1.00
N273   N     0.92189   0.10893   0.56732   0.00000  Uiso   1.00
N274   N     0.58361   0.42413   0.18159   0.00000  Uiso   1.00
N275   N     0.84934   0.92358   0.31736   0.00000  Uiso   1.00
N276   N     0.81906   0.09896   0.58299   0.00000  Uiso   1.00
C277   C     0.74400   0.25068   0.09971   0.00000  Uiso   1.00
C278   C     0.82959   0.20162   0.13202   0.00000  Uiso   1.00
C279   C     0.87219   0.22090   0.16033   0.00000  Uiso   1.00
C280   C     0.94975   0.16824   0.18733   0.00000  Uiso   1.00
C281   C     0.07752   0.10259   0.23774   0.00000  Uiso   1.00
C282   C     0.70878   0.20000   0.13203   0.00000  Uiso   1.00
C283   C     0.64979   0.21794   0.16033   0.00000  Uiso   1.00
C284   C     0.62564   0.16392   0.18733   0.00000  Uiso   1.00
C285   C     0.56580   0.09580   0.23770   0.00000  Uiso   1.00
C286   C     0.73611   0.26283   0.03344   0.00000  Uiso   1.00
C287   C     0.70009   0.33360   0.97885   0.00000  Uiso   1.00
C288   C     0.69894   0.33247   0.92284   0.00000  Uiso   1.00
C289   C     0.68155   0.36190   0.82013   0.00000  Uiso   1.00
C290   C     0.80598   0.12286   0.09731   0.00000  Uiso   1.00
C291   C     0.86325   0.13219   0.13072   0.00000  Uiso   1.00
C292   C     0.94077   0.07948   0.15768   0.00000  Uiso   1.00
C293   C     0.98348   0.09868   0.18603   0.00000  Uiso   1.00
C294   C     0.74244   0.13058   0.13073   0.00000  Uiso   1.00
C295   C     0.71836   0.07652   0.15769   0.00000  Uiso   1.00
C296   C     0.65936   0.09437   0.18603   0.00000  Uiso   1.00
C297   C     0.76978   0.19340   0.03214   0.00000  Uiso   1.00
C298   C     0.76868   0.19217   0.97620   0.00000  Uiso   1.00
C299   C     0.73267   0.26292   0.92154   0.00000  Uiso   1.00
H300   H     0.71779   0.30473   0.10072   0.00000  Uiso   1.00
H301   H     0.84612   0.27463   0.16133   0.00000  Uiso   1.00
H302   H     0.62374   0.27167   0.16133   0.00000  Uiso   1.00
H303   H     0.67405   0.38731   0.97987   0.00000  Uiso   1.00
H304   H     0.00323   0.21063   0.22798   0.00000  Uiso   1.00
H305   H     0.53433   0.20440   0.22795   0.00000  Uiso   1.00
H306   H     0.64040   0.44825   0.84531   0.00000  Uiso   1.00
H307   H     0.83219   0.06881   0.09630   0.00000  Uiso   1.00
H308   H     0.96680   0.02576   0.15667   0.00000  Uiso   1.00
H309   H     0.74443   0.02280   0.15667   0.00000  Uiso   1.00
H310   H     0.79473   0.13843   0.97521   0.00000  Uiso   1.00
H311   H     0.10118   0.00863   0.22420   0.00000  Uiso   1.00
H312   H     0.63228   0.00241   0.22417   0.00000  Uiso   1.00
H313   H     0.73836   0.24625   0.84153   0.00000  Uiso   1.00
O314   O     0.13869   0.08556   0.26590   0.00000  Uiso   1.00
O315   O     0.52350   0.07740   0.26585   0.00000  Uiso   1.00
O316   O     0.66267   0.39731   0.76384   0.00000  Uiso   1.00
N317   N     0.00781   0.16900   0.21880   0.00000  Uiso   1.00
N318   N     0.56943   0.16318   0.21878   0.00000  Uiso   1.00
N319   N     0.66858   0.39115   0.86104   0.00000  Uiso   1.00
N320   N     0.06052   0.06031   0.21676   0.00000  Uiso   1.00
N321   N     0.62213   0.05449   0.21674   0.00000  Uiso   1.00
N322   N     0.72129   0.28246   0.85901   0.00000  Uiso   1.00
C323   C     0.41655   0.96100   0.10162   0.00000  Uiso   1.00
C324   C     0.42291   0.88188   0.13878   0.00000  Uiso   1.00
C325   C     0.49011   0.81163   0.16479   0.00000  Uiso   1.00
C326   C     0.48387   0.74571   0.19707   0.00000  Uiso   1.00
C327   C     0.50453   0.62220   0.25389   0.00000  Uiso   1.00
C328   C     0.37769   0.00559   0.13493   0.00000  Uiso   1.00
C329   C     0.40687   0.03938   0.15770   0.00000  Uiso   1.00
C330   C     0.36255   0.07761   0.18674   0.00000  Uiso   1.00
C331   C     0.31298   0.14622   0.23754   0.00000  Uiso   1.00
C332   C     0.35957   0.00092   0.03872   0.00000  Uiso   1.00
C333   C     0.37350   0.03079   0.98059   0.00000  Uiso   1.00
C334   C     0.31392   0.06511   0.92862   0.00000  Uiso   1.00
C335   C     0.23622   0.12646   0.83005   0.00000  Uiso   1.00
C336   C     0.28596   0.96885   0.11268   0.00000  Uiso   1.00
C337   C     0.35197   0.88614   0.14479   0.00000  Uiso   1.00
C338   C     0.34562   0.82031   0.17703   0.00000  Uiso   1.00
C339   C     0.41281   0.74998   0.20309   0.00000  Uiso   1.00
C340   C     0.30676   0.00985   0.14094   0.00000  Uiso   1.00
C341   C     0.26238   0.04805   0.16994   0.00000  Uiso   1.00
C342   C     0.29149   0.08188   0.19276   0.00000  Uiso   1.00
C343   C     0.28863   0.00518   0.04473   0.00000  Uiso   1.00
C344   C     0.22902   0.03946   0.99284   0.00000  Uiso   1.00
C345   C     0.24286   0.06937   0.93464   0.00000  Uiso   1.00
H346   H     0.47178   0.95769   0.09694   0.00000  Uiso   1.00
H347   H     0.54500   0.80836   0.16014   0.00000  Uiso   1.00
H348   H     0.46176   0.03608   0.15304   0.00000  Uiso   1.00
H349   H     0.42840   0.02748   0.97596   0.00000  Uiso   1.00
H350   H     0.59490   0.64468   0.23287   0.00000  Uiso   1.00
H351   H     0.41938   0.12485   0.21789   0.00000  Uiso   1.00
H352   H     0.34904   0.10674   0.84449   0.00000  Uiso   1.00
H353   H     0.23073   0.97216   0.11736   0.00000  Uiso   1.00
H354   H     0.29072   0.82362   0.18168   0.00000  Uiso   1.00
H355   H     0.20749   0.05134   0.17458   0.00000  Uiso   1.00
H356   H     0.17413   0.04275   0.99751   0.00000  Uiso   1.00
H357   H     0.38852   0.65706   0.25036   0.00000  Uiso   1.00
H358   H     0.21300   0.13725   0.23538   0.00000  Uiso   1.00
H359   H     0.14266   0.11913   0.86197   0.00000  Uiso   1.00
O360   O     0.53553   0.55290   0.28358   0.00000  Uiso   1.00
O361   O     0.30524   0.18288   0.26391   0.00000  Uiso   1.00
O362   O     0.21296   0.15911   0.77402   0.00000  Uiso   1.00
N363   N     0.53809   0.66798   0.22815   0.00000  Uiso   1.00
N364   N     0.37399   0.11690   0.21415   0.00000  Uiso   1.00
N365   N     0.30823   0.09999   0.86505   0.00000  Uiso   1.00
N366   N     0.42704   0.67464   0.23756   0.00000  Uiso   1.00
N367   N     0.26294   0.12357   0.22356   0.00000  Uiso   1.00
N368   N     0.19718   0.10665   0.87446   0.00000  Uiso   1.00
C369   C     0.04491   0.49934   0.14744   0.00000  Uiso   1.00
C370   C     0.01300   0.54284   0.18294   0.00000  Uiso   1.00
C371   C     0.96766   0.53022   0.22337   0.00000  Uiso   1.00
C372   C     0.94427   0.57605   0.25128   0.00000  Uiso   1.00
C373   C     0.89152   0.63499   0.30827   0.00000  Uiso   1.00
C374   C     0.13153   0.46596   0.16555   0.00000  Uiso   1.00
C375   C     0.18584   0.38870   0.19136   0.00000  Uiso   1.00
C376   C     0.26223   0.36982   0.20463   0.00000  Uiso   1.00
C377   C     0.39350   0.30940   0.23459   0.00000  Uiso   1.00
C378   C     0.01701   0.56038   0.07852   0.00000  Uiso   1.00
C379   C     0.97506   0.56250   0.03115   0.00000  Uiso   1.00
C380   C     0.95505   0.62311   0.97114   0.00000  Uiso   1.00
C381   C     0.90851   0.70930   0.86597   0.00000  Uiso   1.00
C382   C     0.08400   0.60319   0.12511   0.00000  Uiso   1.00
C383   C     0.03423   0.59924   0.17081   0.00000  Uiso   1.00
C384   C     0.01090   0.64511   0.19866   0.00000  Uiso   1.00
C385   C     0.96554   0.63256   0.23913   0.00000  Uiso   1.00
C386   C     0.15276   0.52236   0.15343   0.00000  Uiso   1.00
C387   C     0.22909   0.50359   0.16666   0.00000  Uiso   1.00
C388   C     0.28350   0.42632   0.19248   0.00000  Uiso   1.00
C389   C     0.03824   0.61679   0.06639   0.00000  Uiso   1.00
C390   C     0.01830   0.67740   0.00644   0.00000  Uiso   1.00
C391   C     0.97632   0.67962   0.95899   0.00000  Uiso   1.00
H392   H     0.02839   0.45542   0.15688   0.00000  Uiso   1.00
H393   H     0.95125   0.48655   0.23275   0.00000  Uiso   1.00
H394   H     0.16939   0.34506   0.20074   0.00000  Uiso   1.00
H395   H     0.95864   0.51884   0.04055   0.00000  Uiso   1.00
H396   H     0.87511   0.54592   0.31153   0.00000  Uiso   1.00
H397   H     0.33508   0.24758   0.24401   0.00000  Uiso   1.00
H398   H     0.89066   0.61403   0.90623   0.00000  Uiso   1.00
H399   H     0.10053   0.64710   0.11566   0.00000  Uiso   1.00
H400   H     0.02734   0.68876   0.18927   0.00000  Uiso   1.00
H401   H     0.24550   0.54726   0.15726   0.00000  Uiso   1.00
H402   H     0.03474   0.72104   0.99708   0.00000  Uiso   1.00
H403   H     0.93687   0.71004   0.27624   0.00000  Uiso   1.00
H404   H     0.39685   0.41169   0.20872   0.00000  Uiso   1.00
H405   H     0.95243   0.77814   0.87094   0.00000  Uiso   1.00
O406   O     0.85656   0.65191   0.34307   0.00000  Uiso   1.00
O407   O     0.46003   0.26049   0.25447   0.00000  Uiso   1.00
O408   O     0.87696   0.74127   0.81132   0.00000  Uiso   1.00
N409   N     0.89967   0.57884   0.29311   0.00000  Uiso   1.00
N410   N     0.32973   0.29991   0.23000   0.00000  Uiso   1.00
N411   N     0.91425   0.64249   0.91420   0.00000  Uiso   1.00
N412   N     0.93291   0.66715   0.27413   0.00000  Uiso   1.00
N413   N     0.36296   0.38822   0.21101   0.00000  Uiso   1.00
N414   N     0.94748   0.73080   0.89521   0.00000  Uiso   1.00
C415   C     0.88197   0.60887   0.55773   0.00000  Uiso   1.00
C416   C     0.89582   0.63862   0.60012   0.00000  Uiso   1.00
C417   C     0.96472   0.63275   0.62070   0.00000  Uiso   1.00
C418   C     0.96565   0.66357   0.65922   0.00000  Uiso   1.00
C419   C     0.99715   0.70433   0.72245   0.00000  Uiso   1.00
C420   C     0.85155   0.55455   0.59315   0.00000  Uiso   1.00
C421   C     0.88322   0.47801   0.60787   0.00000  Uiso   1.00
C422   C     0.84688   0.43807   0.64051   0.00000  Uiso   1.00
C423   C     0.80963   0.34834   0.69288   0.00000  Uiso   1.00
C424   C     0.81571   0.67810   0.50172   0.00000  Uiso   1.00
C425   C     0.81723   0.70542   0.43955   0.00000  Uiso   1.00
C426   C     0.75070   0.76949   0.39522   0.00000  Uiso   1.00
C427   C     0.65780   0.87158   0.30562   0.00000  Uiso   1.00
C428   C     0.76110   0.67404   0.58954   0.00000  Uiso   1.00
C429   C     0.83017   0.67401   0.61740   0.00000  Uiso   1.00
C430   C     0.83100   0.70485   0.65590   0.00000  Uiso   1.00
C431   C     0.89988   0.69903   0.67653   0.00000  Uiso   1.00
C432   C     0.78590   0.58995   0.61043   0.00000  Uiso   1.00
C433   C     0.74950   0.55011   0.64306   0.00000  Uiso   1.00
C434   C     0.78112   0.47353   0.65782   0.00000  Uiso   1.00
C435   C     0.75006   0.71350   0.51900   0.00000  Uiso   1.00
C436   C     0.68351   0.77753   0.47475   0.00000  Uiso   1.00
C437   C     0.68494   0.80495   0.41253   0.00000  Uiso   1.00
H438   H     0.93307   0.58131   0.54428   0.00000  Uiso   1.00
H439   H     0.01551   0.60534   0.60733   0.00000  Uiso   1.00
H440   H     0.93402   0.45063   0.59448   0.00000  Uiso   1.00
H441   H     0.86804   0.67801   0.42620   0.00000  Uiso   1.00
H442   H     0.07796   0.64757   0.68486   0.00000  Uiso   1.00
H443   H     0.90613   0.32137   0.65777   0.00000  Uiso   1.00
H444   H     0.76699   0.80084   0.30290   0.00000  Uiso   1.00
H445   H     0.70999   0.70160   0.60299   0.00000  Uiso   1.00
H446   H     0.78018   0.73224   0.66926   0.00000  Uiso   1.00
H447   H     0.69870   0.57753   0.65642   0.00000  Uiso   1.00
H448   H     0.63272   0.80491   0.48814   0.00000  Uiso   1.00
H449   H     0.88696   0.75057   0.73514   0.00000  Uiso   1.00
H450   H     0.71513   0.42436   0.70804   0.00000  Uiso   1.00
H451   H     0.57600   0.90383   0.35318   0.00000  Uiso   1.00
O452   O     0.03267   0.71703   0.75255   0.00000  Uiso   1.00
O453   O     0.80722   0.28906   0.71699   0.00000  Uiso   1.00
O454   O     0.62469   0.91813   0.25142   0.00000  Uiso   1.00
N455   N     0.02337   0.66762   0.68759   0.00000  Uiso   1.00
N456   N     0.86273   0.36263   0.66227   0.00000  Uiso   1.00
N457   N     0.73264   0.81089   0.33050   0.00000  Uiso   1.00
N458   N     0.92060   0.72304   0.71464   0.00000  Uiso   1.00
N459   N     0.75995   0.41805   0.68932   0.00000  Uiso   1.00
N460   N     0.62987   0.86631   0.35755   0.00000  Uiso   1.00
C461   C     0.50026   0.39713   0.54173   0.00000  Uiso   1.00
C462   C     0.42872   0.40575   0.56489   0.00000  Uiso   1.00
C463   C     0.38104   0.46585   0.57449   0.00000  Uiso   1.00
C464   C     0.31849   0.46320   0.59585   0.00000  Uiso   1.00
C465   C     0.20960   0.48579   0.63011   0.00000  Uiso   1.00
C466   C     0.56569   0.31884   0.59106   0.00000  Uiso   1.00
C467   C     0.63318   0.30586   0.62266   0.00000  Uiso   1.00
C468   C     0.68592   0.23004   0.66604   0.00000  Uiso   1.00
C469   C     0.78971   0.11769   0.74090   0.00000  Uiso   1.00
C470   C     0.48833   0.39032   0.48353   0.00000  Uiso   1.00
C471   C     0.49081   0.43743   0.42473   0.00000  Uiso   1.00
C472   C     0.47844   0.42178   0.37758   0.00000  Uiso   1.00
C473   C     0.46213   0.42042   0.28550   0.00000  Uiso   1.00
C474   C     0.47394   0.28554   0.56256   0.00000  Uiso   1.00
C475   C     0.41443   0.34514   0.57620   0.00000  Uiso   1.00
C476   C     0.35192   0.34239   0.59754   0.00000  Uiso   1.00
C477   C     0.30416   0.40248   0.60718   0.00000  Uiso   1.00
C478   C     0.55139   0.25822   0.60237   0.00000  Uiso   1.00
C479   C     0.60405   0.18240   0.64571   0.00000  Uiso   1.00
C480   C     0.67160   0.16932   0.67738   0.00000  Uiso   1.00
C481   C     0.47404   0.32971   0.49485   0.00000  Uiso   1.00
C482   C     0.46168   0.31397   0.44778   0.00000  Uiso   1.00
C483   C     0.46412   0.36106   0.38892   0.00000  Uiso   1.00
H484   H     0.51139   0.44431   0.53292   0.00000  Uiso   1.00
H485   H     0.39213   0.51275   0.56574   0.00000  Uiso   1.00
H486   H     0.64423   0.35278   0.61389   0.00000  Uiso   1.00
H487   H     0.50187   0.48433   0.41599   0.00000  Uiso   1.00
H488   H     0.25362   0.56187   0.60713   0.00000  Uiso   1.00
H489   H     0.78519   0.22457   0.70865   0.00000  Uiso   1.00
H490   H     0.48501   0.50198   0.29134   0.00000  Uiso   1.00
H491   H     0.46281   0.23834   0.57137   0.00000  Uiso   1.00
H492   H     0.34087   0.29548   0.60630   0.00000  Uiso   1.00
H493   H     0.59297   0.13551   0.65445   0.00000  Uiso   1.00
H494   H     0.45062   0.26706   0.45656   0.00000  Uiso   1.00
H495   H     0.21202   0.38553   0.64005   0.00000  Uiso   1.00
H496   H     0.74359   0.04823   0.74157   0.00000  Uiso   1.00
H497   H     0.44340   0.32563   0.32427   0.00000  Uiso   1.00
O498   O     0.15350   0.51499   0.64589   0.00000  Uiso   1.00
O499   O     0.85090   0.07247   0.77907   0.00000  Uiso   1.00
O500   O     0.45706   0.43641   0.23158   0.00000  Uiso   1.00
N501   N     0.26055   0.51254   0.61007   0.00000  Uiso   1.00
N502   N     0.75753   0.19718   0.70500   0.00000  Uiso   1.00
N503   N     0.47691   0.45652   0.31485   0.00000  Uiso   1.00
N504   N     0.23817   0.41765   0.62779   0.00000  Uiso   1.00
N505   N     0.73515   0.10229   0.72271   0.00000  Uiso   1.00
N506   N     0.45452   0.36163   0.33257   0.00000  Uiso   1.00
C507   C     0.13747   0.84022   0.65640   0.00000  Uiso   1.00
C508   C     0.21113   0.76705   0.70153   0.00000  Uiso   1.00
C509   C     0.21578   0.69998   0.74821   0.00000  Uiso   1.00
C510   C     0.28853   0.63943   0.78458   0.00000  Uiso   1.00
C511   C     0.39291   0.52486   0.85620   0.00000  Uiso   1.00
C512   C     0.13790   0.90500   0.66413   0.00000  Uiso   1.00
C513   C     0.08097   0.95392   0.67935   0.00000  Uiso   1.00
C514   C     0.09207   0.00950   0.68421   0.00000  Uiso   1.00
C515   C     0.08273   0.10914   0.69771   0.00000  Uiso   1.00
C516   C     0.14625   0.85665   0.59092   0.00000  Uiso   1.00
C517   C     0.09633   0.86494   0.54459   0.00000  Uiso   1.00
C518   C     0.11446   0.87983   0.48781   0.00000  Uiso   1.00
C519   C     0.11808   0.90440   0.38766   0.00000  Uiso   1.00
C520   C     0.25839   0.85195   0.63798   0.00000  Uiso   1.00
C521   C     0.27681   0.77343   0.69152   0.00000  Uiso   1.00
C522   C     0.34957   0.71296   0.72783   0.00000  Uiso   1.00
C523   C     0.35433   0.64581   0.77455   0.00000  Uiso   1.00
C524   C     0.20358   0.91137   0.65412   0.00000  Uiso   1.00
C525   C     0.21476   0.96690   0.65896   0.00000  Uiso   1.00
C526   C     0.15787   0.01589   0.67419   0.00000  Uiso   1.00
C527   C     0.21193   0.86302   0.58091   0.00000  Uiso   1.00
C528   C     0.23013   0.87791   0.52420   0.00000  Uiso   1.00
C529   C     0.18026   0.88621   0.47779   0.00000  Uiso   1.00
H530   H     0.08633   0.83527   0.66420   0.00000  Uiso   1.00
H531   H     0.16494   0.69508   0.75595   0.00000  Uiso   1.00
H532   H     0.03015   0.94898   0.68708   0.00000  Uiso   1.00
H533   H     0.04551   0.86001   0.55235   0.00000  Uiso   1.00
H534   H     0.28105   0.54247   0.85328   0.00000  Uiso   1.00
H535   H     0.99683   0.07786   0.70805   0.00000  Uiso   1.00
H536   H     0.02922   0.89024   0.42393   0.00000  Uiso   1.00
H537   H     0.30953   0.85691   0.63018   0.00000  Uiso   1.00
H538   H     0.40039   0.71790   0.72007   0.00000  Uiso   1.00
H539   H     0.26559   0.97181   0.65121   0.00000  Uiso   1.00
H540   H     0.28096   0.88284   0.51647   0.00000  Uiso   1.00
H541   H     0.47215   0.56100   0.82416   0.00000  Uiso   1.00
H542   H     0.18792   0.09639   0.67893   0.00000  Uiso   1.00
H543   H     0.22032   0.90877   0.39481   0.00000  Uiso   1.00
O544   O     0.43234   0.45991   0.89848   0.00000  Uiso   1.00
O545   O     0.05944   0.16233   0.70793   0.00000  Uiso   1.00
O546   O     0.10195   0.91618   0.33518   0.00000  Uiso   1.00
N547   N     0.31356   0.56590   0.83408   0.00000  Uiso   1.00
N548   N     0.04783   0.06645   0.69831   0.00000  Uiso   1.00
N549   N     0.07811   0.89107   0.43268   0.00000  Uiso   1.00
N550   N     0.41639   0.57587   0.81841   0.00000  Uiso   1.00
N551   N     0.15066   0.07642   0.68264   0.00000  Uiso   1.00
N552   N     0.18094   0.90104   0.41701   0.00000  Uiso   1.00
