data_job_00394
_audit_creation_date              2018-12-19
_audit_creation_method            'Materials Studio'
_symmetry_space_group_name_H-M    'P1'
_symmetry_Int_Tables_number       1
_symmetry_cell_setting            triclinic
loop_
_symmetry_equiv_pos_as_xyz
  x,y,z
_cell_length_a                    29.7840
_cell_length_b                    29.7840
_cell_length_c                    7.2897
_cell_angle_alpha                 90.0000
_cell_angle_beta                  90.0000
_cell_angle_gamma                 90.0000
loop_
_atom_site_label
_atom_site_type_symbol
_atom_site_fract_x
_atom_site_fract_y
_atom_site_fract_z
_atom_site_U_iso_or_equiv
_atom_site_adp_type
_atom_site_occupancy
C1     C     0.70194   0.41847   0.07307   0.00000  Uiso   1.00
C2     C     0.65631   0.40630   0.15385   0.00000  Uiso   1.00
C3     C     0.61794   0.39606   0.05424   0.00000  Uiso   1.00
C4     C     0.57953   0.38582   0.15365   0.00000  Uiso   1.00
C5     C     0.50867   0.36693   0.24986   0.00000  Uiso   1.00
C6     C     0.71421   0.46408   0.15387   0.00000  Uiso   1.00
C7     C     0.72453   0.50243   0.05427   0.00000  Uiso   1.00
C8     C     0.73485   0.54082   0.15371   0.00000  Uiso   1.00
C9     C     0.75391   0.61164   0.24995   0.00000  Uiso   1.00
C10    C     0.73530   0.38505   0.15386   0.00000  Uiso   1.00
C11    C     0.76337   0.35696   0.05426   0.00000  Uiso   1.00
C12    C     0.79147   0.32882   0.15370   0.00000  Uiso   1.00
C13    C     0.84328   0.27693   0.24993   0.00000  Uiso   1.00
C14    C     0.70194   0.41847   0.42675   0.00000  Uiso   1.00
C15    C     0.65631   0.40630   0.34596   0.00000  Uiso   1.00
C16    C     0.61794   0.39606   0.44555   0.00000  Uiso   1.00
C17    C     0.57952   0.38582   0.34610   0.00000  Uiso   1.00
C18    C     0.71420   0.46408   0.34597   0.00000  Uiso   1.00
C19    C     0.72452   0.50243   0.44558   0.00000  Uiso   1.00
C20    C     0.73485   0.54082   0.34616   0.00000  Uiso   1.00
C21    C     0.73530   0.38505   0.34597   0.00000  Uiso   1.00
C22    C     0.76336   0.35696   0.44558   0.00000  Uiso   1.00
C23    C     0.79147   0.32882   0.34616   0.00000  Uiso   1.00
H24    H     0.70194   0.41848   0.92350   0.00000  Uiso   1.00
H25    H     0.61796   0.39607   0.90556   0.00000  Uiso   1.00
H26    H     0.72453   0.50242   0.90561   0.00000  Uiso   1.00
H27    H     0.76336   0.35697   0.90560   0.00000  Uiso   1.00
H28    H     0.52484   0.37125   0.97040   0.00000  Uiso   1.00
H29    H     0.74956   0.59548   0.97048   0.00000  Uiso   1.00
H30    H     0.83146   0.28877   0.97047   0.00000  Uiso   1.00
H31    H     0.70194   0.41847   0.57632   0.00000  Uiso   1.00
H32    H     0.61795   0.39607   0.59421   0.00000  Uiso   1.00
H33    H     0.72452   0.50241   0.59425   0.00000  Uiso   1.00
H34    H     0.76335   0.35696   0.59424   0.00000  Uiso   1.00
H35    H     0.52483   0.37125   0.52933   0.00000  Uiso   1.00
H36    H     0.74956   0.59548   0.52941   0.00000  Uiso   1.00
H37    H     0.83145   0.28877   0.52940   0.00000  Uiso   1.00
O38    O     0.46958   0.35652   0.24985   0.00000  Uiso   1.00
O39    O     0.76442   0.65070   0.24995   0.00000  Uiso   1.00
O40    O     0.87186   0.24831   0.24994   0.00000  Uiso   1.00
N41    N     0.53637   0.37431   0.09949   0.00000  Uiso   1.00
N42    N     0.74646   0.58396   0.09956   0.00000  Uiso   1.00
N43    N     0.82303   0.29722   0.09956   0.00000  Uiso   1.00
N44    N     0.53636   0.37431   0.40024   0.00000  Uiso   1.00
N45    N     0.74646   0.58395   0.40032   0.00000  Uiso   1.00
N46    N     0.82303   0.29722   0.40031   0.00000  Uiso   1.00
C47    C     0.29806   0.58153   0.07307   0.00000  Uiso   1.00
C48    C     0.34369   0.59370   0.15385   0.00000  Uiso   1.00
C49    C     0.38206   0.60394   0.05424   0.00000  Uiso   1.00
C50    C     0.42047   0.61418   0.15365   0.00000  Uiso   1.00
C51    C     0.49133   0.63307   0.24986   0.00000  Uiso   1.00
C52    C     0.28579   0.53592   0.15387   0.00000  Uiso   1.00
C53    C     0.27547   0.49757   0.05427   0.00000  Uiso   1.00
C54    C     0.26515   0.45918   0.15371   0.00000  Uiso   1.00
C55    C     0.24609   0.38836   0.24995   0.00000  Uiso   1.00
C56    C     0.26470   0.61495   0.15386   0.00000  Uiso   1.00
C57    C     0.23663   0.64304   0.05426   0.00000  Uiso   1.00
C58    C     0.20853   0.67118   0.15370   0.00000  Uiso   1.00
C59    C     0.15672   0.72307   0.24993   0.00000  Uiso   1.00
C60    C     0.29806   0.58153   0.42675   0.00000  Uiso   1.00
C61    C     0.34369   0.59370   0.34596   0.00000  Uiso   1.00
C62    C     0.38206   0.60394   0.44555   0.00000  Uiso   1.00
C63    C     0.42048   0.61418   0.34610   0.00000  Uiso   1.00
C64    C     0.28580   0.53592   0.34597   0.00000  Uiso   1.00
C65    C     0.27548   0.49757   0.44558   0.00000  Uiso   1.00
C66    C     0.26515   0.45918   0.34616   0.00000  Uiso   1.00
C67    C     0.26470   0.61495   0.34597   0.00000  Uiso   1.00
C68    C     0.23664   0.64304   0.44558   0.00000  Uiso   1.00
C69    C     0.20853   0.67118   0.34616   0.00000  Uiso   1.00
H70    H     0.29806   0.58152   0.92350   0.00000  Uiso   1.00
H71    H     0.38204   0.60393   0.90556   0.00000  Uiso   1.00
H72    H     0.27547   0.49758   0.90561   0.00000  Uiso   1.00
H73    H     0.23664   0.64303   0.90560   0.00000  Uiso   1.00
H74    H     0.47516   0.62875   0.97040   0.00000  Uiso   1.00
H75    H     0.25044   0.40452   0.97048   0.00000  Uiso   1.00
H76    H     0.16854   0.71123   0.97047   0.00000  Uiso   1.00
H77    H     0.29806   0.58153   0.57632   0.00000  Uiso   1.00
H78    H     0.38205   0.60393   0.59421   0.00000  Uiso   1.00
H79    H     0.27548   0.49759   0.59425   0.00000  Uiso   1.00
H80    H     0.23665   0.64304   0.59424   0.00000  Uiso   1.00
H81    H     0.47517   0.62875   0.52933   0.00000  Uiso   1.00
H82    H     0.25044   0.40452   0.52941   0.00000  Uiso   1.00
H83    H     0.16855   0.71123   0.52940   0.00000  Uiso   1.00
O84    O     0.53042   0.64348   0.24985   0.00000  Uiso   1.00
O85    O     0.23558   0.34930   0.24995   0.00000  Uiso   1.00
O86    O     0.12814   0.75169   0.24994   0.00000  Uiso   1.00
N87    N     0.46363   0.62569   0.09949   0.00000  Uiso   1.00
N88    N     0.25354   0.41604   0.09956   0.00000  Uiso   1.00
N89    N     0.17697   0.70278   0.09956   0.00000  Uiso   1.00
N90    N     0.46364   0.62569   0.40024   0.00000  Uiso   1.00
N91    N     0.25354   0.41605   0.40032   0.00000  Uiso   1.00
N92    N     0.17697   0.70278   0.40031   0.00000  Uiso   1.00
C93    C     0.08153   0.20194   0.57307   0.00000  Uiso   1.00
C94    C     0.09370   0.15631   0.65385   0.00000  Uiso   1.00
C95    C     0.10394   0.11794   0.55424   0.00000  Uiso   1.00
C96    C     0.11418   0.07953   0.65365   0.00000  Uiso   1.00
C97    C     0.13307   0.00867   0.74986   0.00000  Uiso   1.00
C98    C     0.03592   0.21421   0.65387   0.00000  Uiso   1.00
C99    C     0.99757   0.22453   0.55427   0.00000  Uiso   1.00
C100   C     0.95918   0.23485   0.65371   0.00000  Uiso   1.00
C101   C     0.88836   0.25391   0.74995   0.00000  Uiso   1.00
C102   C     0.11495   0.23530   0.65386   0.00000  Uiso   1.00
C103   C     0.14304   0.26337   0.55426   0.00000  Uiso   1.00
C104   C     0.17118   0.29147   0.65370   0.00000  Uiso   1.00
C105   C     0.22307   0.34328   0.74993   0.00000  Uiso   1.00
C106   C     0.08153   0.20194   0.92675   0.00000  Uiso   1.00
C107   C     0.09370   0.15631   0.84596   0.00000  Uiso   1.00
C108   C     0.10394   0.11794   0.94555   0.00000  Uiso   1.00
C109   C     0.11418   0.07952   0.84610   0.00000  Uiso   1.00
C110   C     0.03592   0.21420   0.84597   0.00000  Uiso   1.00
C111   C     0.99757   0.22452   0.94558   0.00000  Uiso   1.00
C112   C     0.95918   0.23485   0.84616   0.00000  Uiso   1.00
C113   C     0.11495   0.23530   0.84597   0.00000  Uiso   1.00
C114   C     0.14304   0.26336   0.94558   0.00000  Uiso   1.00
C115   C     0.17118   0.29147   0.84616   0.00000  Uiso   1.00
H116   H     0.08152   0.20194   0.42350   0.00000  Uiso   1.00
H117   H     0.10393   0.11796   0.40556   0.00000  Uiso   1.00
H118   H     0.99758   0.22453   0.40561   0.00000  Uiso   1.00
H119   H     0.14303   0.26336   0.40560   0.00000  Uiso   1.00
H120   H     0.12875   0.02484   0.47040   0.00000  Uiso   1.00
H121   H     0.90452   0.24956   0.47048   0.00000  Uiso   1.00
H122   H     0.21123   0.33146   0.47047   0.00000  Uiso   1.00
H123   H     0.08153   0.20194   0.07632   0.00000  Uiso   1.00
H124   H     0.10393   0.11795   0.09421   0.00000  Uiso   1.00
H125   H     0.99759   0.22452   0.09425   0.00000  Uiso   1.00
H126   H     0.14304   0.26335   0.09424   0.00000  Uiso   1.00
H127   H     0.12875   0.02483   0.02933   0.00000  Uiso   1.00
H128   H     0.90452   0.24956   0.02941   0.00000  Uiso   1.00
H129   H     0.21123   0.33145   0.02940   0.00000  Uiso   1.00
O130   O     0.14348   0.96958   0.74985   0.00000  Uiso   1.00
O131   O     0.84930   0.26442   0.74995   0.00000  Uiso   1.00
O132   O     0.25169   0.37186   0.74994   0.00000  Uiso   1.00
N133   N     0.12569   0.03637   0.59949   0.00000  Uiso   1.00
N134   N     0.91604   0.24646   0.59956   0.00000  Uiso   1.00
N135   N     0.20278   0.32303   0.59956   0.00000  Uiso   1.00
N136   N     0.12569   0.03636   0.90024   0.00000  Uiso   1.00
N137   N     0.91605   0.24646   0.90032   0.00000  Uiso   1.00
N138   N     0.20278   0.32303   0.90031   0.00000  Uiso   1.00
C139   C     0.91847   0.79806   0.57307   0.00000  Uiso   1.00
C140   C     0.90630   0.84369   0.65385   0.00000  Uiso   1.00
C141   C     0.89606   0.88206   0.55424   0.00000  Uiso   1.00
C142   C     0.88582   0.92047   0.65365   0.00000  Uiso   1.00
C143   C     0.86693   0.99133   0.74986   0.00000  Uiso   1.00
C144   C     0.96408   0.78579   0.65387   0.00000  Uiso   1.00
C145   C     0.00243   0.77547   0.55427   0.00000  Uiso   1.00
C146   C     0.04082   0.76515   0.65371   0.00000  Uiso   1.00
C147   C     0.11164   0.74609   0.74995   0.00000  Uiso   1.00
C148   C     0.88505   0.76470   0.65386   0.00000  Uiso   1.00
C149   C     0.85696   0.73663   0.55426   0.00000  Uiso   1.00
C150   C     0.82882   0.70853   0.65370   0.00000  Uiso   1.00
C151   C     0.77693   0.65672   0.74993   0.00000  Uiso   1.00
C152   C     0.91847   0.79806   0.92675   0.00000  Uiso   1.00
C153   C     0.90630   0.84369   0.84596   0.00000  Uiso   1.00
C154   C     0.89606   0.88206   0.94555   0.00000  Uiso   1.00
C155   C     0.88582   0.92048   0.84610   0.00000  Uiso   1.00
C156   C     0.96408   0.78580   0.84597   0.00000  Uiso   1.00
C157   C     0.00243   0.77548   0.94558   0.00000  Uiso   1.00
C158   C     0.04082   0.76515   0.84616   0.00000  Uiso   1.00
C159   C     0.88505   0.76470   0.84597   0.00000  Uiso   1.00
C160   C     0.85696   0.73664   0.94558   0.00000  Uiso   1.00
C161   C     0.82882   0.70853   0.84616   0.00000  Uiso   1.00
H162   H     0.91848   0.79806   0.42350   0.00000  Uiso   1.00
H163   H     0.89607   0.88204   0.40556   0.00000  Uiso   1.00
H164   H     0.00242   0.77547   0.40561   0.00000  Uiso   1.00
H165   H     0.85697   0.73664   0.40560   0.00000  Uiso   1.00
H166   H     0.87125   0.97516   0.47040   0.00000  Uiso   1.00
H167   H     0.09548   0.75044   0.47048   0.00000  Uiso   1.00
H168   H     0.78877   0.66854   0.47047   0.00000  Uiso   1.00
H169   H     0.91847   0.79806   0.07632   0.00000  Uiso   1.00
H170   H     0.89607   0.88205   0.09421   0.00000  Uiso   1.00
H171   H     0.00241   0.77548   0.09425   0.00000  Uiso   1.00
H172   H     0.85696   0.73665   0.09424   0.00000  Uiso   1.00
H173   H     0.87125   0.97517   0.02933   0.00000  Uiso   1.00
H174   H     0.09548   0.75044   0.02941   0.00000  Uiso   1.00
H175   H     0.78877   0.66855   0.02940   0.00000  Uiso   1.00
O176   O     0.85652   0.03042   0.74985   0.00000  Uiso   1.00
O177   O     0.15070   0.73558   0.74995   0.00000  Uiso   1.00
O178   O     0.74831   0.62814   0.74994   0.00000  Uiso   1.00
N179   N     0.87431   0.96363   0.59949   0.00000  Uiso   1.00
N180   N     0.08396   0.75354   0.59956   0.00000  Uiso   1.00
N181   N     0.79722   0.67697   0.59956   0.00000  Uiso   1.00
N182   N     0.87431   0.96364   0.90024   0.00000  Uiso   1.00
N183   N     0.08395   0.75354   0.90032   0.00000  Uiso   1.00
N184   N     0.79722   0.67697   0.90031   0.00000  Uiso   1.00
C185   C     0.79806   0.08153   0.42693   0.00000  Uiso   1.00
C186   C     0.84369   0.09370   0.34615   0.00000  Uiso   1.00
C187   C     0.88206   0.10394   0.44576   0.00000  Uiso   1.00
C188   C     0.92047   0.11418   0.34635   0.00000  Uiso   1.00
C189   C     0.99133   0.13307   0.25014   0.00000  Uiso   1.00
C190   C     0.78579   0.03592   0.34613   0.00000  Uiso   1.00
C191   C     0.77547   0.99757   0.44573   0.00000  Uiso   1.00
C192   C     0.76515   0.95918   0.34629   0.00000  Uiso   1.00
C193   C     0.74609   0.88836   0.25005   0.00000  Uiso   1.00
C194   C     0.76470   0.11495   0.34614   0.00000  Uiso   1.00
C195   C     0.73663   0.14304   0.44574   0.00000  Uiso   1.00
C196   C     0.70853   0.17118   0.34630   0.00000  Uiso   1.00
C197   C     0.65672   0.22307   0.25007   0.00000  Uiso   1.00
C198   C     0.79806   0.08153   0.07325   0.00000  Uiso   1.00
C199   C     0.84369   0.09370   0.15404   0.00000  Uiso   1.00
C200   C     0.88206   0.10394   0.05445   0.00000  Uiso   1.00
C201   C     0.92048   0.11418   0.15390   0.00000  Uiso   1.00
C202   C     0.78580   0.03592   0.15403   0.00000  Uiso   1.00
C203   C     0.77548   0.99757   0.05442   0.00000  Uiso   1.00
C204   C     0.76515   0.95918   0.15384   0.00000  Uiso   1.00
C205   C     0.76470   0.11495   0.15403   0.00000  Uiso   1.00
C206   C     0.73664   0.14304   0.05442   0.00000  Uiso   1.00
C207   C     0.70853   0.17118   0.15384   0.00000  Uiso   1.00
H208   H     0.79806   0.08152   0.57650   0.00000  Uiso   1.00
H209   H     0.88204   0.10393   0.59444   0.00000  Uiso   1.00
H210   H     0.77547   0.99758   0.59439   0.00000  Uiso   1.00
H211   H     0.73664   0.14303   0.59440   0.00000  Uiso   1.00
H212   H     0.97516   0.12875   0.52960   0.00000  Uiso   1.00
H213   H     0.75044   0.90452   0.52952   0.00000  Uiso   1.00
H214   H     0.66854   0.21123   0.52953   0.00000  Uiso   1.00
H215   H     0.79806   0.08153   0.92368   0.00000  Uiso   1.00
H216   H     0.88205   0.10393   0.90579   0.00000  Uiso   1.00
H217   H     0.77548   0.99759   0.90575   0.00000  Uiso   1.00
H218   H     0.73665   0.14304   0.90576   0.00000  Uiso   1.00
H219   H     0.97517   0.12875   0.97067   0.00000  Uiso   1.00
H220   H     0.75044   0.90452   0.97059   0.00000  Uiso   1.00
H221   H     0.66855   0.21123   0.97060   0.00000  Uiso   1.00
O222   O     0.03042   0.14348   0.25015   0.00000  Uiso   1.00
O223   O     0.73558   0.84930   0.25005   0.00000  Uiso   1.00
O224   O     0.62814   0.25169   0.25006   0.00000  Uiso   1.00
N225   N     0.96363   0.12569   0.40051   0.00000  Uiso   1.00
N226   N     0.75354   0.91604   0.40044   0.00000  Uiso   1.00
N227   N     0.67697   0.20278   0.40044   0.00000  Uiso   1.00
N228   N     0.96364   0.12569   0.09976   0.00000  Uiso   1.00
N229   N     0.75354   0.91605   0.09968   0.00000  Uiso   1.00
N230   N     0.67697   0.20278   0.09969   0.00000  Uiso   1.00
C231   C     0.20194   0.91847   0.42693   0.00000  Uiso   1.00
C232   C     0.15631   0.90630   0.34615   0.00000  Uiso   1.00
C233   C     0.11794   0.89606   0.44576   0.00000  Uiso   1.00
C234   C     0.07953   0.88582   0.34635   0.00000  Uiso   1.00
C235   C     0.00867   0.86693   0.25014   0.00000  Uiso   1.00
C236   C     0.21421   0.96408   0.34613   0.00000  Uiso   1.00
C237   C     0.22453   0.00243   0.44573   0.00000  Uiso   1.00
C238   C     0.23485   0.04082   0.34629   0.00000  Uiso   1.00
C239   C     0.25391   0.11164   0.25005   0.00000  Uiso   1.00
C240   C     0.23530   0.88505   0.34614   0.00000  Uiso   1.00
C241   C     0.26337   0.85696   0.44574   0.00000  Uiso   1.00
C242   C     0.29147   0.82882   0.34630   0.00000  Uiso   1.00
C243   C     0.34328   0.77693   0.25007   0.00000  Uiso   1.00
C244   C     0.20194   0.91847   0.07325   0.00000  Uiso   1.00
C245   C     0.15631   0.90630   0.15404   0.00000  Uiso   1.00
C246   C     0.11794   0.89606   0.05445   0.00000  Uiso   1.00
C247   C     0.07952   0.88582   0.15390   0.00000  Uiso   1.00
C248   C     0.21420   0.96408   0.15403   0.00000  Uiso   1.00
C249   C     0.22452   0.00243   0.05442   0.00000  Uiso   1.00
C250   C     0.23485   0.04082   0.15384   0.00000  Uiso   1.00
C251   C     0.23530   0.88505   0.15403   0.00000  Uiso   1.00
C252   C     0.26336   0.85696   0.05442   0.00000  Uiso   1.00
C253   C     0.29147   0.82882   0.15384   0.00000  Uiso   1.00
H254   H     0.20194   0.91848   0.57650   0.00000  Uiso   1.00
H255   H     0.11796   0.89607   0.59444   0.00000  Uiso   1.00
H256   H     0.22453   0.00242   0.59439   0.00000  Uiso   1.00
H257   H     0.26336   0.85697   0.59440   0.00000  Uiso   1.00
H258   H     0.02484   0.87125   0.52960   0.00000  Uiso   1.00
H259   H     0.24956   0.09548   0.52952   0.00000  Uiso   1.00
H260   H     0.33146   0.78877   0.52953   0.00000  Uiso   1.00
H261   H     0.20194   0.91847   0.92368   0.00000  Uiso   1.00
H262   H     0.11795   0.89607   0.90579   0.00000  Uiso   1.00
H263   H     0.22452   0.00241   0.90575   0.00000  Uiso   1.00
H264   H     0.26335   0.85696   0.90576   0.00000  Uiso   1.00
H265   H     0.02483   0.87125   0.97067   0.00000  Uiso   1.00
H266   H     0.24956   0.09548   0.97059   0.00000  Uiso   1.00
H267   H     0.33145   0.78877   0.97060   0.00000  Uiso   1.00
O268   O     0.96958   0.85652   0.25015   0.00000  Uiso   1.00
O269   O     0.26442   0.15070   0.25005   0.00000  Uiso   1.00
O270   O     0.37186   0.74831   0.25006   0.00000  Uiso   1.00
N271   N     0.03637   0.87431   0.40051   0.00000  Uiso   1.00
N272   N     0.24646   0.08396   0.40044   0.00000  Uiso   1.00
N273   N     0.32303   0.79722   0.40044   0.00000  Uiso   1.00
N274   N     0.03636   0.87431   0.09976   0.00000  Uiso   1.00
N275   N     0.24646   0.08395   0.09968   0.00000  Uiso   1.00
N276   N     0.32303   0.79722   0.09969   0.00000  Uiso   1.00
C277   C     0.41847   0.29806   0.92693   0.00000  Uiso   1.00
C278   C     0.40630   0.34369   0.84615   0.00000  Uiso   1.00
C279   C     0.39606   0.38206   0.94576   0.00000  Uiso   1.00
C280   C     0.38582   0.42047   0.84635   0.00000  Uiso   1.00
C281   C     0.36693   0.49133   0.75014   0.00000  Uiso   1.00
C282   C     0.46408   0.28579   0.84613   0.00000  Uiso   1.00
C283   C     0.50243   0.27547   0.94573   0.00000  Uiso   1.00
C284   C     0.54082   0.26515   0.84629   0.00000  Uiso   1.00
C285   C     0.61164   0.24609   0.75005   0.00000  Uiso   1.00
C286   C     0.38505   0.26470   0.84614   0.00000  Uiso   1.00
C287   C     0.35696   0.23663   0.94574   0.00000  Uiso   1.00
C288   C     0.32882   0.20853   0.84630   0.00000  Uiso   1.00
C289   C     0.27693   0.15672   0.75007   0.00000  Uiso   1.00
C290   C     0.41847   0.29806   0.57325   0.00000  Uiso   1.00
C291   C     0.40630   0.34369   0.65404   0.00000  Uiso   1.00
C292   C     0.39606   0.38206   0.55445   0.00000  Uiso   1.00
C293   C     0.38582   0.42048   0.65390   0.00000  Uiso   1.00
C294   C     0.46408   0.28580   0.65403   0.00000  Uiso   1.00
C295   C     0.50243   0.27548   0.55442   0.00000  Uiso   1.00
C296   C     0.54082   0.26515   0.65384   0.00000  Uiso   1.00
C297   C     0.38505   0.26470   0.65403   0.00000  Uiso   1.00
C298   C     0.35696   0.23664   0.55442   0.00000  Uiso   1.00
C299   C     0.32882   0.20853   0.65384   0.00000  Uiso   1.00
H300   H     0.41848   0.29806   0.07650   0.00000  Uiso   1.00
H301   H     0.39607   0.38204   0.09444   0.00000  Uiso   1.00
H302   H     0.50242   0.27547   0.09439   0.00000  Uiso   1.00
H303   H     0.35697   0.23664   0.09440   0.00000  Uiso   1.00
H304   H     0.37125   0.47516   0.02960   0.00000  Uiso   1.00
H305   H     0.59548   0.25044   0.02952   0.00000  Uiso   1.00
H306   H     0.28877   0.16854   0.02953   0.00000  Uiso   1.00
H307   H     0.41847   0.29806   0.42368   0.00000  Uiso   1.00
H308   H     0.39607   0.38205   0.40579   0.00000  Uiso   1.00
H309   H     0.50241   0.27548   0.40575   0.00000  Uiso   1.00
H310   H     0.35696   0.23665   0.40576   0.00000  Uiso   1.00
H311   H     0.37125   0.47517   0.47067   0.00000  Uiso   1.00
H312   H     0.59548   0.25044   0.47059   0.00000  Uiso   1.00
H313   H     0.28877   0.16855   0.47060   0.00000  Uiso   1.00
O314   O     0.35652   0.53042   0.75015   0.00000  Uiso   1.00
O315   O     0.65070   0.23558   0.75005   0.00000  Uiso   1.00
O316   O     0.24831   0.12814   0.75006   0.00000  Uiso   1.00
N317   N     0.37431   0.46363   0.90051   0.00000  Uiso   1.00
N318   N     0.58396   0.25354   0.90044   0.00000  Uiso   1.00
N319   N     0.29722   0.17697   0.90044   0.00000  Uiso   1.00
N320   N     0.37431   0.46364   0.59976   0.00000  Uiso   1.00
N321   N     0.58395   0.25354   0.59968   0.00000  Uiso   1.00
N322   N     0.29722   0.17697   0.59969   0.00000  Uiso   1.00
C323   C     0.58153   0.70194   0.92693   0.00000  Uiso   1.00
C324   C     0.59370   0.65631   0.84615   0.00000  Uiso   1.00
C325   C     0.60394   0.61794   0.94576   0.00000  Uiso   1.00
C326   C     0.61418   0.57953   0.84635   0.00000  Uiso   1.00
C327   C     0.63307   0.50867   0.75014   0.00000  Uiso   1.00
C328   C     0.53592   0.71421   0.84613   0.00000  Uiso   1.00
C329   C     0.49757   0.72453   0.94573   0.00000  Uiso   1.00
C330   C     0.45918   0.73485   0.84629   0.00000  Uiso   1.00
C331   C     0.38836   0.75391   0.75005   0.00000  Uiso   1.00
C332   C     0.61495   0.73530   0.84614   0.00000  Uiso   1.00
C333   C     0.64304   0.76337   0.94574   0.00000  Uiso   1.00
C334   C     0.67118   0.79147   0.84630   0.00000  Uiso   1.00
C335   C     0.72307   0.84328   0.75007   0.00000  Uiso   1.00
C336   C     0.58153   0.70194   0.57325   0.00000  Uiso   1.00
C337   C     0.59370   0.65631   0.65404   0.00000  Uiso   1.00
C338   C     0.60394   0.61794   0.55445   0.00000  Uiso   1.00
C339   C     0.61418   0.57952   0.65390   0.00000  Uiso   1.00
C340   C     0.53592   0.71420   0.65403   0.00000  Uiso   1.00
C341   C     0.49757   0.72452   0.55442   0.00000  Uiso   1.00
C342   C     0.45918   0.73485   0.65384   0.00000  Uiso   1.00
C343   C     0.61495   0.73530   0.65403   0.00000  Uiso   1.00
C344   C     0.64304   0.76336   0.55442   0.00000  Uiso   1.00
C345   C     0.67118   0.79147   0.65384   0.00000  Uiso   1.00
H346   H     0.58152   0.70194   0.07650   0.00000  Uiso   1.00
H347   H     0.60393   0.61796   0.09444   0.00000  Uiso   1.00
H348   H     0.49758   0.72453   0.09439   0.00000  Uiso   1.00
H349   H     0.64303   0.76336   0.09440   0.00000  Uiso   1.00
H350   H     0.62875   0.52484   0.02960   0.00000  Uiso   1.00
H351   H     0.40452   0.74956   0.02952   0.00000  Uiso   1.00
H352   H     0.71123   0.83146   0.02953   0.00000  Uiso   1.00
H353   H     0.58153   0.70194   0.42368   0.00000  Uiso   1.00
H354   H     0.60393   0.61795   0.40579   0.00000  Uiso   1.00
H355   H     0.49759   0.72452   0.40575   0.00000  Uiso   1.00
H356   H     0.64304   0.76335   0.40576   0.00000  Uiso   1.00
H357   H     0.62875   0.52483   0.47067   0.00000  Uiso   1.00
H358   H     0.40452   0.74956   0.47059   0.00000  Uiso   1.00
H359   H     0.71123   0.83145   0.47060   0.00000  Uiso   1.00
O360   O     0.64348   0.46958   0.75015   0.00000  Uiso   1.00
O361   O     0.34930   0.76442   0.75005   0.00000  Uiso   1.00
O362   O     0.75169   0.87186   0.75006   0.00000  Uiso   1.00
N363   N     0.62569   0.53637   0.90051   0.00000  Uiso   1.00
N364   N     0.41604   0.74646   0.90044   0.00000  Uiso   1.00
N365   N     0.70278   0.82303   0.90044   0.00000  Uiso   1.00
N366   N     0.62569   0.53636   0.59976   0.00000  Uiso   1.00
N367   N     0.41605   0.74646   0.59968   0.00000  Uiso   1.00
N368   N     0.70278   0.82303   0.59969   0.00000  Uiso   1.00
