data_job_04015
_audit_creation_date              2018-12-19
_audit_creation_method            'Materials Studio'
_symmetry_space_group_name_H-M    'P1'
_symmetry_Int_Tables_number       1
_symmetry_cell_setting            triclinic
loop_
_symmetry_equiv_pos_as_xyz
  x,y,z
_cell_length_a                    22.6978
_cell_length_b                    22.6978
_cell_length_c                    12.8185
_cell_angle_alpha                 90.0000
_cell_angle_beta                  90.0000
_cell_angle_gamma                 90.0000
loop_
_atom_site_label
_atom_site_type_symbol
_atom_site_fract_x
_atom_site_fract_y
_atom_site_fract_z
_atom_site_U_iso_or_equiv
_atom_site_adp_type
_atom_site_occupancy
C1     C     0.31482   0.73219   0.70329   0.00000  Uiso   1.00
C2     C     0.35086   0.78743   0.68069   0.00000  Uiso   1.00
C3     C     0.33034   0.84494   0.68600   0.00000  Uiso   1.00
C4     C     0.37022   0.88937   0.66240   0.00000  Uiso   1.00
C5     C     0.41732   0.97708   0.63151   0.00000  Uiso   1.00
C6     C     0.31908   0.69409   0.60559   0.00000  Uiso   1.00
C7     C     0.27182   0.67313   0.54776   0.00000  Uiso   1.00
C8     C     0.28494   0.63898   0.46095   0.00000  Uiso   1.00
C9     C     0.28268   0.58175   0.31350   0.00000  Uiso   1.00
C10    C     0.34805   0.69903   0.78838   0.00000  Uiso   1.00
C11    C     0.32515   0.68219   0.88424   0.00000  Uiso   1.00
C12    C     0.36266   0.65218   0.95131   0.00000  Uiso   1.00
C13    C     0.40538   0.60260   0.08768   0.00000  Uiso   1.00
C14    C     0.42213   0.70881   0.65193   0.00000  Uiso   1.00
C15    C     0.40915   0.77473   0.65279   0.00000  Uiso   1.00
C16    C     0.44907   0.81908   0.62918   0.00000  Uiso   1.00
C17    C     0.42861   0.87666   0.63446   0.00000  Uiso   1.00
C18    C     0.37736   0.68140   0.57769   0.00000  Uiso   1.00
C19    C     0.39055   0.64727   0.49095   0.00000  Uiso   1.00
C20    C     0.34333   0.62626   0.43300   0.00000  Uiso   1.00
C21    C     0.40634   0.68633   0.76049   0.00000  Uiso   1.00
C22    C     0.44388   0.65634   0.82742   0.00000  Uiso   1.00
C23    C     0.42105   0.63946   0.92337   0.00000  Uiso   1.00
H24    H     0.26944   0.74207   0.72500   0.00000  Uiso   1.00
H25    H     0.28523   0.85475   0.70758   0.00000  Uiso   1.00
H26    H     0.22672   0.68296   0.56937   0.00000  Uiso   1.00
H27    H     0.28004   0.69202   0.90580   0.00000  Uiso   1.00
H28    H     0.32844   0.97408   0.67594   0.00000  Uiso   1.00
H29    H     0.20507   0.61183   0.38454   0.00000  Uiso   1.00
H30    H     0.31751   0.63094   0.09395   0.00000  Uiso   1.00
H31    H     0.46751   0.69893   0.63021   0.00000  Uiso   1.00
H32    H     0.49417   0.80925   0.60760   0.00000  Uiso   1.00
H33    H     0.43566   0.63745   0.46939   0.00000  Uiso   1.00
H34    H     0.48898   0.64652   0.80581   0.00000  Uiso   1.00
H35    H     0.49802   0.93714   0.59478   0.00000  Uiso   1.00
H36    H     0.37465   0.57489   0.30338   0.00000  Uiso   1.00
H37    H     0.48709   0.59401   0.01280   0.00000  Uiso   1.00
O38    O     0.42719   0.02896   0.62216   0.00000  Uiso   1.00
O39    O     0.26533   0.55369   0.23987   0.00000  Uiso   1.00
O40    O     0.41285   0.57877   0.17060   0.00000  Uiso   1.00
N41    N     0.36469   0.95025   0.65996   0.00000  Uiso   1.00
N42    N     0.24935   0.61157   0.38751   0.00000  Uiso   1.00
N43    N     0.35447   0.62943   0.05074   0.00000  Uiso   1.00
N44    N     0.45595   0.93037   0.61629   0.00000  Uiso   1.00
N45    N     0.34060   0.59170   0.34384   0.00000  Uiso   1.00
N46    N     0.44572   0.60955   0.00707   0.00000  Uiso   1.00
C47    C     0.81482   0.23219   0.20329   0.00000  Uiso   1.00
C48    C     0.85086   0.28743   0.18069   0.00000  Uiso   1.00
C49    C     0.83034   0.34494   0.18600   0.00000  Uiso   1.00
C50    C     0.87022   0.38937   0.16240   0.00000  Uiso   1.00
C51    C     0.91732   0.47708   0.13151   0.00000  Uiso   1.00
C52    C     0.81908   0.19409   0.10559   0.00000  Uiso   1.00
C53    C     0.77182   0.17313   0.04776   0.00000  Uiso   1.00
C54    C     0.78494   0.13898   0.96095   0.00000  Uiso   1.00
C55    C     0.78268   0.08175   0.81350   0.00000  Uiso   1.00
C56    C     0.84805   0.19903   0.28838   0.00000  Uiso   1.00
C57    C     0.82515   0.18219   0.38424   0.00000  Uiso   1.00
C58    C     0.86266   0.15218   0.45131   0.00000  Uiso   1.00
C59    C     0.90538   0.10260   0.58768   0.00000  Uiso   1.00
C60    C     0.92213   0.20881   0.15193   0.00000  Uiso   1.00
C61    C     0.90915   0.27473   0.15279   0.00000  Uiso   1.00
C62    C     0.94907   0.31908   0.12918   0.00000  Uiso   1.00
C63    C     0.92861   0.37666   0.13446   0.00000  Uiso   1.00
C64    C     0.87736   0.18140   0.07769   0.00000  Uiso   1.00
C65    C     0.89055   0.14727   0.99095   0.00000  Uiso   1.00
C66    C     0.84333   0.12626   0.93300   0.00000  Uiso   1.00
C67    C     0.90634   0.18633   0.26049   0.00000  Uiso   1.00
C68    C     0.94388   0.15634   0.32742   0.00000  Uiso   1.00
C69    C     0.92105   0.13946   0.42337   0.00000  Uiso   1.00
H70    H     0.76944   0.24207   0.22500   0.00000  Uiso   1.00
H71    H     0.78523   0.35475   0.20758   0.00000  Uiso   1.00
H72    H     0.72672   0.18296   0.06937   0.00000  Uiso   1.00
H73    H     0.78004   0.19202   0.40580   0.00000  Uiso   1.00
H74    H     0.82844   0.47408   0.17594   0.00000  Uiso   1.00
H75    H     0.70507   0.11183   0.88454   0.00000  Uiso   1.00
H76    H     0.81751   0.13094   0.59395   0.00000  Uiso   1.00
H77    H     0.96751   0.19893   0.13021   0.00000  Uiso   1.00
H78    H     0.99417   0.30925   0.10760   0.00000  Uiso   1.00
H79    H     0.93566   0.13745   0.96939   0.00000  Uiso   1.00
H80    H     0.98898   0.14652   0.30581   0.00000  Uiso   1.00
H81    H     0.99802   0.43714   0.09478   0.00000  Uiso   1.00
H82    H     0.87465   0.07489   0.80338   0.00000  Uiso   1.00
H83    H     0.98709   0.09401   0.51280   0.00000  Uiso   1.00
O84    O     0.92719   0.52896   0.12216   0.00000  Uiso   1.00
O85    O     0.76533   0.05369   0.73987   0.00000  Uiso   1.00
O86    O     0.91285   0.07877   0.67060   0.00000  Uiso   1.00
N87    N     0.86469   0.45025   0.15996   0.00000  Uiso   1.00
N88    N     0.74935   0.11157   0.88751   0.00000  Uiso   1.00
N89    N     0.85447   0.12943   0.55074   0.00000  Uiso   1.00
N90    N     0.95595   0.43037   0.11629   0.00000  Uiso   1.00
N91    N     0.84060   0.09170   0.84384   0.00000  Uiso   1.00
N92    N     0.94572   0.10955   0.50707   0.00000  Uiso   1.00
C93    C     0.68518   0.26781   0.70329   0.00000  Uiso   1.00
C94    C     0.64914   0.21257   0.68069   0.00000  Uiso   1.00
C95    C     0.66966   0.15506   0.68600   0.00000  Uiso   1.00
C96    C     0.62978   0.11063   0.66240   0.00000  Uiso   1.00
C97    C     0.58268   0.02292   0.63151   0.00000  Uiso   1.00
C98    C     0.68092   0.30591   0.60559   0.00000  Uiso   1.00
C99    C     0.72818   0.32687   0.54776   0.00000  Uiso   1.00
C100   C     0.71506   0.36102   0.46095   0.00000  Uiso   1.00
C101   C     0.71732   0.41825   0.31350   0.00000  Uiso   1.00
C102   C     0.65195   0.30097   0.78838   0.00000  Uiso   1.00
C103   C     0.67485   0.31781   0.88424   0.00000  Uiso   1.00
C104   C     0.63734   0.34782   0.95131   0.00000  Uiso   1.00
C105   C     0.59462   0.39740   0.08768   0.00000  Uiso   1.00
C106   C     0.57787   0.29119   0.65193   0.00000  Uiso   1.00
C107   C     0.59085   0.22527   0.65279   0.00000  Uiso   1.00
C108   C     0.55093   0.18092   0.62918   0.00000  Uiso   1.00
C109   C     0.57139   0.12334   0.63446   0.00000  Uiso   1.00
C110   C     0.62264   0.31860   0.57769   0.00000  Uiso   1.00
C111   C     0.60945   0.35273   0.49095   0.00000  Uiso   1.00
C112   C     0.65667   0.37374   0.43300   0.00000  Uiso   1.00
C113   C     0.59366   0.31367   0.76049   0.00000  Uiso   1.00
C114   C     0.55612   0.34366   0.82742   0.00000  Uiso   1.00
C115   C     0.57895   0.36054   0.92337   0.00000  Uiso   1.00
H116   H     0.73056   0.25793   0.72500   0.00000  Uiso   1.00
H117   H     0.71477   0.14525   0.70758   0.00000  Uiso   1.00
H118   H     0.77328   0.31704   0.56937   0.00000  Uiso   1.00
H119   H     0.71996   0.30798   0.90580   0.00000  Uiso   1.00
H120   H     0.67156   0.02592   0.67594   0.00000  Uiso   1.00
H121   H     0.79493   0.38817   0.38454   0.00000  Uiso   1.00
H122   H     0.68249   0.36906   0.09395   0.00000  Uiso   1.00
H123   H     0.53249   0.30107   0.63021   0.00000  Uiso   1.00
H124   H     0.50583   0.19075   0.60760   0.00000  Uiso   1.00
H125   H     0.56434   0.36255   0.46939   0.00000  Uiso   1.00
H126   H     0.51102   0.35348   0.80581   0.00000  Uiso   1.00
H127   H     0.50198   0.06286   0.59478   0.00000  Uiso   1.00
H128   H     0.62535   0.42511   0.30338   0.00000  Uiso   1.00
H129   H     0.51291   0.40599   0.01280   0.00000  Uiso   1.00
O130   O     0.57281   0.97104   0.62216   0.00000  Uiso   1.00
O131   O     0.73467   0.44631   0.23987   0.00000  Uiso   1.00
O132   O     0.58715   0.42123   0.17060   0.00000  Uiso   1.00
N133   N     0.63531   0.04975   0.65996   0.00000  Uiso   1.00
N134   N     0.75065   0.38843   0.38751   0.00000  Uiso   1.00
N135   N     0.64553   0.37057   0.05074   0.00000  Uiso   1.00
N136   N     0.54405   0.06963   0.61629   0.00000  Uiso   1.00
N137   N     0.65940   0.40830   0.34384   0.00000  Uiso   1.00
N138   N     0.55428   0.39045   0.00707   0.00000  Uiso   1.00
C139   C     0.18518   0.76781   0.20329   0.00000  Uiso   1.00
C140   C     0.14914   0.71257   0.18069   0.00000  Uiso   1.00
C141   C     0.16966   0.65506   0.18600   0.00000  Uiso   1.00
C142   C     0.12978   0.61063   0.16240   0.00000  Uiso   1.00
C143   C     0.08268   0.52292   0.13151   0.00000  Uiso   1.00
C144   C     0.18092   0.80591   0.10559   0.00000  Uiso   1.00
C145   C     0.22818   0.82687   0.04776   0.00000  Uiso   1.00
C146   C     0.21506   0.86102   0.96095   0.00000  Uiso   1.00
C147   C     0.21732   0.91825   0.81350   0.00000  Uiso   1.00
C148   C     0.15195   0.80097   0.28838   0.00000  Uiso   1.00
C149   C     0.17485   0.81781   0.38424   0.00000  Uiso   1.00
C150   C     0.13734   0.84782   0.45131   0.00000  Uiso   1.00
C151   C     0.09462   0.89740   0.58768   0.00000  Uiso   1.00
C152   C     0.07787   0.79119   0.15193   0.00000  Uiso   1.00
C153   C     0.09085   0.72527   0.15279   0.00000  Uiso   1.00
C154   C     0.05093   0.68092   0.12918   0.00000  Uiso   1.00
C155   C     0.07139   0.62334   0.13446   0.00000  Uiso   1.00
C156   C     0.12264   0.81860   0.07769   0.00000  Uiso   1.00
C157   C     0.10945   0.85273   0.99095   0.00000  Uiso   1.00
C158   C     0.15667   0.87374   0.93300   0.00000  Uiso   1.00
C159   C     0.09366   0.81367   0.26049   0.00000  Uiso   1.00
C160   C     0.05612   0.84366   0.32742   0.00000  Uiso   1.00
C161   C     0.07895   0.86054   0.42337   0.00000  Uiso   1.00
H162   H     0.23056   0.75793   0.22500   0.00000  Uiso   1.00
H163   H     0.21477   0.64525   0.20758   0.00000  Uiso   1.00
H164   H     0.27328   0.81704   0.06937   0.00000  Uiso   1.00
H165   H     0.21996   0.80798   0.40580   0.00000  Uiso   1.00
H166   H     0.17156   0.52592   0.17594   0.00000  Uiso   1.00
H167   H     0.29493   0.88817   0.88454   0.00000  Uiso   1.00
H168   H     0.18249   0.86906   0.59395   0.00000  Uiso   1.00
H169   H     0.03249   0.80107   0.13021   0.00000  Uiso   1.00
H170   H     0.00583   0.69075   0.10760   0.00000  Uiso   1.00
H171   H     0.06434   0.86255   0.96939   0.00000  Uiso   1.00
H172   H     0.01102   0.85348   0.30581   0.00000  Uiso   1.00
H173   H     0.00198   0.56286   0.09478   0.00000  Uiso   1.00
H174   H     0.12535   0.92511   0.80338   0.00000  Uiso   1.00
H175   H     0.01291   0.90599   0.51280   0.00000  Uiso   1.00
O176   O     0.07281   0.47104   0.12216   0.00000  Uiso   1.00
O177   O     0.23467   0.94631   0.73987   0.00000  Uiso   1.00
O178   O     0.08715   0.92123   0.67060   0.00000  Uiso   1.00
N179   N     0.13531   0.54975   0.15996   0.00000  Uiso   1.00
N180   N     0.25065   0.88843   0.88751   0.00000  Uiso   1.00
N181   N     0.14553   0.87057   0.55074   0.00000  Uiso   1.00
N182   N     0.04405   0.56963   0.11629   0.00000  Uiso   1.00
N183   N     0.15940   0.90830   0.84384   0.00000  Uiso   1.00
N184   N     0.05428   0.89045   0.50707   0.00000  Uiso   1.00
C185   C     0.73219   0.68518   0.29671   0.00000  Uiso   1.00
C186   C     0.78743   0.64914   0.31931   0.00000  Uiso   1.00
C187   C     0.84494   0.66966   0.31400   0.00000  Uiso   1.00
C188   C     0.88937   0.62978   0.33760   0.00000  Uiso   1.00
C189   C     0.97708   0.58268   0.36849   0.00000  Uiso   1.00
C190   C     0.69409   0.68092   0.39441   0.00000  Uiso   1.00
C191   C     0.67313   0.72818   0.45224   0.00000  Uiso   1.00
C192   C     0.63898   0.71506   0.53905   0.00000  Uiso   1.00
C193   C     0.58175   0.71732   0.68650   0.00000  Uiso   1.00
C194   C     0.69903   0.65195   0.21162   0.00000  Uiso   1.00
C195   C     0.68219   0.67485   0.11576   0.00000  Uiso   1.00
C196   C     0.65218   0.63734   0.04869   0.00000  Uiso   1.00
C197   C     0.60260   0.59462   0.91232   0.00000  Uiso   1.00
C198   C     0.70881   0.57787   0.34807   0.00000  Uiso   1.00
C199   C     0.77473   0.59085   0.34721   0.00000  Uiso   1.00
C200   C     0.81908   0.55093   0.37082   0.00000  Uiso   1.00
C201   C     0.87666   0.57139   0.36554   0.00000  Uiso   1.00
C202   C     0.68140   0.62264   0.42231   0.00000  Uiso   1.00
C203   C     0.64727   0.60945   0.50905   0.00000  Uiso   1.00
C204   C     0.62626   0.65667   0.56700   0.00000  Uiso   1.00
C205   C     0.68633   0.59366   0.23951   0.00000  Uiso   1.00
C206   C     0.65634   0.55612   0.17258   0.00000  Uiso   1.00
C207   C     0.63946   0.57895   0.07663   0.00000  Uiso   1.00
H208   H     0.74207   0.73056   0.27500   0.00000  Uiso   1.00
H209   H     0.85475   0.71477   0.29242   0.00000  Uiso   1.00
H210   H     0.68296   0.77328   0.43063   0.00000  Uiso   1.00
H211   H     0.69202   0.71996   0.09420   0.00000  Uiso   1.00
H212   H     0.97408   0.67156   0.32406   0.00000  Uiso   1.00
H213   H     0.61183   0.79493   0.61546   0.00000  Uiso   1.00
H214   H     0.63094   0.68249   0.90605   0.00000  Uiso   1.00
H215   H     0.69893   0.53249   0.36979   0.00000  Uiso   1.00
H216   H     0.80925   0.50583   0.39240   0.00000  Uiso   1.00
H217   H     0.63745   0.56434   0.53061   0.00000  Uiso   1.00
H218   H     0.64652   0.51102   0.19419   0.00000  Uiso   1.00
H219   H     0.93714   0.50198   0.40522   0.00000  Uiso   1.00
H220   H     0.57489   0.62535   0.69662   0.00000  Uiso   1.00
H221   H     0.59401   0.51291   0.98720   0.00000  Uiso   1.00
O222   O     0.02896   0.57281   0.37784   0.00000  Uiso   1.00
O223   O     0.55369   0.73467   0.76013   0.00000  Uiso   1.00
O224   O     0.57877   0.58715   0.82940   0.00000  Uiso   1.00
N225   N     0.95025   0.63531   0.34004   0.00000  Uiso   1.00
N226   N     0.61157   0.75065   0.61249   0.00000  Uiso   1.00
N227   N     0.62943   0.64553   0.94926   0.00000  Uiso   1.00
N228   N     0.93037   0.54405   0.38371   0.00000  Uiso   1.00
N229   N     0.59170   0.65940   0.65616   0.00000  Uiso   1.00
N230   N     0.60955   0.55428   0.99293   0.00000  Uiso   1.00
C231   C     0.23219   0.18518   0.79671   0.00000  Uiso   1.00
C232   C     0.28743   0.14914   0.81931   0.00000  Uiso   1.00
C233   C     0.34494   0.16966   0.81400   0.00000  Uiso   1.00
C234   C     0.38937   0.12978   0.83760   0.00000  Uiso   1.00
C235   C     0.47708   0.08268   0.86849   0.00000  Uiso   1.00
C236   C     0.19409   0.18092   0.89441   0.00000  Uiso   1.00
C237   C     0.17313   0.22818   0.95224   0.00000  Uiso   1.00
C238   C     0.13898   0.21506   0.03905   0.00000  Uiso   1.00
C239   C     0.08175   0.21732   0.18650   0.00000  Uiso   1.00
C240   C     0.19903   0.15195   0.71162   0.00000  Uiso   1.00
C241   C     0.18219   0.17485   0.61576   0.00000  Uiso   1.00
C242   C     0.15218   0.13734   0.54869   0.00000  Uiso   1.00
C243   C     0.10260   0.09462   0.41232   0.00000  Uiso   1.00
C244   C     0.20881   0.07787   0.84807   0.00000  Uiso   1.00
C245   C     0.27473   0.09085   0.84721   0.00000  Uiso   1.00
C246   C     0.31908   0.05093   0.87082   0.00000  Uiso   1.00
C247   C     0.37666   0.07139   0.86554   0.00000  Uiso   1.00
C248   C     0.18140   0.12264   0.92231   0.00000  Uiso   1.00
C249   C     0.14727   0.10945   0.00905   0.00000  Uiso   1.00
C250   C     0.12626   0.15667   0.06700   0.00000  Uiso   1.00
C251   C     0.18633   0.09366   0.73951   0.00000  Uiso   1.00
C252   C     0.15634   0.05612   0.67258   0.00000  Uiso   1.00
C253   C     0.13946   0.07895   0.57663   0.00000  Uiso   1.00
H254   H     0.24207   0.23056   0.77500   0.00000  Uiso   1.00
H255   H     0.35475   0.21477   0.79242   0.00000  Uiso   1.00
H256   H     0.18296   0.27328   0.93063   0.00000  Uiso   1.00
H257   H     0.19202   0.21996   0.59420   0.00000  Uiso   1.00
H258   H     0.47408   0.17156   0.82406   0.00000  Uiso   1.00
H259   H     0.11183   0.29493   0.11546   0.00000  Uiso   1.00
H260   H     0.13094   0.18249   0.40605   0.00000  Uiso   1.00
H261   H     0.19893   0.03249   0.86979   0.00000  Uiso   1.00
H262   H     0.30925   0.00583   0.89240   0.00000  Uiso   1.00
H263   H     0.13745   0.06434   0.03061   0.00000  Uiso   1.00
H264   H     0.14652   0.01102   0.69419   0.00000  Uiso   1.00
H265   H     0.43714   0.00198   0.90522   0.00000  Uiso   1.00
H266   H     0.07489   0.12535   0.19662   0.00000  Uiso   1.00
H267   H     0.09401   0.01291   0.48720   0.00000  Uiso   1.00
O268   O     0.52896   0.07281   0.87784   0.00000  Uiso   1.00
O269   O     0.05369   0.23467   0.26013   0.00000  Uiso   1.00
O270   O     0.07877   0.08715   0.32940   0.00000  Uiso   1.00
N271   N     0.45025   0.13531   0.84004   0.00000  Uiso   1.00
N272   N     0.11157   0.25065   0.11249   0.00000  Uiso   1.00
N273   N     0.12943   0.14553   0.44926   0.00000  Uiso   1.00
N274   N     0.43037   0.04405   0.88371   0.00000  Uiso   1.00
N275   N     0.09170   0.15940   0.15616   0.00000  Uiso   1.00
N276   N     0.10955   0.05428   0.49293   0.00000  Uiso   1.00
C277   C     0.26781   0.31482   0.29671   0.00000  Uiso   1.00
C278   C     0.21257   0.35086   0.31931   0.00000  Uiso   1.00
C279   C     0.15506   0.33034   0.31400   0.00000  Uiso   1.00
C280   C     0.11063   0.37022   0.33760   0.00000  Uiso   1.00
C281   C     0.02292   0.41732   0.36849   0.00000  Uiso   1.00
C282   C     0.30591   0.31908   0.39441   0.00000  Uiso   1.00
C283   C     0.32687   0.27182   0.45224   0.00000  Uiso   1.00
C284   C     0.36102   0.28494   0.53905   0.00000  Uiso   1.00
C285   C     0.41825   0.28268   0.68650   0.00000  Uiso   1.00
C286   C     0.30097   0.34805   0.21162   0.00000  Uiso   1.00
C287   C     0.31781   0.32515   0.11576   0.00000  Uiso   1.00
C288   C     0.34782   0.36266   0.04869   0.00000  Uiso   1.00
C289   C     0.39740   0.40538   0.91232   0.00000  Uiso   1.00
C290   C     0.29119   0.42213   0.34807   0.00000  Uiso   1.00
C291   C     0.22527   0.40915   0.34721   0.00000  Uiso   1.00
C292   C     0.18092   0.44907   0.37082   0.00000  Uiso   1.00
C293   C     0.12334   0.42861   0.36554   0.00000  Uiso   1.00
C294   C     0.31860   0.37736   0.42231   0.00000  Uiso   1.00
C295   C     0.35273   0.39055   0.50905   0.00000  Uiso   1.00
C296   C     0.37374   0.34333   0.56700   0.00000  Uiso   1.00
C297   C     0.31367   0.40634   0.23951   0.00000  Uiso   1.00
C298   C     0.34366   0.44388   0.17258   0.00000  Uiso   1.00
C299   C     0.36054   0.42105   0.07663   0.00000  Uiso   1.00
H300   H     0.25793   0.26944   0.27500   0.00000  Uiso   1.00
H301   H     0.14525   0.28523   0.29242   0.00000  Uiso   1.00
H302   H     0.31704   0.22672   0.43063   0.00000  Uiso   1.00
H303   H     0.30798   0.28004   0.09420   0.00000  Uiso   1.00
H304   H     0.02592   0.32844   0.32406   0.00000  Uiso   1.00
H305   H     0.38817   0.20507   0.61546   0.00000  Uiso   1.00
H306   H     0.36906   0.31751   0.90605   0.00000  Uiso   1.00
H307   H     0.30107   0.46751   0.36979   0.00000  Uiso   1.00
H308   H     0.19075   0.49417   0.39240   0.00000  Uiso   1.00
H309   H     0.36255   0.43566   0.53061   0.00000  Uiso   1.00
H310   H     0.35348   0.48898   0.19419   0.00000  Uiso   1.00
H311   H     0.06286   0.49802   0.40522   0.00000  Uiso   1.00
H312   H     0.42511   0.37465   0.69662   0.00000  Uiso   1.00
H313   H     0.40599   0.48709   0.98720   0.00000  Uiso   1.00
O314   O     0.97104   0.42719   0.37784   0.00000  Uiso   1.00
O315   O     0.44631   0.26533   0.76013   0.00000  Uiso   1.00
O316   O     0.42123   0.41285   0.82940   0.00000  Uiso   1.00
N317   N     0.04975   0.36469   0.34004   0.00000  Uiso   1.00
N318   N     0.38843   0.24935   0.61249   0.00000  Uiso   1.00
N319   N     0.37057   0.35447   0.94926   0.00000  Uiso   1.00
N320   N     0.06963   0.45595   0.38371   0.00000  Uiso   1.00
N321   N     0.40830   0.34060   0.65616   0.00000  Uiso   1.00
N322   N     0.39045   0.44572   0.99293   0.00000  Uiso   1.00
C323   C     0.76781   0.81482   0.79671   0.00000  Uiso   1.00
C324   C     0.71257   0.85086   0.81931   0.00000  Uiso   1.00
C325   C     0.65506   0.83034   0.81400   0.00000  Uiso   1.00
C326   C     0.61063   0.87022   0.83760   0.00000  Uiso   1.00
C327   C     0.52292   0.91732   0.86849   0.00000  Uiso   1.00
C328   C     0.80591   0.81908   0.89441   0.00000  Uiso   1.00
C329   C     0.82687   0.77182   0.95224   0.00000  Uiso   1.00
C330   C     0.86102   0.78494   0.03905   0.00000  Uiso   1.00
C331   C     0.91825   0.78268   0.18650   0.00000  Uiso   1.00
C332   C     0.80097   0.84805   0.71162   0.00000  Uiso   1.00
C333   C     0.81781   0.82515   0.61576   0.00000  Uiso   1.00
C334   C     0.84782   0.86266   0.54869   0.00000  Uiso   1.00
C335   C     0.89740   0.90538   0.41232   0.00000  Uiso   1.00
C336   C     0.79119   0.92213   0.84807   0.00000  Uiso   1.00
C337   C     0.72527   0.90915   0.84721   0.00000  Uiso   1.00
C338   C     0.68092   0.94907   0.87082   0.00000  Uiso   1.00
C339   C     0.62334   0.92861   0.86554   0.00000  Uiso   1.00
C340   C     0.81860   0.87736   0.92231   0.00000  Uiso   1.00
C341   C     0.85273   0.89055   0.00905   0.00000  Uiso   1.00
C342   C     0.87374   0.84333   0.06700   0.00000  Uiso   1.00
C343   C     0.81367   0.90634   0.73951   0.00000  Uiso   1.00
C344   C     0.84366   0.94388   0.67258   0.00000  Uiso   1.00
C345   C     0.86054   0.92105   0.57663   0.00000  Uiso   1.00
H346   H     0.75793   0.76944   0.77500   0.00000  Uiso   1.00
H347   H     0.64525   0.78523   0.79242   0.00000  Uiso   1.00
H348   H     0.81704   0.72672   0.93063   0.00000  Uiso   1.00
H349   H     0.80798   0.78004   0.59420   0.00000  Uiso   1.00
H350   H     0.52592   0.82844   0.82406   0.00000  Uiso   1.00
H351   H     0.88817   0.70507   0.11546   0.00000  Uiso   1.00
H352   H     0.86906   0.81751   0.40605   0.00000  Uiso   1.00
H353   H     0.80107   0.96751   0.86979   0.00000  Uiso   1.00
H354   H     0.69075   0.99417   0.89240   0.00000  Uiso   1.00
H355   H     0.86255   0.93566   0.03061   0.00000  Uiso   1.00
H356   H     0.85348   0.98898   0.69419   0.00000  Uiso   1.00
H357   H     0.56286   0.99802   0.90522   0.00000  Uiso   1.00
H358   H     0.92511   0.87465   0.19662   0.00000  Uiso   1.00
H359   H     0.90599   0.98709   0.48720   0.00000  Uiso   1.00
O360   O     0.47104   0.92719   0.87784   0.00000  Uiso   1.00
O361   O     0.94631   0.76533   0.26013   0.00000  Uiso   1.00
O362   O     0.92123   0.91285   0.32940   0.00000  Uiso   1.00
N363   N     0.54975   0.86469   0.84004   0.00000  Uiso   1.00
N364   N     0.88843   0.74935   0.11249   0.00000  Uiso   1.00
N365   N     0.87057   0.85447   0.44926   0.00000  Uiso   1.00
N366   N     0.56963   0.95595   0.88371   0.00000  Uiso   1.00
N367   N     0.90830   0.84060   0.15616   0.00000  Uiso   1.00
N368   N     0.89045   0.94572   0.49293   0.00000  Uiso   1.00
