data_job_02948
_audit_creation_date              2018-12-19
_audit_creation_method            'Materials Studio'
_symmetry_space_group_name_H-M    'P1'
_symmetry_Int_Tables_number       1
_symmetry_cell_setting            triclinic
loop_
_symmetry_equiv_pos_as_xyz
  x,y,z
_cell_length_a                    49.0092
_cell_length_b                    7.2048
_cell_length_c                    18.1572
_cell_angle_alpha                 90.0000
_cell_angle_beta                  108.8700
_cell_angle_gamma                 90.0000
loop_
_atom_site_label
_atom_site_type_symbol
_atom_site_fract_x
_atom_site_fract_y
_atom_site_fract_z
_atom_site_U_iso_or_equiv
_atom_site_adp_type
_atom_site_occupancy
C1     C     0.12669   0.21482   0.95186   0.00000  Uiso   1.00
C2     C     0.15428   0.12820   0.00607   0.00000  Uiso   1.00
C3     C     0.17345   0.21270   0.07097   0.00000  Uiso   1.00
C4     C     0.19743   0.11031   0.11298   0.00000  Uiso   1.00
C5     C     0.23957   0.00329   0.20051   0.00000  Uiso   1.00
C6     C     0.12925   0.20659   0.87043   0.00000  Uiso   1.00
C7     C     0.12738   0.35700   0.82128   0.00000  Uiso   1.00
C8     C     0.13029   0.32058   0.74910   0.00000  Uiso   1.00
C9     C     0.13355   0.33524   0.62601   0.00000  Uiso   1.00
C10    C     0.10237   0.08207   0.95111   0.00000  Uiso   1.00
C11    C     0.07789   0.12778   0.96978   0.00000  Uiso   1.00
C12    C     0.05816   0.98652   0.96551   0.00000  Uiso   1.00
C13    C     0.01969   0.80785   0.96770   0.00000  Uiso   1.00
C14    C     0.13519   0.88270   0.91106   0.00000  Uiso   1.00
C15    C     0.15889   0.94781   0.98391   0.00000  Uiso   1.00
C16    C     0.18285   0.84525   0.02583   0.00000  Uiso   1.00
C17    C     0.20205   0.92959   0.09079   0.00000  Uiso   1.00
C18    C     0.13387   0.02621   0.84826   0.00000  Uiso   1.00
C19    C     0.13678   0.98955   0.77614   0.00000  Uiso   1.00
C20    C     0.13491   0.13986   0.72689   0.00000  Uiso   1.00
C21    C     0.10698   0.90167   0.92895   0.00000  Uiso   1.00
C22    C     0.08729   0.76032   0.92465   0.00000  Uiso   1.00
C23    C     0.06279   0.80581   0.94331   0.00000  Uiso   1.00
H24    H     0.12310   0.35527   0.96910   0.00000  Uiso   1.00
H25    H     0.16987   0.35232   0.08810   0.00000  Uiso   1.00
H26    H     0.12380   0.49658   0.83844   0.00000  Uiso   1.00
H27    H     0.07432   0.26739   0.98692   0.00000  Uiso   1.00
H28    H     0.22376   0.26952   0.21024   0.00000  Uiso   1.00
H29    H     0.12662   0.57370   0.68380   0.00000  Uiso   1.00
H30    H     0.02228   0.09042   0.99691   0.00000  Uiso   1.00
H31    H     0.13878   0.74225   0.89380   0.00000  Uiso   1.00
H32    H     0.18642   0.70566   0.00867   0.00000  Uiso   1.00
H33    H     0.14035   0.84993   0.75901   0.00000  Uiso   1.00
H34    H     0.09087   0.62074   0.90749   0.00000  Uiso   1.00
H35    H     0.23720   0.74467   0.14577   0.00000  Uiso   1.00
H36    H     0.14005   0.04885   0.61933   0.00000  Uiso   1.00
H37    H     0.03572   0.56557   0.93244   0.00000  Uiso   1.00
O38    O     0.26154   0.99411   0.25491   0.00000  Uiso   1.00
O39    O     0.13408   0.39318   0.56425   0.00000  Uiso   1.00
O40    O     0.99720   0.75912   0.97504   0.00000  Uiso   1.00
N41    N     0.22039   0.15101   0.17931   0.00000  Uiso   1.00
N42    N     0.12956   0.43540   0.68713   0.00000  Uiso   1.00
N43    N     0.03202   0.98358   0.97984   0.00000  Uiso   1.00
N44    N     0.22761   0.86859   0.14462   0.00000  Uiso   1.00
N45    N     0.13679   0.15298   0.65244   0.00000  Uiso   1.00
N46    N     0.03924   0.70117   0.94515   0.00000  Uiso   1.00
C47    C     0.62669   0.71482   0.95186   0.00000  Uiso   1.00
C48    C     0.65428   0.62820   0.00607   0.00000  Uiso   1.00
C49    C     0.67345   0.71270   0.07097   0.00000  Uiso   1.00
C50    C     0.69743   0.61031   0.11298   0.00000  Uiso   1.00
C51    C     0.73957   0.50329   0.20051   0.00000  Uiso   1.00
C52    C     0.62925   0.70659   0.87043   0.00000  Uiso   1.00
C53    C     0.62738   0.85700   0.82128   0.00000  Uiso   1.00
C54    C     0.63029   0.82058   0.74910   0.00000  Uiso   1.00
C55    C     0.63355   0.83524   0.62601   0.00000  Uiso   1.00
C56    C     0.60237   0.58207   0.95111   0.00000  Uiso   1.00
C57    C     0.57789   0.62778   0.96978   0.00000  Uiso   1.00
C58    C     0.55816   0.48652   0.96551   0.00000  Uiso   1.00
C59    C     0.51969   0.30785   0.96770   0.00000  Uiso   1.00
C60    C     0.63519   0.38270   0.91106   0.00000  Uiso   1.00
C61    C     0.65889   0.44781   0.98391   0.00000  Uiso   1.00
C62    C     0.68285   0.34525   0.02583   0.00000  Uiso   1.00
C63    C     0.70205   0.42959   0.09079   0.00000  Uiso   1.00
C64    C     0.63387   0.52621   0.84826   0.00000  Uiso   1.00
C65    C     0.63678   0.48955   0.77614   0.00000  Uiso   1.00
C66    C     0.63491   0.63986   0.72689   0.00000  Uiso   1.00
C67    C     0.60698   0.40167   0.92895   0.00000  Uiso   1.00
C68    C     0.58729   0.26032   0.92465   0.00000  Uiso   1.00
C69    C     0.56279   0.30581   0.94331   0.00000  Uiso   1.00
H70    H     0.62310   0.85527   0.96910   0.00000  Uiso   1.00
H71    H     0.66987   0.85232   0.08810   0.00000  Uiso   1.00
H72    H     0.62380   0.99658   0.83844   0.00000  Uiso   1.00
H73    H     0.57432   0.76739   0.98692   0.00000  Uiso   1.00
H74    H     0.72376   0.76952   0.21024   0.00000  Uiso   1.00
H75    H     0.62662   0.07370   0.68380   0.00000  Uiso   1.00
H76    H     0.52228   0.59042   0.99691   0.00000  Uiso   1.00
H77    H     0.63878   0.24225   0.89380   0.00000  Uiso   1.00
H78    H     0.68642   0.20566   0.00867   0.00000  Uiso   1.00
H79    H     0.64035   0.34993   0.75901   0.00000  Uiso   1.00
H80    H     0.59087   0.12074   0.90749   0.00000  Uiso   1.00
H81    H     0.73720   0.24467   0.14577   0.00000  Uiso   1.00
H82    H     0.64005   0.54885   0.61933   0.00000  Uiso   1.00
H83    H     0.53572   0.06557   0.93244   0.00000  Uiso   1.00
O84    O     0.76154   0.49411   0.25491   0.00000  Uiso   1.00
O85    O     0.63408   0.89318   0.56425   0.00000  Uiso   1.00
O86    O     0.49720   0.25912   0.97504   0.00000  Uiso   1.00
N87    N     0.72039   0.65101   0.17931   0.00000  Uiso   1.00
N88    N     0.62956   0.93540   0.68713   0.00000  Uiso   1.00
N89    N     0.53202   0.48358   0.97984   0.00000  Uiso   1.00
N90    N     0.72761   0.36859   0.14462   0.00000  Uiso   1.00
N91    N     0.63679   0.65298   0.65244   0.00000  Uiso   1.00
N92    N     0.53924   0.20117   0.94515   0.00000  Uiso   1.00
C93    C     0.87331   0.21482   0.54814   0.00000  Uiso   1.00
C94    C     0.84572   0.12820   0.49393   0.00000  Uiso   1.00
C95    C     0.82655   0.21270   0.42903   0.00000  Uiso   1.00
C96    C     0.80257   0.11031   0.38702   0.00000  Uiso   1.00
C97    C     0.76043   0.00329   0.29949   0.00000  Uiso   1.00
C98    C     0.87075   0.20659   0.62957   0.00000  Uiso   1.00
C99    C     0.87262   0.35700   0.67872   0.00000  Uiso   1.00
C100   C     0.86971   0.32058   0.75090   0.00000  Uiso   1.00
C101   C     0.86645   0.33524   0.87399   0.00000  Uiso   1.00
C102   C     0.89763   0.08207   0.54889   0.00000  Uiso   1.00
C103   C     0.92211   0.12778   0.53022   0.00000  Uiso   1.00
C104   C     0.94184   0.98652   0.53449   0.00000  Uiso   1.00
C105   C     0.98031   0.80785   0.53230   0.00000  Uiso   1.00
C106   C     0.86481   0.88270   0.58894   0.00000  Uiso   1.00
C107   C     0.84111   0.94781   0.51609   0.00000  Uiso   1.00
C108   C     0.81715   0.84525   0.47417   0.00000  Uiso   1.00
C109   C     0.79795   0.92959   0.40921   0.00000  Uiso   1.00
C110   C     0.86613   0.02621   0.65174   0.00000  Uiso   1.00
C111   C     0.86322   0.98955   0.72386   0.00000  Uiso   1.00
C112   C     0.86509   0.13986   0.77311   0.00000  Uiso   1.00
C113   C     0.89302   0.90167   0.57105   0.00000  Uiso   1.00
C114   C     0.91271   0.76032   0.57535   0.00000  Uiso   1.00
C115   C     0.93721   0.80581   0.55669   0.00000  Uiso   1.00
H116   H     0.87690   0.35527   0.53090   0.00000  Uiso   1.00
H117   H     0.83013   0.35232   0.41190   0.00000  Uiso   1.00
H118   H     0.87620   0.49658   0.66156   0.00000  Uiso   1.00
H119   H     0.92568   0.26739   0.51308   0.00000  Uiso   1.00
H120   H     0.77624   0.26952   0.28976   0.00000  Uiso   1.00
H121   H     0.87338   0.57370   0.81620   0.00000  Uiso   1.00
H122   H     0.97772   0.09042   0.50309   0.00000  Uiso   1.00
H123   H     0.86122   0.74225   0.60620   0.00000  Uiso   1.00
H124   H     0.81358   0.70566   0.49133   0.00000  Uiso   1.00
H125   H     0.85965   0.84993   0.74099   0.00000  Uiso   1.00
H126   H     0.90913   0.62074   0.59251   0.00000  Uiso   1.00
H127   H     0.76280   0.74467   0.35423   0.00000  Uiso   1.00
H128   H     0.85995   0.04885   0.88067   0.00000  Uiso   1.00
H129   H     0.96428   0.56557   0.56756   0.00000  Uiso   1.00
O130   O     0.73846   0.99411   0.24509   0.00000  Uiso   1.00
O131   O     0.86592   0.39318   0.93575   0.00000  Uiso   1.00
O132   O     0.00280   0.75912   0.52496   0.00000  Uiso   1.00
N133   N     0.77961   0.15101   0.32069   0.00000  Uiso   1.00
N134   N     0.87044   0.43540   0.81287   0.00000  Uiso   1.00
N135   N     0.96798   0.98358   0.52016   0.00000  Uiso   1.00
N136   N     0.77239   0.86859   0.35538   0.00000  Uiso   1.00
N137   N     0.86321   0.15298   0.84756   0.00000  Uiso   1.00
N138   N     0.96076   0.70117   0.55485   0.00000  Uiso   1.00
C139   C     0.37331   0.71482   0.54814   0.00000  Uiso   1.00
C140   C     0.34572   0.62820   0.49393   0.00000  Uiso   1.00
C141   C     0.32655   0.71270   0.42903   0.00000  Uiso   1.00
C142   C     0.30257   0.61031   0.38702   0.00000  Uiso   1.00
C143   C     0.26043   0.50329   0.29949   0.00000  Uiso   1.00
C144   C     0.37075   0.70659   0.62957   0.00000  Uiso   1.00
C145   C     0.37262   0.85700   0.67872   0.00000  Uiso   1.00
C146   C     0.36971   0.82058   0.75090   0.00000  Uiso   1.00
C147   C     0.36645   0.83524   0.87399   0.00000  Uiso   1.00
C148   C     0.39763   0.58207   0.54889   0.00000  Uiso   1.00
C149   C     0.42211   0.62778   0.53022   0.00000  Uiso   1.00
C150   C     0.44184   0.48652   0.53449   0.00000  Uiso   1.00
C151   C     0.48031   0.30785   0.53230   0.00000  Uiso   1.00
C152   C     0.36481   0.38270   0.58894   0.00000  Uiso   1.00
C153   C     0.34111   0.44781   0.51609   0.00000  Uiso   1.00
C154   C     0.31715   0.34525   0.47417   0.00000  Uiso   1.00
C155   C     0.29795   0.42959   0.40921   0.00000  Uiso   1.00
C156   C     0.36613   0.52621   0.65174   0.00000  Uiso   1.00
C157   C     0.36322   0.48955   0.72386   0.00000  Uiso   1.00
C158   C     0.36509   0.63986   0.77311   0.00000  Uiso   1.00
C159   C     0.39302   0.40167   0.57105   0.00000  Uiso   1.00
C160   C     0.41271   0.26032   0.57535   0.00000  Uiso   1.00
C161   C     0.43721   0.30581   0.55669   0.00000  Uiso   1.00
H162   H     0.37690   0.85527   0.53090   0.00000  Uiso   1.00
H163   H     0.33013   0.85232   0.41190   0.00000  Uiso   1.00
H164   H     0.37620   0.99658   0.66156   0.00000  Uiso   1.00
H165   H     0.42568   0.76739   0.51308   0.00000  Uiso   1.00
H166   H     0.27624   0.76952   0.28976   0.00000  Uiso   1.00
H167   H     0.37338   0.07370   0.81620   0.00000  Uiso   1.00
H168   H     0.47772   0.59042   0.50309   0.00000  Uiso   1.00
H169   H     0.36122   0.24225   0.60620   0.00000  Uiso   1.00
H170   H     0.31358   0.20566   0.49133   0.00000  Uiso   1.00
H171   H     0.35965   0.34993   0.74099   0.00000  Uiso   1.00
H172   H     0.40913   0.12074   0.59251   0.00000  Uiso   1.00
H173   H     0.26280   0.24467   0.35423   0.00000  Uiso   1.00
H174   H     0.35995   0.54885   0.88067   0.00000  Uiso   1.00
H175   H     0.46428   0.06557   0.56756   0.00000  Uiso   1.00
O176   O     0.23846   0.49411   0.24509   0.00000  Uiso   1.00
O177   O     0.36592   0.89318   0.93575   0.00000  Uiso   1.00
O178   O     0.50280   0.25912   0.52496   0.00000  Uiso   1.00
N179   N     0.27961   0.65101   0.32069   0.00000  Uiso   1.00
N180   N     0.37044   0.93540   0.81287   0.00000  Uiso   1.00
N181   N     0.46798   0.48358   0.52016   0.00000  Uiso   1.00
N182   N     0.27239   0.36859   0.35538   0.00000  Uiso   1.00
N183   N     0.36321   0.65298   0.84756   0.00000  Uiso   1.00
N184   N     0.46076   0.20117   0.55485   0.00000  Uiso   1.00
C185   C     0.87331   0.78518   0.04814   0.00000  Uiso   1.00
C186   C     0.84572   0.87180   0.99393   0.00000  Uiso   1.00
C187   C     0.82655   0.78730   0.92903   0.00000  Uiso   1.00
C188   C     0.80257   0.88969   0.88702   0.00000  Uiso   1.00
C189   C     0.76043   0.99671   0.79949   0.00000  Uiso   1.00
C190   C     0.87075   0.79341   0.12957   0.00000  Uiso   1.00
C191   C     0.87262   0.64300   0.17872   0.00000  Uiso   1.00
C192   C     0.86971   0.67942   0.25090   0.00000  Uiso   1.00
C193   C     0.86645   0.66476   0.37399   0.00000  Uiso   1.00
C194   C     0.89763   0.91793   0.04889   0.00000  Uiso   1.00
C195   C     0.92211   0.87222   0.03022   0.00000  Uiso   1.00
C196   C     0.94184   0.01348   0.03449   0.00000  Uiso   1.00
C197   C     0.98031   0.19215   0.03230   0.00000  Uiso   1.00
C198   C     0.86481   0.11730   0.08894   0.00000  Uiso   1.00
C199   C     0.84111   0.05219   0.01609   0.00000  Uiso   1.00
C200   C     0.81715   0.15475   0.97417   0.00000  Uiso   1.00
C201   C     0.79795   0.07041   0.90921   0.00000  Uiso   1.00
C202   C     0.86613   0.97379   0.15174   0.00000  Uiso   1.00
C203   C     0.86322   0.01045   0.22386   0.00000  Uiso   1.00
C204   C     0.86509   0.86014   0.27311   0.00000  Uiso   1.00
C205   C     0.89302   0.09833   0.07105   0.00000  Uiso   1.00
C206   C     0.91271   0.23968   0.07535   0.00000  Uiso   1.00
C207   C     0.93721   0.19419   0.05669   0.00000  Uiso   1.00
H208   H     0.87690   0.64473   0.03090   0.00000  Uiso   1.00
H209   H     0.83013   0.64768   0.91190   0.00000  Uiso   1.00
H210   H     0.87620   0.50342   0.16156   0.00000  Uiso   1.00
H211   H     0.92568   0.73261   0.01308   0.00000  Uiso   1.00
H212   H     0.77624   0.73048   0.78976   0.00000  Uiso   1.00
H213   H     0.87338   0.42630   0.31620   0.00000  Uiso   1.00
H214   H     0.97772   0.90958   0.00309   0.00000  Uiso   1.00
H215   H     0.86122   0.25775   0.10620   0.00000  Uiso   1.00
H216   H     0.81358   0.29434   0.99133   0.00000  Uiso   1.00
H217   H     0.85965   0.15007   0.24099   0.00000  Uiso   1.00
H218   H     0.90913   0.37926   0.09251   0.00000  Uiso   1.00
H219   H     0.76280   0.25533   0.85423   0.00000  Uiso   1.00
H220   H     0.85995   0.95115   0.38067   0.00000  Uiso   1.00
H221   H     0.96428   0.43443   0.06756   0.00000  Uiso   1.00
O222   O     0.73846   0.00589   0.74509   0.00000  Uiso   1.00
O223   O     0.86592   0.60682   0.43575   0.00000  Uiso   1.00
O224   O     0.00280   0.24088   0.02496   0.00000  Uiso   1.00
N225   N     0.77961   0.84899   0.82069   0.00000  Uiso   1.00
N226   N     0.87044   0.56460   0.31287   0.00000  Uiso   1.00
N227   N     0.96798   0.01642   0.02016   0.00000  Uiso   1.00
N228   N     0.77239   0.13141   0.85538   0.00000  Uiso   1.00
N229   N     0.86321   0.84702   0.34756   0.00000  Uiso   1.00
N230   N     0.96076   0.29883   0.05485   0.00000  Uiso   1.00
C231   C     0.37331   0.28518   0.04814   0.00000  Uiso   1.00
C232   C     0.34572   0.37180   0.99393   0.00000  Uiso   1.00
C233   C     0.32655   0.28730   0.92903   0.00000  Uiso   1.00
C234   C     0.30257   0.38969   0.88702   0.00000  Uiso   1.00
C235   C     0.26043   0.49671   0.79949   0.00000  Uiso   1.00
C236   C     0.37075   0.29341   0.12957   0.00000  Uiso   1.00
C237   C     0.37262   0.14300   0.17872   0.00000  Uiso   1.00
C238   C     0.36971   0.17942   0.25090   0.00000  Uiso   1.00
C239   C     0.36645   0.16476   0.37399   0.00000  Uiso   1.00
C240   C     0.39763   0.41793   0.04889   0.00000  Uiso   1.00
C241   C     0.42211   0.37222   0.03022   0.00000  Uiso   1.00
C242   C     0.44184   0.51348   0.03449   0.00000  Uiso   1.00
C243   C     0.48031   0.69215   0.03230   0.00000  Uiso   1.00
C244   C     0.36481   0.61730   0.08894   0.00000  Uiso   1.00
C245   C     0.34111   0.55219   0.01609   0.00000  Uiso   1.00
C246   C     0.31715   0.65475   0.97417   0.00000  Uiso   1.00
C247   C     0.29795   0.57041   0.90921   0.00000  Uiso   1.00
C248   C     0.36613   0.47379   0.15174   0.00000  Uiso   1.00
C249   C     0.36322   0.51045   0.22386   0.00000  Uiso   1.00
C250   C     0.36509   0.36014   0.27311   0.00000  Uiso   1.00
C251   C     0.39302   0.59833   0.07105   0.00000  Uiso   1.00
C252   C     0.41271   0.73968   0.07535   0.00000  Uiso   1.00
C253   C     0.43721   0.69419   0.05669   0.00000  Uiso   1.00
H254   H     0.37690   0.14473   0.03090   0.00000  Uiso   1.00
H255   H     0.33013   0.14768   0.91190   0.00000  Uiso   1.00
H256   H     0.37620   0.00342   0.16156   0.00000  Uiso   1.00
H257   H     0.42568   0.23261   0.01308   0.00000  Uiso   1.00
H258   H     0.27624   0.23048   0.78976   0.00000  Uiso   1.00
H259   H     0.37338   0.92630   0.31620   0.00000  Uiso   1.00
H260   H     0.47772   0.40958   0.00309   0.00000  Uiso   1.00
H261   H     0.36122   0.75775   0.10620   0.00000  Uiso   1.00
H262   H     0.31358   0.79434   0.99133   0.00000  Uiso   1.00
H263   H     0.35965   0.65007   0.24099   0.00000  Uiso   1.00
H264   H     0.40913   0.87926   0.09251   0.00000  Uiso   1.00
H265   H     0.26280   0.75533   0.85423   0.00000  Uiso   1.00
H266   H     0.35995   0.45115   0.38067   0.00000  Uiso   1.00
H267   H     0.46428   0.93443   0.06756   0.00000  Uiso   1.00
O268   O     0.23846   0.50589   0.74509   0.00000  Uiso   1.00
O269   O     0.36592   0.10682   0.43575   0.00000  Uiso   1.00
O270   O     0.50280   0.74088   0.02496   0.00000  Uiso   1.00
N271   N     0.27961   0.34899   0.82069   0.00000  Uiso   1.00
N272   N     0.37044   0.06460   0.31287   0.00000  Uiso   1.00
N273   N     0.46798   0.51642   0.02016   0.00000  Uiso   1.00
N274   N     0.27239   0.63141   0.85538   0.00000  Uiso   1.00
N275   N     0.36321   0.34702   0.34756   0.00000  Uiso   1.00
N276   N     0.46076   0.79883   0.05485   0.00000  Uiso   1.00
C277   C     0.12669   0.78518   0.45186   0.00000  Uiso   1.00
C278   C     0.15428   0.87180   0.50607   0.00000  Uiso   1.00
C279   C     0.17345   0.78730   0.57097   0.00000  Uiso   1.00
C280   C     0.19743   0.88969   0.61298   0.00000  Uiso   1.00
C281   C     0.23957   0.99671   0.70051   0.00000  Uiso   1.00
C282   C     0.12925   0.79341   0.37043   0.00000  Uiso   1.00
C283   C     0.12738   0.64300   0.32128   0.00000  Uiso   1.00
C284   C     0.13029   0.67942   0.24910   0.00000  Uiso   1.00
C285   C     0.13355   0.66476   0.12601   0.00000  Uiso   1.00
C286   C     0.10237   0.91793   0.45111   0.00000  Uiso   1.00
C287   C     0.07789   0.87222   0.46978   0.00000  Uiso   1.00
C288   C     0.05816   0.01348   0.46551   0.00000  Uiso   1.00
C289   C     0.01969   0.19215   0.46770   0.00000  Uiso   1.00
C290   C     0.13519   0.11730   0.41106   0.00000  Uiso   1.00
C291   C     0.15889   0.05219   0.48391   0.00000  Uiso   1.00
C292   C     0.18285   0.15475   0.52583   0.00000  Uiso   1.00
C293   C     0.20205   0.07041   0.59079   0.00000  Uiso   1.00
C294   C     0.13387   0.97379   0.34826   0.00000  Uiso   1.00
C295   C     0.13678   0.01045   0.27614   0.00000  Uiso   1.00
C296   C     0.13491   0.86014   0.22689   0.00000  Uiso   1.00
C297   C     0.10698   0.09833   0.42895   0.00000  Uiso   1.00
C298   C     0.08729   0.23968   0.42465   0.00000  Uiso   1.00
C299   C     0.06279   0.19419   0.44331   0.00000  Uiso   1.00
H300   H     0.12310   0.64473   0.46910   0.00000  Uiso   1.00
H301   H     0.16987   0.64768   0.58810   0.00000  Uiso   1.00
H302   H     0.12380   0.50342   0.33844   0.00000  Uiso   1.00
H303   H     0.07432   0.73261   0.48692   0.00000  Uiso   1.00
H304   H     0.22376   0.73048   0.71024   0.00000  Uiso   1.00
H305   H     0.12662   0.42630   0.18380   0.00000  Uiso   1.00
H306   H     0.02228   0.90958   0.49691   0.00000  Uiso   1.00
H307   H     0.13878   0.25775   0.39380   0.00000  Uiso   1.00
H308   H     0.18642   0.29434   0.50867   0.00000  Uiso   1.00
H309   H     0.14035   0.15007   0.25901   0.00000  Uiso   1.00
H310   H     0.09087   0.37926   0.40749   0.00000  Uiso   1.00
H311   H     0.23720   0.25533   0.64577   0.00000  Uiso   1.00
H312   H     0.14005   0.95115   0.11933   0.00000  Uiso   1.00
H313   H     0.03572   0.43443   0.43244   0.00000  Uiso   1.00
O314   O     0.26154   0.00589   0.75491   0.00000  Uiso   1.00
O315   O     0.13408   0.60682   0.06425   0.00000  Uiso   1.00
O316   O     0.99720   0.24088   0.47504   0.00000  Uiso   1.00
N317   N     0.22039   0.84899   0.67931   0.00000  Uiso   1.00
N318   N     0.12956   0.56460   0.18713   0.00000  Uiso   1.00
N319   N     0.03202   0.01642   0.47984   0.00000  Uiso   1.00
N320   N     0.22761   0.13141   0.64462   0.00000  Uiso   1.00
N321   N     0.13679   0.84702   0.15244   0.00000  Uiso   1.00
N322   N     0.03924   0.29883   0.44515   0.00000  Uiso   1.00
C323   C     0.62669   0.28518   0.45186   0.00000  Uiso   1.00
C324   C     0.65428   0.37180   0.50607   0.00000  Uiso   1.00
C325   C     0.67345   0.28730   0.57097   0.00000  Uiso   1.00
C326   C     0.69743   0.38969   0.61298   0.00000  Uiso   1.00
C327   C     0.73957   0.49671   0.70051   0.00000  Uiso   1.00
C328   C     0.62925   0.29341   0.37043   0.00000  Uiso   1.00
C329   C     0.62738   0.14300   0.32128   0.00000  Uiso   1.00
C330   C     0.63029   0.17942   0.24910   0.00000  Uiso   1.00
C331   C     0.63355   0.16476   0.12601   0.00000  Uiso   1.00
C332   C     0.60237   0.41793   0.45111   0.00000  Uiso   1.00
C333   C     0.57789   0.37222   0.46978   0.00000  Uiso   1.00
C334   C     0.55816   0.51348   0.46551   0.00000  Uiso   1.00
C335   C     0.51969   0.69215   0.46770   0.00000  Uiso   1.00
C336   C     0.63519   0.61730   0.41106   0.00000  Uiso   1.00
C337   C     0.65889   0.55219   0.48391   0.00000  Uiso   1.00
C338   C     0.68285   0.65475   0.52583   0.00000  Uiso   1.00
C339   C     0.70205   0.57041   0.59079   0.00000  Uiso   1.00
C340   C     0.63387   0.47379   0.34826   0.00000  Uiso   1.00
C341   C     0.63678   0.51045   0.27614   0.00000  Uiso   1.00
C342   C     0.63491   0.36014   0.22689   0.00000  Uiso   1.00
C343   C     0.60698   0.59833   0.42895   0.00000  Uiso   1.00
C344   C     0.58729   0.73968   0.42465   0.00000  Uiso   1.00
C345   C     0.56279   0.69419   0.44331   0.00000  Uiso   1.00
H346   H     0.62310   0.14473   0.46910   0.00000  Uiso   1.00
H347   H     0.66987   0.14768   0.58810   0.00000  Uiso   1.00
H348   H     0.62380   0.00342   0.33844   0.00000  Uiso   1.00
H349   H     0.57432   0.23261   0.48692   0.00000  Uiso   1.00
H350   H     0.72376   0.23048   0.71024   0.00000  Uiso   1.00
H351   H     0.62662   0.92630   0.18380   0.00000  Uiso   1.00
H352   H     0.52228   0.40958   0.49691   0.00000  Uiso   1.00
H353   H     0.63878   0.75775   0.39380   0.00000  Uiso   1.00
H354   H     0.68642   0.79434   0.50867   0.00000  Uiso   1.00
H355   H     0.64035   0.65007   0.25901   0.00000  Uiso   1.00
H356   H     0.59087   0.87926   0.40749   0.00000  Uiso   1.00
H357   H     0.73720   0.75533   0.64577   0.00000  Uiso   1.00
H358   H     0.64005   0.45115   0.11933   0.00000  Uiso   1.00
H359   H     0.53572   0.93443   0.43244   0.00000  Uiso   1.00
O360   O     0.76154   0.50589   0.75491   0.00000  Uiso   1.00
O361   O     0.63408   0.10682   0.06425   0.00000  Uiso   1.00
O362   O     0.49720   0.74088   0.47504   0.00000  Uiso   1.00
N363   N     0.72039   0.34899   0.67931   0.00000  Uiso   1.00
N364   N     0.62956   0.06460   0.18713   0.00000  Uiso   1.00
N365   N     0.53202   0.51642   0.47984   0.00000  Uiso   1.00
N366   N     0.72761   0.63141   0.64462   0.00000  Uiso   1.00
N367   N     0.63679   0.34702   0.15244   0.00000  Uiso   1.00
N368   N     0.53924   0.79883   0.44515   0.00000  Uiso   1.00
