data_job_01778
_audit_creation_date              2018-12-19
_audit_creation_method            'Materials Studio'
_symmetry_space_group_name_H-M    'P1'
_symmetry_Int_Tables_number       1
_symmetry_cell_setting            triclinic
loop_
_symmetry_equiv_pos_as_xyz
  x,y,z
_cell_length_a                    21.7871
_cell_length_b                    8.6780
_cell_length_c                    12.8513
_cell_angle_alpha                 90.0000
_cell_angle_beta                  90.0000
_cell_angle_gamma                 90.0000
loop_
_atom_site_label
_atom_site_type_symbol
_atom_site_fract_x
_atom_site_fract_y
_atom_site_fract_z
_atom_site_U_iso_or_equiv
_atom_site_adp_type
_atom_site_occupancy
C1     C     0.18018   0.57172   0.65653   0.00000  Uiso   1.00
C2     C     0.14647   0.54395   0.55425   0.00000  Uiso   1.00
C3     C     0.15181   0.41383   0.49213   0.00000  Uiso   1.00
C4     C     0.11712   0.41048   0.40154   0.00000  Uiso   1.00
C5     C     0.07067   0.34877   0.24686   0.00000  Uiso   1.00
C6     C     0.21473   0.72325   0.64307   0.00000  Uiso   1.00
C7     C     0.27746   0.74387   0.65565   0.00000  Uiso   1.00
C8     C     0.30023   0.89146   0.63983   0.00000  Uiso   1.00
C9     C     0.35974   0.10813   0.62313   0.00000  Uiso   1.00
C10    C     0.13063   0.60246   0.73771   0.00000  Uiso   1.00
C11    C     0.12266   0.52156   0.82988   0.00000  Uiso   1.00
C12    C     0.07463   0.56749   0.89377   0.00000  Uiso   1.00
C13    C     0.00357   0.59662   0.02400   0.00000  Uiso   1.00
C14    C     0.10907   0.79716   0.60611   0.00000  Uiso   1.00
C15    C     0.10785   0.66641   0.52686   0.00000  Uiso   1.00
C16    C     0.07314   0.66325   0.43634   0.00000  Uiso   1.00
C17    C     0.07843   0.53315   0.37410   0.00000  Uiso   1.00
C18    C     0.17611   0.84569   0.61568   0.00000  Uiso   1.00
C19    C     0.19879   0.99329   0.59985   0.00000  Uiso   1.00
C20    C     0.26153   0.01413   0.61239   0.00000  Uiso   1.00
C21    C     0.09200   0.72491   0.71032   0.00000  Uiso   1.00
C22    C     0.04398   0.77098   0.77408   0.00000  Uiso   1.00
C23    C     0.03594   0.69016   0.86633   0.00000  Uiso   1.00
H24    H     0.21026   0.47640   0.67786   0.00000  Uiso   1.00
H25    H     0.18171   0.31910   0.51335   0.00000  Uiso   1.00
H26    H     0.30734   0.64909   0.67686   0.00000  Uiso   1.00
H27    H     0.15256   0.42681   0.85105   0.00000  Uiso   1.00
H28    H     0.13305   0.19873   0.31887   0.00000  Uiso   1.00
H29    H     0.39793   0.89455   0.66365   0.00000  Uiso   1.00
H30    H     0.07155   0.42583   0.03099   0.00000  Uiso   1.00
H31    H     0.07900   0.89250   0.58478   0.00000  Uiso   1.00
H32    H     0.04325   0.75803   0.41516   0.00000  Uiso   1.00
H33    H     0.16888   0.08802   0.57866   0.00000  Uiso   1.00
H34    H     0.01410   0.86574   0.75286   0.00000  Uiso   1.00
H35    H     0.02067   0.55499   0.23917   0.00000  Uiso   1.00
H36    H     0.28556   0.25081   0.58396   0.00000  Uiso   1.00
H37    H     0.95917   0.78209   0.95129   0.00000  Uiso   1.00
O38    O     0.05572   0.28092   0.16910   0.00000  Uiso   1.00
O39    O     0.40324   0.19380   0.62147   0.00000  Uiso   1.00
O40    O     0.97504   0.57885   0.10340   0.00000  Uiso   1.00
N41    N     0.11150   0.30102   0.32340   0.00000  Uiso   1.00
N42    N     0.35915   0.95156   0.64574   0.00000  Uiso   1.00
N43    N     0.05402   0.51337   0.98918   0.00000  Uiso   1.00
N44    N     0.05103   0.49271   0.28052   0.00000  Uiso   1.00
N45    N     0.29868   0.14326   0.60285   0.00000  Uiso   1.00
N46    N     0.99355   0.70507   0.94630   0.00000  Uiso   1.00
C47    C     0.31982   0.42828   0.15653   0.00000  Uiso   1.00
C48    C     0.35353   0.45605   0.05425   0.00000  Uiso   1.00
C49    C     0.34819   0.58617   0.99213   0.00000  Uiso   1.00
C50    C     0.38288   0.58952   0.90154   0.00000  Uiso   1.00
C51    C     0.42933   0.65123   0.74686   0.00000  Uiso   1.00
C52    C     0.28527   0.27675   0.14307   0.00000  Uiso   1.00
C53    C     0.22254   0.25613   0.15565   0.00000  Uiso   1.00
C54    C     0.19977   0.10854   0.13983   0.00000  Uiso   1.00
C55    C     0.14026   0.89187   0.12313   0.00000  Uiso   1.00
C56    C     0.36937   0.39754   0.23771   0.00000  Uiso   1.00
C57    C     0.37734   0.47844   0.32988   0.00000  Uiso   1.00
C58    C     0.42537   0.43251   0.39377   0.00000  Uiso   1.00
C59    C     0.49643   0.40338   0.52400   0.00000  Uiso   1.00
C60    C     0.39093   0.20284   0.10611   0.00000  Uiso   1.00
C61    C     0.39215   0.33359   0.02686   0.00000  Uiso   1.00
C62    C     0.42686   0.33675   0.93634   0.00000  Uiso   1.00
C63    C     0.42157   0.46685   0.87410   0.00000  Uiso   1.00
C64    C     0.32389   0.15431   0.11568   0.00000  Uiso   1.00
C65    C     0.30121   0.00671   0.09985   0.00000  Uiso   1.00
C66    C     0.23847   0.98587   0.11239   0.00000  Uiso   1.00
C67    C     0.40800   0.27509   0.21032   0.00000  Uiso   1.00
C68    C     0.45602   0.22902   0.27408   0.00000  Uiso   1.00
C69    C     0.46406   0.30984   0.36633   0.00000  Uiso   1.00
H70    H     0.28974   0.52360   0.17786   0.00000  Uiso   1.00
H71    H     0.31829   0.68090   0.01335   0.00000  Uiso   1.00
H72    H     0.19266   0.35091   0.17686   0.00000  Uiso   1.00
H73    H     0.34744   0.57319   0.35105   0.00000  Uiso   1.00
H74    H     0.36695   0.80127   0.81887   0.00000  Uiso   1.00
H75    H     0.10207   0.10545   0.16365   0.00000  Uiso   1.00
H76    H     0.42845   0.57417   0.53099   0.00000  Uiso   1.00
H77    H     0.42100   0.10750   0.08478   0.00000  Uiso   1.00
H78    H     0.45675   0.24197   0.91516   0.00000  Uiso   1.00
H79    H     0.33112   0.91198   0.07866   0.00000  Uiso   1.00
H80    H     0.48590   0.13426   0.25286   0.00000  Uiso   1.00
H81    H     0.47933   0.44501   0.73917   0.00000  Uiso   1.00
H82    H     0.21444   0.74919   0.08396   0.00000  Uiso   1.00
H83    H     0.54083   0.21791   0.45129   0.00000  Uiso   1.00
O84    O     0.44428   0.71908   0.66910   0.00000  Uiso   1.00
O85    O     0.09676   0.80620   0.12147   0.00000  Uiso   1.00
O86    O     0.52496   0.42115   0.60340   0.00000  Uiso   1.00
N87    N     0.38850   0.69898   0.82340   0.00000  Uiso   1.00
N88    N     0.14085   0.04844   0.14574   0.00000  Uiso   1.00
N89    N     0.44598   0.48663   0.48918   0.00000  Uiso   1.00
N90    N     0.44897   0.50729   0.78052   0.00000  Uiso   1.00
N91    N     0.20132   0.85674   0.10285   0.00000  Uiso   1.00
N92    N     0.50645   0.29493   0.44630   0.00000  Uiso   1.00
C93    C     0.81982   0.07172   0.84347   0.00000  Uiso   1.00
C94    C     0.85353   0.04395   0.94575   0.00000  Uiso   1.00
C95    C     0.84819   0.91383   0.00787   0.00000  Uiso   1.00
C96    C     0.88288   0.91048   0.09846   0.00000  Uiso   1.00
C97    C     0.92933   0.84877   0.25314   0.00000  Uiso   1.00
C98    C     0.78527   0.22325   0.85693   0.00000  Uiso   1.00
C99    C     0.72254   0.24387   0.84435   0.00000  Uiso   1.00
C100   C     0.69977   0.39146   0.86017   0.00000  Uiso   1.00
C101   C     0.64026   0.60813   0.87687   0.00000  Uiso   1.00
C102   C     0.86937   0.10246   0.76229   0.00000  Uiso   1.00
C103   C     0.87734   0.02156   0.67012   0.00000  Uiso   1.00
C104   C     0.92537   0.06749   0.60623   0.00000  Uiso   1.00
C105   C     0.99643   0.09662   0.47600   0.00000  Uiso   1.00
C106   C     0.89093   0.29716   0.89389   0.00000  Uiso   1.00
C107   C     0.89215   0.16641   0.97314   0.00000  Uiso   1.00
C108   C     0.92686   0.16325   0.06366   0.00000  Uiso   1.00
C109   C     0.92157   0.03315   0.12590   0.00000  Uiso   1.00
C110   C     0.82389   0.34569   0.88432   0.00000  Uiso   1.00
C111   C     0.80121   0.49329   0.90015   0.00000  Uiso   1.00
C112   C     0.73847   0.51413   0.88761   0.00000  Uiso   1.00
C113   C     0.90800   0.22491   0.78968   0.00000  Uiso   1.00
C114   C     0.95602   0.27098   0.72592   0.00000  Uiso   1.00
C115   C     0.96406   0.19016   0.63367   0.00000  Uiso   1.00
H116   H     0.78974   0.97640   0.82214   0.00000  Uiso   1.00
H117   H     0.81829   0.81910   0.98665   0.00000  Uiso   1.00
H118   H     0.69266   0.14909   0.82314   0.00000  Uiso   1.00
H119   H     0.84744   0.92681   0.64895   0.00000  Uiso   1.00
H120   H     0.86695   0.69873   0.18113   0.00000  Uiso   1.00
H121   H     0.60207   0.39455   0.83635   0.00000  Uiso   1.00
H122   H     0.92845   0.92583   0.46901   0.00000  Uiso   1.00
H123   H     0.92100   0.39250   0.91522   0.00000  Uiso   1.00
H124   H     0.95675   0.25803   0.08484   0.00000  Uiso   1.00
H125   H     0.83112   0.58802   0.92134   0.00000  Uiso   1.00
H126   H     0.98590   0.36574   0.74714   0.00000  Uiso   1.00
H127   H     0.97933   0.05499   0.26083   0.00000  Uiso   1.00
H128   H     0.71444   0.75081   0.91604   0.00000  Uiso   1.00
H129   H     0.04083   0.28209   0.54871   0.00000  Uiso   1.00
O130   O     0.94428   0.78092   0.33090   0.00000  Uiso   1.00
O131   O     0.59676   0.69380   0.87853   0.00000  Uiso   1.00
O132   O     0.02496   0.07885   0.39660   0.00000  Uiso   1.00
N133   N     0.88850   0.80102   0.17660   0.00000  Uiso   1.00
N134   N     0.64085   0.45156   0.85426   0.00000  Uiso   1.00
N135   N     0.94598   0.01337   0.51082   0.00000  Uiso   1.00
N136   N     0.94897   0.99271   0.21948   0.00000  Uiso   1.00
N137   N     0.70132   0.64326   0.89715   0.00000  Uiso   1.00
N138   N     0.00645   0.20507   0.55370   0.00000  Uiso   1.00
C139   C     0.68018   0.92828   0.34347   0.00000  Uiso   1.00
C140   C     0.64647   0.95605   0.44575   0.00000  Uiso   1.00
C141   C     0.65181   0.08617   0.50787   0.00000  Uiso   1.00
C142   C     0.61712   0.08952   0.59846   0.00000  Uiso   1.00
C143   C     0.57067   0.15123   0.75314   0.00000  Uiso   1.00
C144   C     0.71473   0.77675   0.35693   0.00000  Uiso   1.00
C145   C     0.77746   0.75613   0.34435   0.00000  Uiso   1.00
C146   C     0.80023   0.60854   0.36017   0.00000  Uiso   1.00
C147   C     0.85974   0.39187   0.37687   0.00000  Uiso   1.00
C148   C     0.63063   0.89754   0.26229   0.00000  Uiso   1.00
C149   C     0.62266   0.97844   0.17012   0.00000  Uiso   1.00
C150   C     0.57463   0.93251   0.10623   0.00000  Uiso   1.00
C151   C     0.50357   0.90338   0.97600   0.00000  Uiso   1.00
C152   C     0.60907   0.70284   0.39389   0.00000  Uiso   1.00
C153   C     0.60785   0.83359   0.47314   0.00000  Uiso   1.00
C154   C     0.57314   0.83675   0.56366   0.00000  Uiso   1.00
C155   C     0.57843   0.96685   0.62590   0.00000  Uiso   1.00
C156   C     0.67611   0.65431   0.38432   0.00000  Uiso   1.00
C157   C     0.69879   0.50671   0.40015   0.00000  Uiso   1.00
C158   C     0.76153   0.48587   0.38761   0.00000  Uiso   1.00
C159   C     0.59200   0.77509   0.28968   0.00000  Uiso   1.00
C160   C     0.54398   0.72902   0.22592   0.00000  Uiso   1.00
C161   C     0.53594   0.80984   0.13367   0.00000  Uiso   1.00
H162   H     0.71026   0.02360   0.32214   0.00000  Uiso   1.00
H163   H     0.68171   0.18090   0.48665   0.00000  Uiso   1.00
H164   H     0.80734   0.85091   0.32314   0.00000  Uiso   1.00
H165   H     0.65256   0.07319   0.14895   0.00000  Uiso   1.00
H166   H     0.63305   0.30127   0.68113   0.00000  Uiso   1.00
H167   H     0.89793   0.60545   0.33635   0.00000  Uiso   1.00
H168   H     0.57155   0.07417   0.96901   0.00000  Uiso   1.00
H169   H     0.57900   0.60750   0.41522   0.00000  Uiso   1.00
H170   H     0.54325   0.74197   0.58484   0.00000  Uiso   1.00
H171   H     0.66888   0.41198   0.42134   0.00000  Uiso   1.00
H172   H     0.51410   0.63426   0.24714   0.00000  Uiso   1.00
H173   H     0.52067   0.94501   0.76083   0.00000  Uiso   1.00
H174   H     0.78556   0.24919   0.41604   0.00000  Uiso   1.00
H175   H     0.45917   0.71791   0.04871   0.00000  Uiso   1.00
O176   O     0.55572   0.21908   0.83090   0.00000  Uiso   1.00
O177   O     0.90324   0.30620   0.37853   0.00000  Uiso   1.00
O178   O     0.47504   0.92115   0.89660   0.00000  Uiso   1.00
N179   N     0.61150   0.19898   0.67660   0.00000  Uiso   1.00
N180   N     0.85915   0.54844   0.35426   0.00000  Uiso   1.00
N181   N     0.55402   0.98663   0.01082   0.00000  Uiso   1.00
N182   N     0.55103   0.00729   0.71948   0.00000  Uiso   1.00
N183   N     0.79868   0.35674   0.39715   0.00000  Uiso   1.00
N184   N     0.49355   0.79493   0.05370   0.00000  Uiso   1.00
