data_job_00830
_audit_creation_date              2018-12-19
_audit_creation_method            'Materials Studio'
_symmetry_space_group_name_H-M    'P1'
_symmetry_Int_Tables_number       1
_symmetry_cell_setting            triclinic
loop_
_symmetry_equiv_pos_as_xyz
  x,y,z
_cell_length_a                    11.7356
_cell_length_b                    10.3582
_cell_length_c                    26.1294
_cell_angle_alpha                 90.0000
_cell_angle_beta                  121.4979
_cell_angle_gamma                 90.0000
loop_
_atom_site_label
_atom_site_type_symbol
_atom_site_fract_x
_atom_site_fract_y
_atom_site_fract_z
_atom_site_U_iso_or_equiv
_atom_site_adp_type
_atom_site_occupancy
C1     C     0.41659   0.17718   0.35020   0.00000  Uiso   1.00
C2     C     0.52836   0.26830   0.39282   0.00000  Uiso   1.00
C3     C     0.65903   0.23270   0.43434   0.00000  Uiso   1.00
C4     C     0.74625   0.33044   0.46917   0.00000  Uiso   1.00
C5     C     0.92619   0.45235   0.53637   0.00000  Uiso   1.00
C6     C     0.30401   0.19614   0.36239   0.00000  Uiso   1.00
C7     C     0.24603   0.09987   0.37831   0.00000  Uiso   1.00
C8     C     0.14438   0.13688   0.38752   0.00000  Uiso   1.00
C9     C     0.97595   0.14674   0.40743   0.00000  Uiso   1.00
C10    C     0.36430   0.22942   0.28718   0.00000  Uiso   1.00
C11    C     0.35698   0.16113   0.23985   0.00000  Uiso   1.00
C12    C     0.30605   0.22615   0.18572   0.00000  Uiso   1.00
C13    C     0.23123   0.28770   0.08884   0.00000  Uiso   1.00
C14    C     0.33913   0.41406   0.33823   0.00000  Uiso   1.00
C15    C     0.48629   0.39696   0.38632   0.00000  Uiso   1.00
C16    C     0.57333   0.49479   0.42110   0.00000  Uiso   1.00
C17    C     0.70411   0.45934   0.46266   0.00000  Uiso   1.00
C18    C     0.26194   0.32480   0.35589   0.00000  Uiso   1.00
C19    C     0.16034   0.36196   0.36507   0.00000  Uiso   1.00
C20    C     0.10223   0.26578   0.38100   0.00000  Uiso   1.00
C21    C     0.32223   0.35809   0.28067   0.00000  Uiso   1.00
C22    C     0.27129   0.42323   0.22661   0.00000  Uiso   1.00
C23    C     0.26390   0.35505   0.17920   0.00000  Uiso   1.00
H24    H     0.44933   0.07700   0.35526   0.00000  Uiso   1.00
H25    H     0.69154   0.13312   0.43936   0.00000  Uiso   1.00
H26    H     0.27860   0.00031   0.38334   0.00000  Uiso   1.00
H27    H     0.38954   0.06157   0.24490   0.00000  Uiso   1.00
H28    H     0.94151   0.25206   0.52975   0.00000  Uiso   1.00
H29    H     0.07078   0.97203   0.41160   0.00000  Uiso   1.00
H30    H     0.30470   0.10119   0.11967   0.00000  Uiso   1.00
H31    H     0.30637   0.51424   0.33316   0.00000  Uiso   1.00
H32    H     0.54075   0.59435   0.41605   0.00000  Uiso   1.00
H33    H     0.12781   0.46154   0.36003   0.00000  Uiso   1.00
H34    H     0.23874   0.52279   0.22159   0.00000  Uiso   1.00
H35    H     0.81912   0.62641   0.51084   0.00000  Uiso   1.00
H36    H     0.94838   0.34637   0.39268   0.00000  Uiso   1.00
H37    H     0.18231   0.47554   0.10075   0.00000  Uiso   1.00
O38    O     0.03706   0.48404   0.57524   0.00000  Uiso   1.00
O39    O     0.89468   0.11664   0.42021   0.00000  Uiso   1.00
O40    O     0.20159   0.28610   0.03721   0.00000  Uiso   1.00
N41    N     0.88055   0.32918   0.51392   0.00000  Uiso   1.00
N42    N     0.06648   0.06736   0.40346   0.00000  Uiso   1.00
N43    N     0.28515   0.18811   0.13053   0.00000  Uiso   1.00
N44    N     0.81469   0.53061   0.50374   0.00000  Uiso   1.00
N45    N     0.00062   0.26880   0.39328   0.00000  Uiso   1.00
N46    N     0.21929   0.38955   0.12035   0.00000  Uiso   1.00
C47    C     0.58341   0.67718   0.14980   0.00000  Uiso   1.00
C48    C     0.47164   0.76830   0.10718   0.00000  Uiso   1.00
C49    C     0.34097   0.73270   0.06566   0.00000  Uiso   1.00
C50    C     0.25375   0.83044   0.03083   0.00000  Uiso   1.00
C51    C     0.07381   0.95235   0.96363   0.00000  Uiso   1.00
C52    C     0.69599   0.69614   0.13761   0.00000  Uiso   1.00
C53    C     0.75397   0.59987   0.12169   0.00000  Uiso   1.00
C54    C     0.85562   0.63688   0.11248   0.00000  Uiso   1.00
C55    C     0.02405   0.64674   0.09257   0.00000  Uiso   1.00
C56    C     0.63570   0.72942   0.21282   0.00000  Uiso   1.00
C57    C     0.64302   0.66113   0.26015   0.00000  Uiso   1.00
C58    C     0.69395   0.72615   0.31428   0.00000  Uiso   1.00
C59    C     0.76877   0.78770   0.41116   0.00000  Uiso   1.00
C60    C     0.66087   0.91406   0.16177   0.00000  Uiso   1.00
C61    C     0.51371   0.89696   0.11368   0.00000  Uiso   1.00
C62    C     0.42667   0.99479   0.07890   0.00000  Uiso   1.00
C63    C     0.29589   0.95934   0.03734   0.00000  Uiso   1.00
C64    C     0.73806   0.82480   0.14411   0.00000  Uiso   1.00
C65    C     0.83966   0.86196   0.13493   0.00000  Uiso   1.00
C66    C     0.89777   0.76578   0.11900   0.00000  Uiso   1.00
C67    C     0.67777   0.85809   0.21933   0.00000  Uiso   1.00
C68    C     0.72871   0.92323   0.27339   0.00000  Uiso   1.00
C69    C     0.73610   0.85505   0.32080   0.00000  Uiso   1.00
H70    H     0.55067   0.57700   0.14474   0.00000  Uiso   1.00
H71    H     0.30846   0.63312   0.06064   0.00000  Uiso   1.00
H72    H     0.72140   0.50031   0.11666   0.00000  Uiso   1.00
H73    H     0.61046   0.56157   0.25510   0.00000  Uiso   1.00
H74    H     0.05849   0.75206   0.97025   0.00000  Uiso   1.00
H75    H     0.92922   0.47203   0.08840   0.00000  Uiso   1.00
H76    H     0.69530   0.60119   0.38033   0.00000  Uiso   1.00
H77    H     0.69363   0.01424   0.16684   0.00000  Uiso   1.00
H78    H     0.45925   0.09435   0.08395   0.00000  Uiso   1.00
H79    H     0.87219   0.96154   0.13997   0.00000  Uiso   1.00
H80    H     0.76126   0.02279   0.27841   0.00000  Uiso   1.00
H81    H     0.18088   0.12641   0.98916   0.00000  Uiso   1.00
H82    H     0.05162   0.84637   0.10732   0.00000  Uiso   1.00
H83    H     0.81769   0.97554   0.39925   0.00000  Uiso   1.00
O84    O     0.96294   0.98404   0.92476   0.00000  Uiso   1.00
O85    O     0.10532   0.61664   0.07979   0.00000  Uiso   1.00
O86    O     0.79841   0.78610   0.46279   0.00000  Uiso   1.00
N87    N     0.11945   0.82918   0.98608   0.00000  Uiso   1.00
N88    N     0.93352   0.56736   0.09654   0.00000  Uiso   1.00
N89    N     0.71485   0.68811   0.36947   0.00000  Uiso   1.00
N90    N     0.18531   0.03061   0.99626   0.00000  Uiso   1.00
N91    N     0.99938   0.76880   0.10672   0.00000  Uiso   1.00
N92    N     0.78071   0.88955   0.37965   0.00000  Uiso   1.00
C93    C     0.58341   0.82282   0.64980   0.00000  Uiso   1.00
C94    C     0.47164   0.73170   0.60718   0.00000  Uiso   1.00
C95    C     0.34097   0.76730   0.56566   0.00000  Uiso   1.00
C96    C     0.25375   0.66956   0.53083   0.00000  Uiso   1.00
C97    C     0.07381   0.54765   0.46363   0.00000  Uiso   1.00
C98    C     0.69599   0.80386   0.63761   0.00000  Uiso   1.00
C99    C     0.75397   0.90013   0.62169   0.00000  Uiso   1.00
C100   C     0.85562   0.86312   0.61248   0.00000  Uiso   1.00
C101   C     0.02405   0.85326   0.59257   0.00000  Uiso   1.00
C102   C     0.63570   0.77058   0.71282   0.00000  Uiso   1.00
C103   C     0.64302   0.83887   0.76015   0.00000  Uiso   1.00
C104   C     0.69395   0.77385   0.81428   0.00000  Uiso   1.00
C105   C     0.76877   0.71230   0.91116   0.00000  Uiso   1.00
C106   C     0.66087   0.58594   0.66177   0.00000  Uiso   1.00
C107   C     0.51371   0.60304   0.61368   0.00000  Uiso   1.00
C108   C     0.42667   0.50521   0.57890   0.00000  Uiso   1.00
C109   C     0.29589   0.54066   0.53734   0.00000  Uiso   1.00
C110   C     0.73806   0.67520   0.64411   0.00000  Uiso   1.00
C111   C     0.83966   0.63804   0.63493   0.00000  Uiso   1.00
C112   C     0.89777   0.73422   0.61900   0.00000  Uiso   1.00
C113   C     0.67777   0.64191   0.71933   0.00000  Uiso   1.00
C114   C     0.72871   0.57677   0.77339   0.00000  Uiso   1.00
C115   C     0.73610   0.64495   0.82080   0.00000  Uiso   1.00
H116   H     0.55067   0.92300   0.64474   0.00000  Uiso   1.00
H117   H     0.30846   0.86688   0.56064   0.00000  Uiso   1.00
H118   H     0.72140   0.99969   0.61666   0.00000  Uiso   1.00
H119   H     0.61046   0.93843   0.75510   0.00000  Uiso   1.00
H120   H     0.05849   0.74794   0.47025   0.00000  Uiso   1.00
H121   H     0.92922   0.02797   0.58840   0.00000  Uiso   1.00
H122   H     0.69530   0.89881   0.88033   0.00000  Uiso   1.00
H123   H     0.69363   0.48576   0.66684   0.00000  Uiso   1.00
H124   H     0.45925   0.40565   0.58395   0.00000  Uiso   1.00
H125   H     0.87219   0.53846   0.63997   0.00000  Uiso   1.00
H126   H     0.76126   0.47721   0.77841   0.00000  Uiso   1.00
H127   H     0.18088   0.37359   0.48916   0.00000  Uiso   1.00
H128   H     0.05162   0.65363   0.60732   0.00000  Uiso   1.00
H129   H     0.81769   0.52446   0.89925   0.00000  Uiso   1.00
O130   O     0.96294   0.51596   0.42476   0.00000  Uiso   1.00
O131   O     0.10532   0.88336   0.57979   0.00000  Uiso   1.00
O132   O     0.79841   0.71390   0.96279   0.00000  Uiso   1.00
N133   N     0.11945   0.67082   0.48608   0.00000  Uiso   1.00
N134   N     0.93352   0.93264   0.59654   0.00000  Uiso   1.00
N135   N     0.71485   0.81189   0.86947   0.00000  Uiso   1.00
N136   N     0.18531   0.46939   0.49626   0.00000  Uiso   1.00
N137   N     0.99938   0.73120   0.60672   0.00000  Uiso   1.00
N138   N     0.78071   0.61045   0.87965   0.00000  Uiso   1.00
C139   C     0.41659   0.32282   0.85020   0.00000  Uiso   1.00
C140   C     0.52836   0.23170   0.89282   0.00000  Uiso   1.00
C141   C     0.65903   0.26730   0.93434   0.00000  Uiso   1.00
C142   C     0.74625   0.16956   0.96917   0.00000  Uiso   1.00
C143   C     0.92619   0.04765   0.03637   0.00000  Uiso   1.00
C144   C     0.30401   0.30386   0.86239   0.00000  Uiso   1.00
C145   C     0.24603   0.40013   0.87831   0.00000  Uiso   1.00
C146   C     0.14438   0.36312   0.88752   0.00000  Uiso   1.00
C147   C     0.97595   0.35326   0.90743   0.00000  Uiso   1.00
C148   C     0.36430   0.27058   0.78718   0.00000  Uiso   1.00
C149   C     0.35698   0.33887   0.73985   0.00000  Uiso   1.00
C150   C     0.30605   0.27385   0.68572   0.00000  Uiso   1.00
C151   C     0.23123   0.21230   0.58884   0.00000  Uiso   1.00
C152   C     0.33913   0.08594   0.83823   0.00000  Uiso   1.00
C153   C     0.48629   0.10304   0.88632   0.00000  Uiso   1.00
C154   C     0.57333   0.00521   0.92110   0.00000  Uiso   1.00
C155   C     0.70411   0.04066   0.96266   0.00000  Uiso   1.00
C156   C     0.26194   0.17520   0.85589   0.00000  Uiso   1.00
C157   C     0.16034   0.13804   0.86507   0.00000  Uiso   1.00
C158   C     0.10223   0.23422   0.88100   0.00000  Uiso   1.00
C159   C     0.32223   0.14191   0.78067   0.00000  Uiso   1.00
C160   C     0.27129   0.07677   0.72661   0.00000  Uiso   1.00
C161   C     0.26390   0.14495   0.67920   0.00000  Uiso   1.00
H162   H     0.44933   0.42300   0.85526   0.00000  Uiso   1.00
H163   H     0.69154   0.36688   0.93936   0.00000  Uiso   1.00
H164   H     0.27860   0.49969   0.88334   0.00000  Uiso   1.00
H165   H     0.38954   0.43843   0.74490   0.00000  Uiso   1.00
H166   H     0.94151   0.24794   0.02975   0.00000  Uiso   1.00
H167   H     0.07078   0.52797   0.91160   0.00000  Uiso   1.00
H168   H     0.30470   0.39881   0.61967   0.00000  Uiso   1.00
H169   H     0.30637   0.98576   0.83316   0.00000  Uiso   1.00
H170   H     0.54075   0.90565   0.91605   0.00000  Uiso   1.00
H171   H     0.12781   0.03846   0.86003   0.00000  Uiso   1.00
H172   H     0.23874   0.97721   0.72159   0.00000  Uiso   1.00
H173   H     0.81912   0.87359   0.01084   0.00000  Uiso   1.00
H174   H     0.94838   0.15363   0.89268   0.00000  Uiso   1.00
H175   H     0.18231   0.02446   0.60075   0.00000  Uiso   1.00
O176   O     0.03706   0.01596   0.07524   0.00000  Uiso   1.00
O177   O     0.89468   0.38336   0.92021   0.00000  Uiso   1.00
O178   O     0.20159   0.21390   0.53721   0.00000  Uiso   1.00
N179   N     0.88055   0.17082   0.01392   0.00000  Uiso   1.00
N180   N     0.06648   0.43264   0.90346   0.00000  Uiso   1.00
N181   N     0.28515   0.31189   0.63053   0.00000  Uiso   1.00
N182   N     0.81469   0.96939   0.00374   0.00000  Uiso   1.00
N183   N     0.00062   0.23120   0.89328   0.00000  Uiso   1.00
N184   N     0.21929   0.11045   0.62035   0.00000  Uiso   1.00
