data_job_00615
_audit_creation_date              2018-12-19
_audit_creation_method            'Materials Studio'
_symmetry_space_group_name_H-M    'P1'
_symmetry_Int_Tables_number       1
_symmetry_cell_setting            triclinic
loop_
_symmetry_equiv_pos_as_xyz
  x,y,z
_cell_length_a                    15.6050
_cell_length_b                    22.2924
_cell_length_c                    18.6749
_cell_angle_alpha                 90.0000
_cell_angle_beta                  90.0000
_cell_angle_gamma                 90.0000
loop_
_atom_site_label
_atom_site_type_symbol
_atom_site_fract_x
_atom_site_fract_y
_atom_site_fract_z
_atom_site_U_iso_or_equiv
_atom_site_adp_type
_atom_site_occupancy
C1     C     0.23846   0.62222   0.51867   0.00000  Uiso   1.00
C2     C     0.32338   0.60053   0.48764   0.00000  Uiso   1.00
C3     C     0.33530   0.57716   0.41949   0.00000  Uiso   1.00
C4     C     0.41793   0.55984   0.40126   0.00000  Uiso   1.00
C5     C     0.53940   0.52523   0.34577   0.00000  Uiso   1.00
C6     C     0.22477   0.58655   0.58740   0.00000  Uiso   1.00
C7     C     0.15377   0.55144   0.60312   0.00000  Uiso   1.00
C8     C     0.15339   0.52237   0.66887   0.00000  Uiso   1.00
C9     C     0.12173   0.46610   0.76826   0.00000  Uiso   1.00
C10    C     0.25328   0.68699   0.54183   0.00000  Uiso   1.00
C11    C     0.20625   0.73633   0.51926   0.00000  Uiso   1.00
C12    C     0.22987   0.79182   0.54666   0.00000  Uiso   1.00
C13    C     0.24248   0.89149   0.57531   0.00000  Uiso   1.00
C14    C     0.36401   0.63303   0.60749   0.00000  Uiso   1.00
C15    C     0.39157   0.60640   0.53589   0.00000  Uiso   1.00
C16    C     0.47420   0.58911   0.51776   0.00000  Uiso   1.00
C17    C     0.48625   0.56572   0.44959   0.00000  Uiso   1.00
C18    C     0.29295   0.59242   0.63564   0.00000  Uiso   1.00
C19    C     0.29267   0.56340   0.70139   0.00000  Uiso   1.00
C20    C     0.22170   0.52825   0.71720   0.00000  Uiso   1.00
C21    C     0.32147   0.69286   0.59008   0.00000  Uiso   1.00
C22    C     0.34516   0.74829   0.61753   0.00000  Uiso   1.00
C23    C     0.29818   0.79770   0.59500   0.00000  Uiso   1.00
H24    H     0.18537   0.61765   0.48111   0.00000  Uiso   1.00
H25    H     0.28251   0.57261   0.38217   0.00000  Uiso   1.00
H26    H     0.10101   0.54691   0.56578   0.00000  Uiso   1.00
H27    H     0.15349   0.73177   0.48193   0.00000  Uiso   1.00
H28    H     0.42027   0.52525   0.29377   0.00000  Uiso   1.00
H29    H     0.03755   0.47107   0.68091   0.00000  Uiso   1.00
H30    H     0.14821   0.86088   0.50410   0.00000  Uiso   1.00
H31    H     0.41710   0.63760   0.64505   0.00000  Uiso   1.00
H32    H     0.52696   0.59366   0.55511   0.00000  Uiso   1.00
H33    H     0.34545   0.56796   0.73871   0.00000  Uiso   1.00
H34    H     0.39793   0.75281   0.65486   0.00000  Uiso   1.00
H35    H     0.61868   0.54233   0.43413   0.00000  Uiso   1.00
H36    H     0.23595   0.48815   0.82128   0.00000  Uiso   1.00
H37    H     0.34661   0.87796   0.64446   0.00000  Uiso   1.00
O38    O     0.58756   0.50451   0.30183   0.00000  Uiso   1.00
O39    O     0.08543   0.43344   0.80975   0.00000  Uiso   1.00
O40    O     0.23061   0.94485   0.57778   0.00000  Uiso   1.00
N41    N     0.45190   0.53531   0.33914   0.00000  Uiso   1.00
N42    N     0.09408   0.48465   0.70109   0.00000  Uiso   1.00
N43    N     0.19752   0.84908   0.53580   0.00000  Uiso   1.00
N44    N     0.55866   0.54451   0.41467   0.00000  Uiso   1.00
N45    N     0.20084   0.49384   0.77662   0.00000  Uiso   1.00
N46    N     0.30428   0.85828   0.61133   0.00000  Uiso   1.00
C47    C     0.73846   0.12222   0.51867   0.00000  Uiso   1.00
C48    C     0.82338   0.10053   0.48764   0.00000  Uiso   1.00
C49    C     0.83530   0.07716   0.41949   0.00000  Uiso   1.00
C50    C     0.91793   0.05984   0.40126   0.00000  Uiso   1.00
C51    C     0.03940   0.02523   0.34577   0.00000  Uiso   1.00
C52    C     0.72477   0.08655   0.58740   0.00000  Uiso   1.00
C53    C     0.65377   0.05144   0.60312   0.00000  Uiso   1.00
C54    C     0.65339   0.02237   0.66887   0.00000  Uiso   1.00
C55    C     0.62173   0.96610   0.76826   0.00000  Uiso   1.00
C56    C     0.75328   0.18699   0.54183   0.00000  Uiso   1.00
C57    C     0.70625   0.23633   0.51926   0.00000  Uiso   1.00
C58    C     0.72987   0.29182   0.54666   0.00000  Uiso   1.00
C59    C     0.74248   0.39149   0.57531   0.00000  Uiso   1.00
C60    C     0.86401   0.13303   0.60749   0.00000  Uiso   1.00
C61    C     0.89157   0.10640   0.53589   0.00000  Uiso   1.00
C62    C     0.97420   0.08911   0.51776   0.00000  Uiso   1.00
C63    C     0.98625   0.06572   0.44959   0.00000  Uiso   1.00
C64    C     0.79295   0.09242   0.63564   0.00000  Uiso   1.00
C65    C     0.79267   0.06340   0.70139   0.00000  Uiso   1.00
C66    C     0.72170   0.02825   0.71720   0.00000  Uiso   1.00
C67    C     0.82147   0.19286   0.59008   0.00000  Uiso   1.00
C68    C     0.84516   0.24829   0.61753   0.00000  Uiso   1.00
C69    C     0.79818   0.29770   0.59500   0.00000  Uiso   1.00
H70    H     0.68537   0.11765   0.48111   0.00000  Uiso   1.00
H71    H     0.78251   0.07261   0.38217   0.00000  Uiso   1.00
H72    H     0.60101   0.04691   0.56578   0.00000  Uiso   1.00
H73    H     0.65349   0.23177   0.48193   0.00000  Uiso   1.00
H74    H     0.92027   0.02525   0.29377   0.00000  Uiso   1.00
H75    H     0.53755   0.97107   0.68091   0.00000  Uiso   1.00
H76    H     0.64821   0.36088   0.50410   0.00000  Uiso   1.00
H77    H     0.91710   0.13760   0.64505   0.00000  Uiso   1.00
H78    H     0.02696   0.09366   0.55511   0.00000  Uiso   1.00
H79    H     0.84545   0.06796   0.73871   0.00000  Uiso   1.00
H80    H     0.89793   0.25281   0.65486   0.00000  Uiso   1.00
H81    H     0.11868   0.04233   0.43413   0.00000  Uiso   1.00
H82    H     0.73595   0.98815   0.82128   0.00000  Uiso   1.00
H83    H     0.84661   0.37796   0.64446   0.00000  Uiso   1.00
O84    O     0.08756   0.00451   0.30183   0.00000  Uiso   1.00
O85    O     0.58543   0.93344   0.80975   0.00000  Uiso   1.00
O86    O     0.73061   0.44485   0.57778   0.00000  Uiso   1.00
N87    N     0.95190   0.03531   0.33914   0.00000  Uiso   1.00
N88    N     0.59408   0.98465   0.70109   0.00000  Uiso   1.00
N89    N     0.69752   0.34908   0.53580   0.00000  Uiso   1.00
N90    N     0.05866   0.04451   0.41467   0.00000  Uiso   1.00
N91    N     0.70084   0.99384   0.77662   0.00000  Uiso   1.00
N92    N     0.80428   0.35828   0.61133   0.00000  Uiso   1.00
C93    C     0.76154   0.37778   0.01867   0.00000  Uiso   1.00
C94    C     0.67662   0.39947   0.98764   0.00000  Uiso   1.00
C95    C     0.66470   0.42284   0.91949   0.00000  Uiso   1.00
C96    C     0.58207   0.44016   0.90126   0.00000  Uiso   1.00
C97    C     0.46060   0.47477   0.84577   0.00000  Uiso   1.00
C98    C     0.77523   0.41345   0.08740   0.00000  Uiso   1.00
C99    C     0.84623   0.44856   0.10312   0.00000  Uiso   1.00
C100   C     0.84661   0.47763   0.16887   0.00000  Uiso   1.00
C101   C     0.87827   0.53390   0.26826   0.00000  Uiso   1.00
C102   C     0.74672   0.31301   0.04183   0.00000  Uiso   1.00
C103   C     0.79375   0.26367   0.01926   0.00000  Uiso   1.00
C104   C     0.77013   0.20818   0.04666   0.00000  Uiso   1.00
C105   C     0.75752   0.10851   0.07531   0.00000  Uiso   1.00
C106   C     0.63599   0.36697   0.10749   0.00000  Uiso   1.00
C107   C     0.60843   0.39360   0.03589   0.00000  Uiso   1.00
C108   C     0.52580   0.41089   0.01776   0.00000  Uiso   1.00
C109   C     0.51375   0.43428   0.94959   0.00000  Uiso   1.00
C110   C     0.70705   0.40758   0.13564   0.00000  Uiso   1.00
C111   C     0.70733   0.43660   0.20139   0.00000  Uiso   1.00
C112   C     0.77830   0.47175   0.21720   0.00000  Uiso   1.00
C113   C     0.67853   0.30714   0.09008   0.00000  Uiso   1.00
C114   C     0.65484   0.25171   0.11753   0.00000  Uiso   1.00
C115   C     0.70182   0.20230   0.09500   0.00000  Uiso   1.00
H116   H     0.81463   0.38235   0.98111   0.00000  Uiso   1.00
H117   H     0.71749   0.42739   0.88217   0.00000  Uiso   1.00
H118   H     0.89899   0.45309   0.06578   0.00000  Uiso   1.00
H119   H     0.84651   0.26823   0.98193   0.00000  Uiso   1.00
H120   H     0.57973   0.47475   0.79377   0.00000  Uiso   1.00
H121   H     0.96245   0.52893   0.18091   0.00000  Uiso   1.00
H122   H     0.85179   0.13912   0.00410   0.00000  Uiso   1.00
H123   H     0.58290   0.36240   0.14505   0.00000  Uiso   1.00
H124   H     0.47304   0.40634   0.05511   0.00000  Uiso   1.00
H125   H     0.65455   0.43204   0.23871   0.00000  Uiso   1.00
H126   H     0.60207   0.24719   0.15486   0.00000  Uiso   1.00
H127   H     0.38132   0.45767   0.93413   0.00000  Uiso   1.00
H128   H     0.76405   0.51185   0.32128   0.00000  Uiso   1.00
H129   H     0.65339   0.12204   0.14446   0.00000  Uiso   1.00
O130   O     0.41244   0.49549   0.80183   0.00000  Uiso   1.00
O131   O     0.91457   0.56656   0.30975   0.00000  Uiso   1.00
O132   O     0.76939   0.05515   0.07778   0.00000  Uiso   1.00
N133   N     0.54810   0.46469   0.83914   0.00000  Uiso   1.00
N134   N     0.90592   0.51535   0.20109   0.00000  Uiso   1.00
N135   N     0.80248   0.15092   0.03580   0.00000  Uiso   1.00
N136   N     0.44134   0.45549   0.91467   0.00000  Uiso   1.00
N137   N     0.79916   0.50616   0.27662   0.00000  Uiso   1.00
N138   N     0.69572   0.14172   0.11133   0.00000  Uiso   1.00
C139   C     0.26154   0.87778   0.01867   0.00000  Uiso   1.00
C140   C     0.17662   0.89947   0.98764   0.00000  Uiso   1.00
C141   C     0.16470   0.92284   0.91949   0.00000  Uiso   1.00
C142   C     0.08207   0.94016   0.90126   0.00000  Uiso   1.00
C143   C     0.96060   0.97477   0.84577   0.00000  Uiso   1.00
C144   C     0.27523   0.91345   0.08740   0.00000  Uiso   1.00
C145   C     0.34623   0.94856   0.10312   0.00000  Uiso   1.00
C146   C     0.34661   0.97763   0.16887   0.00000  Uiso   1.00
C147   C     0.37827   0.03390   0.26826   0.00000  Uiso   1.00
C148   C     0.24672   0.81301   0.04183   0.00000  Uiso   1.00
C149   C     0.29375   0.76367   0.01926   0.00000  Uiso   1.00
C150   C     0.27013   0.70818   0.04666   0.00000  Uiso   1.00
C151   C     0.25752   0.60851   0.07531   0.00000  Uiso   1.00
C152   C     0.13599   0.86697   0.10749   0.00000  Uiso   1.00
C153   C     0.10843   0.89360   0.03589   0.00000  Uiso   1.00
C154   C     0.02580   0.91089   0.01776   0.00000  Uiso   1.00
C155   C     0.01375   0.93428   0.94959   0.00000  Uiso   1.00
C156   C     0.20705   0.90758   0.13564   0.00000  Uiso   1.00
C157   C     0.20733   0.93660   0.20139   0.00000  Uiso   1.00
C158   C     0.27830   0.97175   0.21720   0.00000  Uiso   1.00
C159   C     0.17853   0.80714   0.09008   0.00000  Uiso   1.00
C160   C     0.15484   0.75171   0.11753   0.00000  Uiso   1.00
C161   C     0.20182   0.70230   0.09500   0.00000  Uiso   1.00
H162   H     0.31463   0.88235   0.98111   0.00000  Uiso   1.00
H163   H     0.21749   0.92739   0.88217   0.00000  Uiso   1.00
H164   H     0.39899   0.95309   0.06578   0.00000  Uiso   1.00
H165   H     0.34651   0.76823   0.98193   0.00000  Uiso   1.00
H166   H     0.07973   0.97475   0.79377   0.00000  Uiso   1.00
H167   H     0.46245   0.02893   0.18091   0.00000  Uiso   1.00
H168   H     0.35179   0.63912   0.00410   0.00000  Uiso   1.00
H169   H     0.08290   0.86240   0.14505   0.00000  Uiso   1.00
H170   H     0.97304   0.90634   0.05511   0.00000  Uiso   1.00
H171   H     0.15455   0.93204   0.23871   0.00000  Uiso   1.00
H172   H     0.10207   0.74719   0.15486   0.00000  Uiso   1.00
H173   H     0.88132   0.95767   0.93413   0.00000  Uiso   1.00
H174   H     0.26405   0.01185   0.32128   0.00000  Uiso   1.00
H175   H     0.15339   0.62204   0.14446   0.00000  Uiso   1.00
O176   O     0.91244   0.99549   0.80183   0.00000  Uiso   1.00
O177   O     0.41457   0.06656   0.30975   0.00000  Uiso   1.00
O178   O     0.26939   0.55515   0.07778   0.00000  Uiso   1.00
N179   N     0.04810   0.96469   0.83914   0.00000  Uiso   1.00
N180   N     0.40592   0.01535   0.20109   0.00000  Uiso   1.00
N181   N     0.30248   0.65092   0.03580   0.00000  Uiso   1.00
N182   N     0.94134   0.95549   0.91467   0.00000  Uiso   1.00
N183   N     0.29916   0.00616   0.27662   0.00000  Uiso   1.00
N184   N     0.19572   0.64172   0.11133   0.00000  Uiso   1.00
C185   C     0.76154   0.62222   0.98133   0.00000  Uiso   1.00
C186   C     0.67662   0.60053   0.01236   0.00000  Uiso   1.00
C187   C     0.66470   0.57716   0.08051   0.00000  Uiso   1.00
C188   C     0.58207   0.55984   0.09874   0.00000  Uiso   1.00
C189   C     0.46060   0.52523   0.15423   0.00000  Uiso   1.00
C190   C     0.77523   0.58655   0.91260   0.00000  Uiso   1.00
C191   C     0.84623   0.55144   0.89688   0.00000  Uiso   1.00
C192   C     0.84661   0.52237   0.83113   0.00000  Uiso   1.00
C193   C     0.87827   0.46610   0.73174   0.00000  Uiso   1.00
C194   C     0.74672   0.68699   0.95817   0.00000  Uiso   1.00
C195   C     0.79375   0.73633   0.98074   0.00000  Uiso   1.00
C196   C     0.77013   0.79182   0.95334   0.00000  Uiso   1.00
C197   C     0.75752   0.89149   0.92469   0.00000  Uiso   1.00
C198   C     0.63599   0.63303   0.89251   0.00000  Uiso   1.00
C199   C     0.60843   0.60640   0.96411   0.00000  Uiso   1.00
C200   C     0.52580   0.58911   0.98224   0.00000  Uiso   1.00
C201   C     0.51375   0.56572   0.05041   0.00000  Uiso   1.00
C202   C     0.70705   0.59242   0.86436   0.00000  Uiso   1.00
C203   C     0.70733   0.56340   0.79861   0.00000  Uiso   1.00
C204   C     0.77830   0.52825   0.78280   0.00000  Uiso   1.00
C205   C     0.67853   0.69286   0.90992   0.00000  Uiso   1.00
C206   C     0.65484   0.74829   0.88247   0.00000  Uiso   1.00
C207   C     0.70182   0.79770   0.90500   0.00000  Uiso   1.00
H208   H     0.81463   0.61765   0.01889   0.00000  Uiso   1.00
H209   H     0.71749   0.57261   0.11783   0.00000  Uiso   1.00
H210   H     0.89899   0.54691   0.93422   0.00000  Uiso   1.00
H211   H     0.84651   0.73177   0.01807   0.00000  Uiso   1.00
H212   H     0.57973   0.52525   0.20623   0.00000  Uiso   1.00
H213   H     0.96245   0.47107   0.81909   0.00000  Uiso   1.00
H214   H     0.85179   0.86088   0.99590   0.00000  Uiso   1.00
H215   H     0.58290   0.63760   0.85495   0.00000  Uiso   1.00
H216   H     0.47304   0.59366   0.94489   0.00000  Uiso   1.00
H217   H     0.65455   0.56796   0.76129   0.00000  Uiso   1.00
H218   H     0.60207   0.75281   0.84514   0.00000  Uiso   1.00
H219   H     0.38132   0.54233   0.06587   0.00000  Uiso   1.00
H220   H     0.76405   0.48815   0.67872   0.00000  Uiso   1.00
H221   H     0.65339   0.87796   0.85554   0.00000  Uiso   1.00
O222   O     0.41244   0.50451   0.19817   0.00000  Uiso   1.00
O223   O     0.91457   0.43344   0.69025   0.00000  Uiso   1.00
O224   O     0.76939   0.94485   0.92222   0.00000  Uiso   1.00
N225   N     0.54810   0.53531   0.16086   0.00000  Uiso   1.00
N226   N     0.90592   0.48465   0.79891   0.00000  Uiso   1.00
N227   N     0.80248   0.84908   0.96420   0.00000  Uiso   1.00
N228   N     0.44134   0.54451   0.08533   0.00000  Uiso   1.00
N229   N     0.79916   0.49384   0.72338   0.00000  Uiso   1.00
N230   N     0.69572   0.85828   0.88867   0.00000  Uiso   1.00
C231   C     0.26154   0.12222   0.98133   0.00000  Uiso   1.00
C232   C     0.17662   0.10053   0.01236   0.00000  Uiso   1.00
C233   C     0.16470   0.07716   0.08051   0.00000  Uiso   1.00
C234   C     0.08207   0.05984   0.09874   0.00000  Uiso   1.00
C235   C     0.96060   0.02523   0.15423   0.00000  Uiso   1.00
C236   C     0.27523   0.08655   0.91260   0.00000  Uiso   1.00
C237   C     0.34623   0.05144   0.89688   0.00000  Uiso   1.00
C238   C     0.34661   0.02237   0.83113   0.00000  Uiso   1.00
C239   C     0.37827   0.96610   0.73174   0.00000  Uiso   1.00
C240   C     0.24672   0.18699   0.95817   0.00000  Uiso   1.00
C241   C     0.29375   0.23633   0.98074   0.00000  Uiso   1.00
C242   C     0.27013   0.29182   0.95334   0.00000  Uiso   1.00
C243   C     0.25752   0.39149   0.92469   0.00000  Uiso   1.00
C244   C     0.13599   0.13303   0.89251   0.00000  Uiso   1.00
C245   C     0.10843   0.10640   0.96411   0.00000  Uiso   1.00
C246   C     0.02580   0.08911   0.98224   0.00000  Uiso   1.00
C247   C     0.01375   0.06572   0.05041   0.00000  Uiso   1.00
C248   C     0.20705   0.09242   0.86436   0.00000  Uiso   1.00
C249   C     0.20733   0.06340   0.79861   0.00000  Uiso   1.00
C250   C     0.27830   0.02825   0.78280   0.00000  Uiso   1.00
C251   C     0.17853   0.19286   0.90992   0.00000  Uiso   1.00
C252   C     0.15484   0.24829   0.88247   0.00000  Uiso   1.00
C253   C     0.20182   0.29770   0.90500   0.00000  Uiso   1.00
H254   H     0.31463   0.11765   0.01889   0.00000  Uiso   1.00
H255   H     0.21749   0.07261   0.11783   0.00000  Uiso   1.00
H256   H     0.39899   0.04691   0.93422   0.00000  Uiso   1.00
H257   H     0.34651   0.23177   0.01807   0.00000  Uiso   1.00
H258   H     0.07973   0.02525   0.20623   0.00000  Uiso   1.00
H259   H     0.46245   0.97107   0.81909   0.00000  Uiso   1.00
H260   H     0.35179   0.36088   0.99590   0.00000  Uiso   1.00
H261   H     0.08290   0.13760   0.85495   0.00000  Uiso   1.00
H262   H     0.97304   0.09366   0.94489   0.00000  Uiso   1.00
H263   H     0.15455   0.06796   0.76129   0.00000  Uiso   1.00
H264   H     0.10207   0.25281   0.84514   0.00000  Uiso   1.00
H265   H     0.88132   0.04233   0.06587   0.00000  Uiso   1.00
H266   H     0.26405   0.98815   0.67872   0.00000  Uiso   1.00
H267   H     0.15339   0.37796   0.85554   0.00000  Uiso   1.00
O268   O     0.91244   0.00451   0.19817   0.00000  Uiso   1.00
O269   O     0.41457   0.93344   0.69025   0.00000  Uiso   1.00
O270   O     0.26939   0.44485   0.92222   0.00000  Uiso   1.00
N271   N     0.04810   0.03531   0.16086   0.00000  Uiso   1.00
N272   N     0.40592   0.98465   0.79891   0.00000  Uiso   1.00
N273   N     0.30248   0.34908   0.96420   0.00000  Uiso   1.00
N274   N     0.94134   0.04451   0.08533   0.00000  Uiso   1.00
N275   N     0.29916   0.99384   0.72338   0.00000  Uiso   1.00
N276   N     0.19572   0.35828   0.88867   0.00000  Uiso   1.00
C277   C     0.23846   0.37778   0.48133   0.00000  Uiso   1.00
C278   C     0.32338   0.39947   0.51236   0.00000  Uiso   1.00
C279   C     0.33530   0.42284   0.58051   0.00000  Uiso   1.00
C280   C     0.41793   0.44016   0.59874   0.00000  Uiso   1.00
C281   C     0.53940   0.47477   0.65423   0.00000  Uiso   1.00
C282   C     0.22477   0.41345   0.41260   0.00000  Uiso   1.00
C283   C     0.15377   0.44856   0.39688   0.00000  Uiso   1.00
C284   C     0.15339   0.47763   0.33113   0.00000  Uiso   1.00
C285   C     0.12173   0.53390   0.23174   0.00000  Uiso   1.00
C286   C     0.25328   0.31301   0.45817   0.00000  Uiso   1.00
C287   C     0.20625   0.26367   0.48074   0.00000  Uiso   1.00
C288   C     0.22987   0.20818   0.45334   0.00000  Uiso   1.00
C289   C     0.24248   0.10851   0.42469   0.00000  Uiso   1.00
C290   C     0.36401   0.36697   0.39251   0.00000  Uiso   1.00
C291   C     0.39157   0.39360   0.46411   0.00000  Uiso   1.00
C292   C     0.47420   0.41089   0.48224   0.00000  Uiso   1.00
C293   C     0.48625   0.43428   0.55041   0.00000  Uiso   1.00
C294   C     0.29295   0.40758   0.36436   0.00000  Uiso   1.00
C295   C     0.29267   0.43660   0.29861   0.00000  Uiso   1.00
C296   C     0.22170   0.47175   0.28280   0.00000  Uiso   1.00
C297   C     0.32147   0.30714   0.40992   0.00000  Uiso   1.00
C298   C     0.34516   0.25171   0.38247   0.00000  Uiso   1.00
C299   C     0.29818   0.20230   0.40500   0.00000  Uiso   1.00
H300   H     0.18537   0.38235   0.51889   0.00000  Uiso   1.00
H301   H     0.28251   0.42739   0.61783   0.00000  Uiso   1.00
H302   H     0.10101   0.45309   0.43422   0.00000  Uiso   1.00
H303   H     0.15349   0.26823   0.51807   0.00000  Uiso   1.00
H304   H     0.42027   0.47475   0.70623   0.00000  Uiso   1.00
H305   H     0.03755   0.52893   0.31909   0.00000  Uiso   1.00
H306   H     0.14821   0.13912   0.49590   0.00000  Uiso   1.00
H307   H     0.41710   0.36240   0.35495   0.00000  Uiso   1.00
H308   H     0.52696   0.40634   0.44489   0.00000  Uiso   1.00
H309   H     0.34545   0.43204   0.26129   0.00000  Uiso   1.00
H310   H     0.39793   0.24719   0.34514   0.00000  Uiso   1.00
H311   H     0.61868   0.45767   0.56587   0.00000  Uiso   1.00
H312   H     0.23595   0.51185   0.17872   0.00000  Uiso   1.00
H313   H     0.34661   0.12204   0.35554   0.00000  Uiso   1.00
O314   O     0.58756   0.49549   0.69817   0.00000  Uiso   1.00
O315   O     0.08543   0.56656   0.19025   0.00000  Uiso   1.00
O316   O     0.23061   0.05515   0.42222   0.00000  Uiso   1.00
N317   N     0.45190   0.46469   0.66086   0.00000  Uiso   1.00
N318   N     0.09408   0.51535   0.29891   0.00000  Uiso   1.00
N319   N     0.19752   0.15092   0.46420   0.00000  Uiso   1.00
N320   N     0.55866   0.45549   0.58533   0.00000  Uiso   1.00
N321   N     0.20084   0.50616   0.22338   0.00000  Uiso   1.00
N322   N     0.30428   0.14172   0.38867   0.00000  Uiso   1.00
C323   C     0.73846   0.87778   0.48133   0.00000  Uiso   1.00
C324   C     0.82338   0.89947   0.51236   0.00000  Uiso   1.00
C325   C     0.83530   0.92284   0.58051   0.00000  Uiso   1.00
C326   C     0.91793   0.94016   0.59874   0.00000  Uiso   1.00
C327   C     0.03940   0.97477   0.65423   0.00000  Uiso   1.00
C328   C     0.72477   0.91345   0.41260   0.00000  Uiso   1.00
C329   C     0.65377   0.94856   0.39688   0.00000  Uiso   1.00
C330   C     0.65339   0.97763   0.33113   0.00000  Uiso   1.00
C331   C     0.62173   0.03390   0.23174   0.00000  Uiso   1.00
C332   C     0.75328   0.81301   0.45817   0.00000  Uiso   1.00
C333   C     0.70625   0.76367   0.48074   0.00000  Uiso   1.00
C334   C     0.72987   0.70818   0.45334   0.00000  Uiso   1.00
C335   C     0.74248   0.60851   0.42469   0.00000  Uiso   1.00
C336   C     0.86401   0.86697   0.39251   0.00000  Uiso   1.00
C337   C     0.89157   0.89360   0.46411   0.00000  Uiso   1.00
C338   C     0.97420   0.91089   0.48224   0.00000  Uiso   1.00
C339   C     0.98625   0.93428   0.55041   0.00000  Uiso   1.00
C340   C     0.79295   0.90758   0.36436   0.00000  Uiso   1.00
C341   C     0.79267   0.93660   0.29861   0.00000  Uiso   1.00
C342   C     0.72170   0.97175   0.28280   0.00000  Uiso   1.00
C343   C     0.82147   0.80714   0.40992   0.00000  Uiso   1.00
C344   C     0.84516   0.75171   0.38247   0.00000  Uiso   1.00
C345   C     0.79818   0.70230   0.40500   0.00000  Uiso   1.00
H346   H     0.68537   0.88235   0.51889   0.00000  Uiso   1.00
H347   H     0.78251   0.92739   0.61783   0.00000  Uiso   1.00
H348   H     0.60101   0.95309   0.43422   0.00000  Uiso   1.00
H349   H     0.65349   0.76823   0.51807   0.00000  Uiso   1.00
H350   H     0.92027   0.97475   0.70623   0.00000  Uiso   1.00
H351   H     0.53755   0.02893   0.31909   0.00000  Uiso   1.00
H352   H     0.64821   0.63912   0.49590   0.00000  Uiso   1.00
H353   H     0.91710   0.86240   0.35495   0.00000  Uiso   1.00
H354   H     0.02696   0.90634   0.44489   0.00000  Uiso   1.00
H355   H     0.84545   0.93204   0.26129   0.00000  Uiso   1.00
H356   H     0.89793   0.74719   0.34514   0.00000  Uiso   1.00
H357   H     0.11868   0.95767   0.56587   0.00000  Uiso   1.00
H358   H     0.73595   0.01185   0.17872   0.00000  Uiso   1.00
H359   H     0.84661   0.62204   0.35554   0.00000  Uiso   1.00
O360   O     0.08756   0.99549   0.69817   0.00000  Uiso   1.00
O361   O     0.58543   0.06656   0.19025   0.00000  Uiso   1.00
O362   O     0.73061   0.55515   0.42222   0.00000  Uiso   1.00
N363   N     0.95190   0.96469   0.66086   0.00000  Uiso   1.00
N364   N     0.59408   0.01535   0.29891   0.00000  Uiso   1.00
N365   N     0.69752   0.65092   0.46420   0.00000  Uiso   1.00
N366   N     0.05866   0.95549   0.58533   0.00000  Uiso   1.00
N367   N     0.70084   0.00616   0.22338   0.00000  Uiso   1.00
N368   N     0.80428   0.64172   0.38867   0.00000  Uiso   1.00
