data_job_05168
_audit_creation_date              2018-12-19
_audit_creation_method            'Materials Studio'
_symmetry_space_group_name_H-M    'P1'
_symmetry_Int_Tables_number       1
_symmetry_cell_setting            triclinic
loop_
_symmetry_equiv_pos_as_xyz
  x,y,z
_cell_length_a                    14.5131
_cell_length_b                    14.5131
_cell_length_c                    10.2791
_cell_angle_alpha                 90.0000
_cell_angle_beta                  90.0000
_cell_angle_gamma                 90.0000
loop_
_atom_site_label
_atom_site_type_symbol
_atom_site_fract_x
_atom_site_fract_y
_atom_site_fract_z
_atom_site_U_iso_or_equiv
_atom_site_adp_type
_atom_site_occupancy
C1     C     0.07100   0.49781   0.02751   0.00000  Uiso   1.00
C2     C     0.06640   0.58698   0.94931   0.00000  Uiso   1.00
C3     C     0.98930   0.64268   0.93538   0.00000  Uiso   1.00
C4     C     0.99915   0.72136   0.85980   0.00000  Uiso   1.00
C5     C     0.97923   0.85643   0.74736   0.00000  Uiso   1.00
C6     C     0.10356   0.42369   0.93295   0.00000  Uiso   1.00
C7     C     0.05771   0.34209   0.90527   0.00000  Uiso   1.00
C8     C     0.09885   0.28330   0.81594   0.00000  Uiso   1.00
C9     C     0.13665   0.16483   0.67816   0.00000  Uiso   1.00
C10    C     0.14897   0.51063   0.12528   0.00000  Uiso   1.00
C11    C     0.14132   0.50211   0.25932   0.00000  Uiso   1.00
C12    C     0.22070   0.51650   0.33192   0.00000  Uiso   1.00
C13    C     0.32901   0.53302   0.49277   0.00000  Uiso   1.00
C14    C     0.22559   0.53849   0.91808   0.00000  Uiso   1.00
C15    C     0.15037   0.60907   0.88987   0.00000  Uiso   1.00
C16    C     0.16034   0.68769   0.81430   0.00000  Uiso   1.00
C17    C     0.08327   0.74349   0.80026   0.00000  Uiso   1.00
C18    C     0.18752   0.44578   0.87351   0.00000  Uiso   1.00
C19    C     0.22875   0.38710   0.78420   0.00000  Uiso   1.00
C20    C     0.18297   0.30544   0.75639   0.00000  Uiso   1.00
C21    C     0.23294   0.53273   0.06584   0.00000  Uiso   1.00
C22    C     0.31236   0.54712   0.13825   0.00000  Uiso   1.00
C23    C     0.30482   0.53863   0.27237   0.00000  Uiso   1.00
H24    H     0.00562   0.48061   0.07378   0.00000  Uiso   1.00
H25    H     0.92433   0.62555   0.98138   0.00000  Uiso   1.00
H26    H     0.99274   0.32501   0.95129   0.00000  Uiso   1.00
H27    H     0.07633   0.48501   0.30528   0.00000  Uiso   1.00
H28    H     0.87122   0.79598   0.85268   0.00000  Uiso   1.00
H29    H     0.01547   0.16226   0.78927   0.00000  Uiso   1.00
H30    H     0.19174   0.49965   0.53574   0.00000  Uiso   1.00
H31    H     0.29097   0.55569   0.87181   0.00000  Uiso   1.00
H32    H     0.22533   0.70477   0.76832   0.00000  Uiso   1.00
H33    H     0.29373   0.40422   0.73823   0.00000  Uiso   1.00
H34    H     0.37732   0.56422   0.09222   0.00000  Uiso   1.00
H35    H     0.11552   0.86027   0.67975   0.00000  Uiso   1.00
H36    H     0.25977   0.22654   0.61634   0.00000  Uiso   1.00
H37    H     0.43604   0.56393   0.36280   0.00000  Uiso   1.00
O38    O     0.94504   0.92482   0.70175   0.00000  Uiso   1.00
O39    O     0.13429   0.09339   0.61858   0.00000  Uiso   1.00
O40    O     0.36556   0.53604   0.59792   0.00000  Uiso   1.00
N41    N     0.93773   0.79067   0.82621   0.00000  Uiso   1.00
N42    N     0.07259   0.19817   0.76691   0.00000  Uiso   1.00
N43    N     0.23739   0.51358   0.46478   0.00000  Uiso   1.00
N44    N     0.06919   0.82526   0.73315   0.00000  Uiso   1.00
N45    N     0.20404   0.23277   0.67385   0.00000  Uiso   1.00
N46    N     0.36885   0.54817   0.37173   0.00000  Uiso   1.00
C47    C     0.92900   0.50219   0.52751   0.00000  Uiso   1.00
C48    C     0.93360   0.41302   0.44931   0.00000  Uiso   1.00
C49    C     0.01070   0.35732   0.43538   0.00000  Uiso   1.00
C50    C     0.00085   0.27864   0.35980   0.00000  Uiso   1.00
C51    C     0.02077   0.14357   0.24736   0.00000  Uiso   1.00
C52    C     0.89644   0.57631   0.43295   0.00000  Uiso   1.00
C53    C     0.94229   0.65791   0.40527   0.00000  Uiso   1.00
C54    C     0.90115   0.71670   0.31594   0.00000  Uiso   1.00
C55    C     0.86335   0.83517   0.17816   0.00000  Uiso   1.00
C56    C     0.85103   0.48937   0.62528   0.00000  Uiso   1.00
C57    C     0.85868   0.49789   0.75932   0.00000  Uiso   1.00
C58    C     0.77930   0.48350   0.83192   0.00000  Uiso   1.00
C59    C     0.67099   0.46698   0.99277   0.00000  Uiso   1.00
C60    C     0.77441   0.46151   0.41808   0.00000  Uiso   1.00
C61    C     0.84963   0.39093   0.38987   0.00000  Uiso   1.00
C62    C     0.83966   0.31231   0.31430   0.00000  Uiso   1.00
C63    C     0.91673   0.25651   0.30026   0.00000  Uiso   1.00
C64    C     0.81248   0.55422   0.37351   0.00000  Uiso   1.00
C65    C     0.77125   0.61290   0.28420   0.00000  Uiso   1.00
C66    C     0.81703   0.69456   0.25639   0.00000  Uiso   1.00
C67    C     0.76706   0.46727   0.56584   0.00000  Uiso   1.00
C68    C     0.68764   0.45288   0.63825   0.00000  Uiso   1.00
C69    C     0.69518   0.46137   0.77237   0.00000  Uiso   1.00
H70    H     0.99438   0.51939   0.57378   0.00000  Uiso   1.00
H71    H     0.07567   0.37445   0.48138   0.00000  Uiso   1.00
H72    H     0.00726   0.67499   0.45129   0.00000  Uiso   1.00
H73    H     0.92367   0.51499   0.80528   0.00000  Uiso   1.00
H74    H     0.12878   0.20402   0.35268   0.00000  Uiso   1.00
H75    H     0.98453   0.83774   0.28927   0.00000  Uiso   1.00
H76    H     0.80826   0.50035   0.03574   0.00000  Uiso   1.00
H77    H     0.70903   0.44431   0.37181   0.00000  Uiso   1.00
H78    H     0.77467   0.29523   0.26832   0.00000  Uiso   1.00
H79    H     0.70627   0.59578   0.23823   0.00000  Uiso   1.00
H80    H     0.62268   0.43578   0.59222   0.00000  Uiso   1.00
H81    H     0.88448   0.13973   0.17975   0.00000  Uiso   1.00
H82    H     0.74023   0.77346   0.11634   0.00000  Uiso   1.00
H83    H     0.56396   0.43607   0.86280   0.00000  Uiso   1.00
O84    O     0.05496   0.07518   0.20175   0.00000  Uiso   1.00
O85    O     0.86571   0.90661   0.11858   0.00000  Uiso   1.00
O86    O     0.63444   0.46396   0.09792   0.00000  Uiso   1.00
N87    N     0.06227   0.20933   0.32621   0.00000  Uiso   1.00
N88    N     0.92741   0.80183   0.26691   0.00000  Uiso   1.00
N89    N     0.76261   0.48642   0.96478   0.00000  Uiso   1.00
N90    N     0.93081   0.17474   0.23315   0.00000  Uiso   1.00
N91    N     0.79596   0.76723   0.17385   0.00000  Uiso   1.00
N92    N     0.63115   0.45183   0.87173   0.00000  Uiso   1.00
C93    C     0.50219   0.07100   0.27751   0.00000  Uiso   1.00
C94    C     0.41302   0.06640   0.19931   0.00000  Uiso   1.00
C95    C     0.35732   0.98930   0.18538   0.00000  Uiso   1.00
C96    C     0.27864   0.99915   0.10980   0.00000  Uiso   1.00
C97    C     0.14357   0.97923   0.99736   0.00000  Uiso   1.00
C98    C     0.57631   0.10356   0.18295   0.00000  Uiso   1.00
C99    C     0.65791   0.05771   0.15527   0.00000  Uiso   1.00
C100   C     0.71670   0.09885   0.06594   0.00000  Uiso   1.00
C101   C     0.83517   0.13665   0.92816   0.00000  Uiso   1.00
C102   C     0.48937   0.14897   0.37528   0.00000  Uiso   1.00
C103   C     0.49789   0.14132   0.50932   0.00000  Uiso   1.00
C104   C     0.48350   0.22070   0.58192   0.00000  Uiso   1.00
C105   C     0.46698   0.32901   0.74277   0.00000  Uiso   1.00
C106   C     0.46151   0.22559   0.16808   0.00000  Uiso   1.00
C107   C     0.39093   0.15037   0.13987   0.00000  Uiso   1.00
C108   C     0.31231   0.16034   0.06430   0.00000  Uiso   1.00
C109   C     0.25651   0.08327   0.05026   0.00000  Uiso   1.00
C110   C     0.55422   0.18752   0.12351   0.00000  Uiso   1.00
C111   C     0.61290   0.22875   0.03420   0.00000  Uiso   1.00
C112   C     0.69456   0.18297   0.00639   0.00000  Uiso   1.00
C113   C     0.46727   0.23294   0.31584   0.00000  Uiso   1.00
C114   C     0.45288   0.31236   0.38825   0.00000  Uiso   1.00
C115   C     0.46137   0.30482   0.52237   0.00000  Uiso   1.00
H116   H     0.51939   0.00562   0.32378   0.00000  Uiso   1.00
H117   H     0.37445   0.92433   0.23138   0.00000  Uiso   1.00
H118   H     0.67499   0.99274   0.20129   0.00000  Uiso   1.00
H119   H     0.51499   0.07633   0.55528   0.00000  Uiso   1.00
H120   H     0.20402   0.87122   0.10268   0.00000  Uiso   1.00
H121   H     0.83774   0.01547   0.03927   0.00000  Uiso   1.00
H122   H     0.50035   0.19174   0.78574   0.00000  Uiso   1.00
H123   H     0.44431   0.29097   0.12181   0.00000  Uiso   1.00
H124   H     0.29523   0.22533   0.01832   0.00000  Uiso   1.00
H125   H     0.59578   0.29373   0.98823   0.00000  Uiso   1.00
H126   H     0.43578   0.37732   0.34222   0.00000  Uiso   1.00
H127   H     0.13973   0.11552   0.92975   0.00000  Uiso   1.00
H128   H     0.77346   0.25977   0.86634   0.00000  Uiso   1.00
H129   H     0.43607   0.43604   0.61280   0.00000  Uiso   1.00
O130   O     0.07518   0.94504   0.95175   0.00000  Uiso   1.00
O131   O     0.90661   0.13429   0.86858   0.00000  Uiso   1.00
O132   O     0.46396   0.36556   0.84792   0.00000  Uiso   1.00
N133   N     0.20933   0.93773   0.07621   0.00000  Uiso   1.00
N134   N     0.80183   0.07259   0.01691   0.00000  Uiso   1.00
N135   N     0.48642   0.23739   0.71478   0.00000  Uiso   1.00
N136   N     0.17474   0.06919   0.98315   0.00000  Uiso   1.00
N137   N     0.76723   0.20404   0.92385   0.00000  Uiso   1.00
N138   N     0.45183   0.36885   0.62173   0.00000  Uiso   1.00
C139   C     0.49781   0.92900   0.77751   0.00000  Uiso   1.00
C140   C     0.58698   0.93360   0.69931   0.00000  Uiso   1.00
C141   C     0.64268   0.01070   0.68538   0.00000  Uiso   1.00
C142   C     0.72136   0.00085   0.60980   0.00000  Uiso   1.00
C143   C     0.85643   0.02077   0.49736   0.00000  Uiso   1.00
C144   C     0.42369   0.89644   0.68295   0.00000  Uiso   1.00
C145   C     0.34209   0.94229   0.65527   0.00000  Uiso   1.00
C146   C     0.28330   0.90115   0.56594   0.00000  Uiso   1.00
C147   C     0.16483   0.86335   0.42816   0.00000  Uiso   1.00
C148   C     0.51063   0.85103   0.87528   0.00000  Uiso   1.00
C149   C     0.50211   0.85868   0.00932   0.00000  Uiso   1.00
C150   C     0.51650   0.77930   0.08192   0.00000  Uiso   1.00
C151   C     0.53302   0.67099   0.24277   0.00000  Uiso   1.00
C152   C     0.53849   0.77441   0.66808   0.00000  Uiso   1.00
C153   C     0.60907   0.84963   0.63987   0.00000  Uiso   1.00
C154   C     0.68769   0.83966   0.56430   0.00000  Uiso   1.00
C155   C     0.74349   0.91673   0.55026   0.00000  Uiso   1.00
C156   C     0.44578   0.81248   0.62351   0.00000  Uiso   1.00
C157   C     0.38710   0.77125   0.53420   0.00000  Uiso   1.00
C158   C     0.30544   0.81703   0.50639   0.00000  Uiso   1.00
C159   C     0.53273   0.76706   0.81584   0.00000  Uiso   1.00
C160   C     0.54712   0.68764   0.88825   0.00000  Uiso   1.00
C161   C     0.53863   0.69518   0.02237   0.00000  Uiso   1.00
H162   H     0.48061   0.99438   0.82378   0.00000  Uiso   1.00
H163   H     0.62555   0.07567   0.73138   0.00000  Uiso   1.00
H164   H     0.32501   0.00726   0.70129   0.00000  Uiso   1.00
H165   H     0.48501   0.92367   0.05528   0.00000  Uiso   1.00
H166   H     0.79598   0.12878   0.60268   0.00000  Uiso   1.00
H167   H     0.16226   0.98453   0.53927   0.00000  Uiso   1.00
H168   H     0.49965   0.80826   0.28574   0.00000  Uiso   1.00
H169   H     0.55569   0.70903   0.62181   0.00000  Uiso   1.00
H170   H     0.70477   0.77467   0.51832   0.00000  Uiso   1.00
H171   H     0.40422   0.70627   0.48823   0.00000  Uiso   1.00
H172   H     0.56422   0.62268   0.84222   0.00000  Uiso   1.00
H173   H     0.86027   0.88448   0.42975   0.00000  Uiso   1.00
H174   H     0.22654   0.74023   0.36634   0.00000  Uiso   1.00
H175   H     0.56393   0.56396   0.11280   0.00000  Uiso   1.00
O176   O     0.92482   0.05496   0.45175   0.00000  Uiso   1.00
O177   O     0.09339   0.86571   0.36858   0.00000  Uiso   1.00
O178   O     0.53604   0.63444   0.34792   0.00000  Uiso   1.00
N179   N     0.79067   0.06227   0.57621   0.00000  Uiso   1.00
N180   N     0.19817   0.92741   0.51691   0.00000  Uiso   1.00
N181   N     0.51358   0.76261   0.21478   0.00000  Uiso   1.00
N182   N     0.82526   0.93081   0.48315   0.00000  Uiso   1.00
N183   N     0.23277   0.79596   0.42385   0.00000  Uiso   1.00
N184   N     0.54817   0.63115   0.12173   0.00000  Uiso   1.00
