data_job_03452
_audit_creation_date              2018-12-19
_audit_creation_method            'Materials Studio'
_symmetry_space_group_name_H-M    'P1'
_symmetry_Int_Tables_number       1
_symmetry_cell_setting            triclinic
loop_
_symmetry_equiv_pos_as_xyz
  x,y,z
_cell_length_a                    20.5659
_cell_length_b                    17.5339
_cell_length_c                    16.2453
_cell_angle_alpha                 90.0000
_cell_angle_beta                  90.0000
_cell_angle_gamma                 90.0000
loop_
_atom_site_label
_atom_site_type_symbol
_atom_site_fract_x
_atom_site_fract_y
_atom_site_fract_z
_atom_site_U_iso_or_equiv
_atom_site_adp_type
_atom_site_occupancy
C1     C     0.52360   0.89462   0.20943   0.00000  Uiso   1.00
C2     C     0.52974   0.88437   0.30232   0.00000  Uiso   1.00
C3     C     0.57491   0.83852   0.34207   0.00000  Uiso   1.00
C4     C     0.57257   0.83687   0.42746   0.00000  Uiso   1.00
C5     C     0.58906   0.81444   0.56500   0.00000  Uiso   1.00
C6     C     0.45377   0.87327   0.18789   0.00000  Uiso   1.00
C7     C     0.43505   0.81809   0.13141   0.00000  Uiso   1.00
C8     C     0.36875   0.80710   0.12046   0.00000  Uiso   1.00
C9     C     0.26729   0.76748   0.08030   0.00000  Uiso   1.00
C10    C     0.52941   0.98006   0.19358   0.00000  Uiso   1.00
C11    C     0.57429   0.01468   0.14187   0.00000  Uiso   1.00
C12    C     0.57168   0.09360   0.13570   0.00000  Uiso   1.00
C13    C     0.58767   0.21978   0.10438   0.00000  Uiso   1.00
C14    C     0.43914   0.97322   0.29042   0.00000  Uiso   1.00
C15    C     0.48386   0.92707   0.34631   0.00000  Uiso   1.00
C16    C     0.48146   0.92549   0.43167   0.00000  Uiso   1.00
C17    C     0.52661   0.87964   0.47153   0.00000  Uiso   1.00
C18    C     0.40789   0.91596   0.23187   0.00000  Uiso   1.00
C19    C     0.34160   0.90506   0.22101   0.00000  Uiso   1.00
C20    C     0.32279   0.84987   0.16453   0.00000  Uiso   1.00
C21    C     0.48354   0.02276   0.23757   0.00000  Uiso   1.00
C22    C     0.48085   0.10164   0.23148   0.00000  Uiso   1.00
C23    C     0.52572   0.13637   0.17977   0.00000  Uiso   1.00
H24    H     0.55932   0.86138   0.17518   0.00000  Uiso   1.00
H25    H     0.61040   0.80549   0.30800   0.00000  Uiso   1.00
H26    H     0.47057   0.78507   0.09737   0.00000  Uiso   1.00
H27    H     0.60979   0.98162   0.10784   0.00000  Uiso   1.00
H28    H     0.64679   0.76233   0.47465   0.00000  Uiso   1.00
H29    H     0.35194   0.71929   0.03050   0.00000  Uiso   1.00
H30    H     0.64552   0.13377   0.05257   0.00000  Uiso   1.00
H31    H     0.40342   0.00646   0.32466   0.00000  Uiso   1.00
H32    H     0.44595   0.95853   0.46569   0.00000  Uiso   1.00
H33    H     0.30612   0.93811   0.25505   0.00000  Uiso   1.00
H34    H     0.44534   0.13466   0.26552   0.00000  Uiso   1.00
H35    H     0.51331   0.88654   0.60264   0.00000  Uiso   1.00
H36    H     0.21846   0.84351   0.15848   0.00000  Uiso   1.00
H37    H     0.51204   0.25798   0.18056   0.00000  Uiso   1.00
O38    O     0.61083   0.79026   0.62872   0.00000  Uiso   1.00
O39    O     0.22400   0.73382   0.04600   0.00000  Uiso   1.00
O40    O     0.60917   0.27759   0.07496   0.00000  Uiso   1.00
N41    N     0.60955   0.79815   0.48542   0.00000  Uiso   1.00
N42    N     0.33388   0.75791   0.07018   0.00000  Uiso   1.00
N43    N     0.60834   0.14540   0.09079   0.00000  Uiso   1.00
N44    N     0.53772   0.86499   0.55429   0.00000  Uiso   1.00
N45    N     0.26206   0.82474   0.13904   0.00000  Uiso   1.00
N46    N     0.53652   0.21224   0.15966   0.00000  Uiso   1.00
C47    C     0.97640   0.10538   0.70943   0.00000  Uiso   1.00
C48    C     0.97026   0.11563   0.80232   0.00000  Uiso   1.00
C49    C     0.92509   0.16148   0.84207   0.00000  Uiso   1.00
C50    C     0.92743   0.16313   0.92746   0.00000  Uiso   1.00
C51    C     0.91094   0.18556   0.06500   0.00000  Uiso   1.00
C52    C     0.04623   0.12673   0.68789   0.00000  Uiso   1.00
C53    C     0.06495   0.18191   0.63141   0.00000  Uiso   1.00
C54    C     0.13125   0.19290   0.62046   0.00000  Uiso   1.00
C55    C     0.23271   0.23252   0.58030   0.00000  Uiso   1.00
C56    C     0.97059   0.01994   0.69358   0.00000  Uiso   1.00
C57    C     0.92571   0.98532   0.64187   0.00000  Uiso   1.00
C58    C     0.92832   0.90640   0.63570   0.00000  Uiso   1.00
C59    C     0.91233   0.78022   0.60438   0.00000  Uiso   1.00
C60    C     0.06086   0.02678   0.79042   0.00000  Uiso   1.00
C61    C     0.01614   0.07293   0.84631   0.00000  Uiso   1.00
C62    C     0.01854   0.07451   0.93167   0.00000  Uiso   1.00
C63    C     0.97339   0.12036   0.97153   0.00000  Uiso   1.00
C64    C     0.09211   0.08404   0.73187   0.00000  Uiso   1.00
C65    C     0.15840   0.09494   0.72101   0.00000  Uiso   1.00
C66    C     0.17721   0.15013   0.66453   0.00000  Uiso   1.00
C67    C     0.01646   0.97724   0.73757   0.00000  Uiso   1.00
C68    C     0.01915   0.89836   0.73148   0.00000  Uiso   1.00
C69    C     0.97428   0.86363   0.67977   0.00000  Uiso   1.00
H70    H     0.94068   0.13862   0.67518   0.00000  Uiso   1.00
H71    H     0.88960   0.19451   0.80800   0.00000  Uiso   1.00
H72    H     0.02943   0.21493   0.59737   0.00000  Uiso   1.00
H73    H     0.89021   0.01838   0.60784   0.00000  Uiso   1.00
H74    H     0.85321   0.23767   0.97465   0.00000  Uiso   1.00
H75    H     0.14806   0.28071   0.53050   0.00000  Uiso   1.00
H76    H     0.85448   0.86623   0.55257   0.00000  Uiso   1.00
H77    H     0.09658   0.99354   0.82466   0.00000  Uiso   1.00
H78    H     0.05405   0.04147   0.96569   0.00000  Uiso   1.00
H79    H     0.19388   0.06189   0.75505   0.00000  Uiso   1.00
H80    H     0.05466   0.86534   0.76552   0.00000  Uiso   1.00
H81    H     0.98669   0.11346   0.10264   0.00000  Uiso   1.00
H82    H     0.28154   0.15649   0.65848   0.00000  Uiso   1.00
H83    H     0.98796   0.74202   0.68056   0.00000  Uiso   1.00
O84    O     0.88917   0.20974   0.12872   0.00000  Uiso   1.00
O85    O     0.27600   0.26618   0.54600   0.00000  Uiso   1.00
O86    O     0.89083   0.72241   0.57496   0.00000  Uiso   1.00
N87    N     0.89045   0.20185   0.98542   0.00000  Uiso   1.00
N88    N     0.16612   0.24209   0.57018   0.00000  Uiso   1.00
N89    N     0.89166   0.85460   0.59079   0.00000  Uiso   1.00
N90    N     0.96228   0.13501   0.05429   0.00000  Uiso   1.00
N91    N     0.23794   0.17526   0.63904   0.00000  Uiso   1.00
N92    N     0.96348   0.78776   0.65966   0.00000  Uiso   1.00
C93    C     0.47640   0.39462   0.29057   0.00000  Uiso   1.00
C94    C     0.47026   0.38437   0.19768   0.00000  Uiso   1.00
C95    C     0.42509   0.33852   0.15793   0.00000  Uiso   1.00
C96    C     0.42743   0.33687   0.07254   0.00000  Uiso   1.00
C97    C     0.41094   0.31444   0.93500   0.00000  Uiso   1.00
C98    C     0.54623   0.37327   0.31211   0.00000  Uiso   1.00
C99    C     0.56495   0.31809   0.36859   0.00000  Uiso   1.00
C100   C     0.63125   0.30710   0.37954   0.00000  Uiso   1.00
C101   C     0.73271   0.26748   0.41970   0.00000  Uiso   1.00
C102   C     0.47059   0.48006   0.30642   0.00000  Uiso   1.00
C103   C     0.42571   0.51468   0.35813   0.00000  Uiso   1.00
C104   C     0.42832   0.59360   0.36430   0.00000  Uiso   1.00
C105   C     0.41233   0.71978   0.39562   0.00000  Uiso   1.00
C106   C     0.56086   0.47322   0.20958   0.00000  Uiso   1.00
C107   C     0.51614   0.42707   0.15369   0.00000  Uiso   1.00
C108   C     0.51854   0.42549   0.06833   0.00000  Uiso   1.00
C109   C     0.47339   0.37964   0.02847   0.00000  Uiso   1.00
C110   C     0.59211   0.41596   0.26813   0.00000  Uiso   1.00
C111   C     0.65840   0.40506   0.27899   0.00000  Uiso   1.00
C112   C     0.67721   0.34987   0.33547   0.00000  Uiso   1.00
C113   C     0.51646   0.52276   0.26243   0.00000  Uiso   1.00
C114   C     0.51915   0.60164   0.26852   0.00000  Uiso   1.00
C115   C     0.47428   0.63637   0.32023   0.00000  Uiso   1.00
H116   H     0.44068   0.36138   0.32482   0.00000  Uiso   1.00
H117   H     0.38960   0.30549   0.19200   0.00000  Uiso   1.00
H118   H     0.52943   0.28507   0.40263   0.00000  Uiso   1.00
H119   H     0.39021   0.48162   0.39216   0.00000  Uiso   1.00
H120   H     0.35321   0.26233   0.02535   0.00000  Uiso   1.00
H121   H     0.64806   0.21929   0.46950   0.00000  Uiso   1.00
H122   H     0.35448   0.63377   0.44743   0.00000  Uiso   1.00
H123   H     0.59658   0.50646   0.17534   0.00000  Uiso   1.00
H124   H     0.55405   0.45853   0.03431   0.00000  Uiso   1.00
H125   H     0.69388   0.43811   0.24495   0.00000  Uiso   1.00
H126   H     0.55466   0.63466   0.23448   0.00000  Uiso   1.00
H127   H     0.48669   0.38654   0.89736   0.00000  Uiso   1.00
H128   H     0.78154   0.34351   0.34152   0.00000  Uiso   1.00
H129   H     0.48796   0.75798   0.31944   0.00000  Uiso   1.00
O130   O     0.38917   0.29026   0.87128   0.00000  Uiso   1.00
O131   O     0.77600   0.23382   0.45400   0.00000  Uiso   1.00
O132   O     0.39083   0.77759   0.42504   0.00000  Uiso   1.00
N133   N     0.39045   0.29815   0.01458   0.00000  Uiso   1.00
N134   N     0.66612   0.25791   0.42982   0.00000  Uiso   1.00
N135   N     0.39166   0.64540   0.40921   0.00000  Uiso   1.00
N136   N     0.46228   0.36499   0.94571   0.00000  Uiso   1.00
N137   N     0.73794   0.32474   0.36096   0.00000  Uiso   1.00
N138   N     0.46348   0.71224   0.34034   0.00000  Uiso   1.00
C139   C     0.02360   0.60538   0.79057   0.00000  Uiso   1.00
C140   C     0.02974   0.61563   0.69768   0.00000  Uiso   1.00
C141   C     0.07491   0.66148   0.65793   0.00000  Uiso   1.00
C142   C     0.07257   0.66313   0.57254   0.00000  Uiso   1.00
C143   C     0.08906   0.68556   0.43500   0.00000  Uiso   1.00
C144   C     0.95377   0.62673   0.81211   0.00000  Uiso   1.00
C145   C     0.93505   0.68191   0.86859   0.00000  Uiso   1.00
C146   C     0.86875   0.69290   0.87954   0.00000  Uiso   1.00
C147   C     0.76729   0.73252   0.91970   0.00000  Uiso   1.00
C148   C     0.02941   0.51994   0.80642   0.00000  Uiso   1.00
C149   C     0.07429   0.48532   0.85813   0.00000  Uiso   1.00
C150   C     0.07168   0.40640   0.86430   0.00000  Uiso   1.00
C151   C     0.08767   0.28022   0.89562   0.00000  Uiso   1.00
C152   C     0.93914   0.52678   0.70958   0.00000  Uiso   1.00
C153   C     0.98386   0.57293   0.65369   0.00000  Uiso   1.00
C154   C     0.98146   0.57451   0.56833   0.00000  Uiso   1.00
C155   C     0.02661   0.62036   0.52847   0.00000  Uiso   1.00
C156   C     0.90789   0.58404   0.76813   0.00000  Uiso   1.00
C157   C     0.84160   0.59494   0.77899   0.00000  Uiso   1.00
C158   C     0.82279   0.65013   0.83547   0.00000  Uiso   1.00
C159   C     0.98354   0.47724   0.76243   0.00000  Uiso   1.00
C160   C     0.98085   0.39836   0.76852   0.00000  Uiso   1.00
C161   C     0.02572   0.36363   0.82023   0.00000  Uiso   1.00
H162   H     0.05932   0.63862   0.82482   0.00000  Uiso   1.00
H163   H     0.11040   0.69451   0.69200   0.00000  Uiso   1.00
H164   H     0.97057   0.71493   0.90263   0.00000  Uiso   1.00
H165   H     0.10979   0.51838   0.89216   0.00000  Uiso   1.00
H166   H     0.14679   0.73767   0.52535   0.00000  Uiso   1.00
H167   H     0.85194   0.78071   0.96950   0.00000  Uiso   1.00
H168   H     0.14552   0.36623   0.94743   0.00000  Uiso   1.00
H169   H     0.90342   0.49354   0.67534   0.00000  Uiso   1.00
H170   H     0.94595   0.54147   0.53431   0.00000  Uiso   1.00
H171   H     0.80612   0.56189   0.74495   0.00000  Uiso   1.00
H172   H     0.94534   0.36534   0.73448   0.00000  Uiso   1.00
H173   H     0.01331   0.61346   0.39736   0.00000  Uiso   1.00
H174   H     0.71846   0.65649   0.84152   0.00000  Uiso   1.00
H175   H     0.01204   0.24202   0.81944   0.00000  Uiso   1.00
O176   O     0.11083   0.70974   0.37128   0.00000  Uiso   1.00
O177   O     0.72400   0.76618   0.95400   0.00000  Uiso   1.00
O178   O     0.10917   0.22241   0.92504   0.00000  Uiso   1.00
N179   N     0.10955   0.70185   0.51458   0.00000  Uiso   1.00
N180   N     0.83388   0.74209   0.92982   0.00000  Uiso   1.00
N181   N     0.10834   0.35460   0.90921   0.00000  Uiso   1.00
N182   N     0.03772   0.63501   0.44571   0.00000  Uiso   1.00
N183   N     0.76206   0.67526   0.86096   0.00000  Uiso   1.00
N184   N     0.03652   0.28776   0.84034   0.00000  Uiso   1.00
C185   C     0.47640   0.10538   0.79057   0.00000  Uiso   1.00
C186   C     0.47026   0.11563   0.69768   0.00000  Uiso   1.00
C187   C     0.42509   0.16148   0.65793   0.00000  Uiso   1.00
C188   C     0.42743   0.16313   0.57254   0.00000  Uiso   1.00
C189   C     0.41094   0.18556   0.43500   0.00000  Uiso   1.00
C190   C     0.54623   0.12673   0.81211   0.00000  Uiso   1.00
C191   C     0.56495   0.18191   0.86859   0.00000  Uiso   1.00
C192   C     0.63125   0.19290   0.87954   0.00000  Uiso   1.00
C193   C     0.73271   0.23252   0.91970   0.00000  Uiso   1.00
C194   C     0.47059   0.01994   0.80642   0.00000  Uiso   1.00
C195   C     0.42571   0.98532   0.85813   0.00000  Uiso   1.00
C196   C     0.42832   0.90640   0.86430   0.00000  Uiso   1.00
C197   C     0.41233   0.78022   0.89562   0.00000  Uiso   1.00
C198   C     0.56086   0.02678   0.70958   0.00000  Uiso   1.00
C199   C     0.51614   0.07293   0.65369   0.00000  Uiso   1.00
C200   C     0.51854   0.07451   0.56833   0.00000  Uiso   1.00
C201   C     0.47339   0.12036   0.52847   0.00000  Uiso   1.00
C202   C     0.59211   0.08404   0.76813   0.00000  Uiso   1.00
C203   C     0.65840   0.09494   0.77899   0.00000  Uiso   1.00
C204   C     0.67721   0.15013   0.83547   0.00000  Uiso   1.00
C205   C     0.51646   0.97724   0.76243   0.00000  Uiso   1.00
C206   C     0.51915   0.89836   0.76852   0.00000  Uiso   1.00
C207   C     0.47428   0.86363   0.82023   0.00000  Uiso   1.00
H208   H     0.44068   0.13862   0.82482   0.00000  Uiso   1.00
H209   H     0.38960   0.19451   0.69200   0.00000  Uiso   1.00
H210   H     0.52943   0.21493   0.90263   0.00000  Uiso   1.00
H211   H     0.39021   0.01838   0.89216   0.00000  Uiso   1.00
H212   H     0.35321   0.23767   0.52535   0.00000  Uiso   1.00
H213   H     0.64806   0.28071   0.96950   0.00000  Uiso   1.00
H214   H     0.35448   0.86623   0.94743   0.00000  Uiso   1.00
H215   H     0.59658   0.99354   0.67534   0.00000  Uiso   1.00
H216   H     0.55405   0.04147   0.53431   0.00000  Uiso   1.00
H217   H     0.69388   0.06189   0.74495   0.00000  Uiso   1.00
H218   H     0.55466   0.86534   0.73448   0.00000  Uiso   1.00
H219   H     0.48669   0.11346   0.39736   0.00000  Uiso   1.00
H220   H     0.78154   0.15649   0.84152   0.00000  Uiso   1.00
H221   H     0.48796   0.74202   0.81944   0.00000  Uiso   1.00
O222   O     0.38917   0.20974   0.37128   0.00000  Uiso   1.00
O223   O     0.77600   0.26618   0.95400   0.00000  Uiso   1.00
O224   O     0.39083   0.72241   0.92504   0.00000  Uiso   1.00
N225   N     0.39045   0.20185   0.51458   0.00000  Uiso   1.00
N226   N     0.66612   0.24209   0.92982   0.00000  Uiso   1.00
N227   N     0.39166   0.85460   0.90921   0.00000  Uiso   1.00
N228   N     0.46228   0.13501   0.44571   0.00000  Uiso   1.00
N229   N     0.73794   0.17526   0.86096   0.00000  Uiso   1.00
N230   N     0.46348   0.78776   0.84034   0.00000  Uiso   1.00
C231   C     0.02360   0.89462   0.29057   0.00000  Uiso   1.00
C232   C     0.02974   0.88437   0.19768   0.00000  Uiso   1.00
C233   C     0.07491   0.83852   0.15793   0.00000  Uiso   1.00
C234   C     0.07257   0.83687   0.07254   0.00000  Uiso   1.00
C235   C     0.08906   0.81444   0.93500   0.00000  Uiso   1.00
C236   C     0.95377   0.87327   0.31211   0.00000  Uiso   1.00
C237   C     0.93505   0.81809   0.36859   0.00000  Uiso   1.00
C238   C     0.86875   0.80710   0.37954   0.00000  Uiso   1.00
C239   C     0.76729   0.76748   0.41970   0.00000  Uiso   1.00
C240   C     0.02941   0.98006   0.30642   0.00000  Uiso   1.00
C241   C     0.07429   0.01468   0.35813   0.00000  Uiso   1.00
C242   C     0.07168   0.09360   0.36430   0.00000  Uiso   1.00
C243   C     0.08767   0.21978   0.39562   0.00000  Uiso   1.00
C244   C     0.93914   0.97322   0.20958   0.00000  Uiso   1.00
C245   C     0.98386   0.92707   0.15369   0.00000  Uiso   1.00
C246   C     0.98146   0.92549   0.06833   0.00000  Uiso   1.00
C247   C     0.02661   0.87964   0.02847   0.00000  Uiso   1.00
C248   C     0.90789   0.91596   0.26813   0.00000  Uiso   1.00
C249   C     0.84160   0.90506   0.27899   0.00000  Uiso   1.00
C250   C     0.82279   0.84987   0.33547   0.00000  Uiso   1.00
C251   C     0.98354   0.02276   0.26243   0.00000  Uiso   1.00
C252   C     0.98085   0.10164   0.26852   0.00000  Uiso   1.00
C253   C     0.02572   0.13637   0.32023   0.00000  Uiso   1.00
H254   H     0.05932   0.86138   0.32482   0.00000  Uiso   1.00
H255   H     0.11040   0.80549   0.19200   0.00000  Uiso   1.00
H256   H     0.97057   0.78507   0.40263   0.00000  Uiso   1.00
H257   H     0.10979   0.98162   0.39216   0.00000  Uiso   1.00
H258   H     0.14679   0.76233   0.02535   0.00000  Uiso   1.00
H259   H     0.85194   0.71929   0.46950   0.00000  Uiso   1.00
H260   H     0.14552   0.13377   0.44743   0.00000  Uiso   1.00
H261   H     0.90342   0.00646   0.17534   0.00000  Uiso   1.00
H262   H     0.94595   0.95853   0.03431   0.00000  Uiso   1.00
H263   H     0.80612   0.93811   0.24495   0.00000  Uiso   1.00
H264   H     0.94534   0.13466   0.23448   0.00000  Uiso   1.00
H265   H     0.01331   0.88654   0.89736   0.00000  Uiso   1.00
H266   H     0.71846   0.84351   0.34152   0.00000  Uiso   1.00
H267   H     0.01204   0.25798   0.31944   0.00000  Uiso   1.00
O268   O     0.11083   0.79026   0.87128   0.00000  Uiso   1.00
O269   O     0.72400   0.73382   0.45400   0.00000  Uiso   1.00
O270   O     0.10917   0.27759   0.42504   0.00000  Uiso   1.00
N271   N     0.10955   0.79815   0.01458   0.00000  Uiso   1.00
N272   N     0.83388   0.75791   0.42982   0.00000  Uiso   1.00
N273   N     0.10834   0.14540   0.40921   0.00000  Uiso   1.00
N274   N     0.03772   0.86499   0.94571   0.00000  Uiso   1.00
N275   N     0.76206   0.82474   0.36096   0.00000  Uiso   1.00
N276   N     0.03652   0.21224   0.34034   0.00000  Uiso   1.00
C277   C     0.52360   0.60538   0.70943   0.00000  Uiso   1.00
C278   C     0.52974   0.61563   0.80232   0.00000  Uiso   1.00
C279   C     0.57491   0.66148   0.84207   0.00000  Uiso   1.00
C280   C     0.57257   0.66313   0.92746   0.00000  Uiso   1.00
C281   C     0.58906   0.68556   0.06500   0.00000  Uiso   1.00
C282   C     0.45377   0.62673   0.68789   0.00000  Uiso   1.00
C283   C     0.43505   0.68191   0.63141   0.00000  Uiso   1.00
C284   C     0.36875   0.69290   0.62046   0.00000  Uiso   1.00
C285   C     0.26729   0.73252   0.58030   0.00000  Uiso   1.00
C286   C     0.52941   0.51994   0.69358   0.00000  Uiso   1.00
C287   C     0.57429   0.48532   0.64187   0.00000  Uiso   1.00
C288   C     0.57168   0.40640   0.63570   0.00000  Uiso   1.00
C289   C     0.58767   0.28022   0.60438   0.00000  Uiso   1.00
C290   C     0.43914   0.52678   0.79042   0.00000  Uiso   1.00
C291   C     0.48386   0.57293   0.84631   0.00000  Uiso   1.00
C292   C     0.48146   0.57451   0.93167   0.00000  Uiso   1.00
C293   C     0.52661   0.62036   0.97153   0.00000  Uiso   1.00
C294   C     0.40789   0.58404   0.73187   0.00000  Uiso   1.00
C295   C     0.34160   0.59494   0.72101   0.00000  Uiso   1.00
C296   C     0.32279   0.65013   0.66453   0.00000  Uiso   1.00
C297   C     0.48354   0.47724   0.73757   0.00000  Uiso   1.00
C298   C     0.48085   0.39836   0.73148   0.00000  Uiso   1.00
C299   C     0.52572   0.36363   0.67977   0.00000  Uiso   1.00
H300   H     0.55932   0.63862   0.67518   0.00000  Uiso   1.00
H301   H     0.61040   0.69451   0.80800   0.00000  Uiso   1.00
H302   H     0.47057   0.71493   0.59737   0.00000  Uiso   1.00
H303   H     0.60979   0.51838   0.60784   0.00000  Uiso   1.00
H304   H     0.64679   0.73767   0.97465   0.00000  Uiso   1.00
H305   H     0.35194   0.78071   0.53050   0.00000  Uiso   1.00
H306   H     0.64552   0.36623   0.55257   0.00000  Uiso   1.00
H307   H     0.40342   0.49354   0.82466   0.00000  Uiso   1.00
H308   H     0.44595   0.54147   0.96569   0.00000  Uiso   1.00
H309   H     0.30612   0.56189   0.75505   0.00000  Uiso   1.00
H310   H     0.44534   0.36534   0.76552   0.00000  Uiso   1.00
H311   H     0.51331   0.61346   0.10264   0.00000  Uiso   1.00
H312   H     0.21846   0.65649   0.65848   0.00000  Uiso   1.00
H313   H     0.51204   0.24202   0.68056   0.00000  Uiso   1.00
O314   O     0.61083   0.70974   0.12872   0.00000  Uiso   1.00
O315   O     0.22400   0.76618   0.54600   0.00000  Uiso   1.00
O316   O     0.60917   0.22241   0.57496   0.00000  Uiso   1.00
N317   N     0.60955   0.70185   0.98542   0.00000  Uiso   1.00
N318   N     0.33388   0.74209   0.57018   0.00000  Uiso   1.00
N319   N     0.60834   0.35460   0.59079   0.00000  Uiso   1.00
N320   N     0.53772   0.63501   0.05429   0.00000  Uiso   1.00
N321   N     0.26206   0.67526   0.63904   0.00000  Uiso   1.00
N322   N     0.53652   0.28776   0.65966   0.00000  Uiso   1.00
C323   C     0.97640   0.39462   0.20943   0.00000  Uiso   1.00
C324   C     0.97026   0.38437   0.30232   0.00000  Uiso   1.00
C325   C     0.92509   0.33852   0.34207   0.00000  Uiso   1.00
C326   C     0.92743   0.33687   0.42746   0.00000  Uiso   1.00
C327   C     0.91094   0.31444   0.56500   0.00000  Uiso   1.00
C328   C     0.04623   0.37327   0.18789   0.00000  Uiso   1.00
C329   C     0.06495   0.31809   0.13141   0.00000  Uiso   1.00
C330   C     0.13125   0.30710   0.12046   0.00000  Uiso   1.00
C331   C     0.23271   0.26748   0.08030   0.00000  Uiso   1.00
C332   C     0.97059   0.48006   0.19358   0.00000  Uiso   1.00
C333   C     0.92571   0.51468   0.14187   0.00000  Uiso   1.00
C334   C     0.92832   0.59360   0.13570   0.00000  Uiso   1.00
C335   C     0.91233   0.71978   0.10438   0.00000  Uiso   1.00
C336   C     0.06086   0.47322   0.29042   0.00000  Uiso   1.00
C337   C     0.01614   0.42707   0.34631   0.00000  Uiso   1.00
C338   C     0.01854   0.42549   0.43167   0.00000  Uiso   1.00
C339   C     0.97339   0.37964   0.47153   0.00000  Uiso   1.00
C340   C     0.09211   0.41596   0.23187   0.00000  Uiso   1.00
C341   C     0.15840   0.40506   0.22101   0.00000  Uiso   1.00
C342   C     0.17721   0.34987   0.16453   0.00000  Uiso   1.00
C343   C     0.01646   0.52276   0.23757   0.00000  Uiso   1.00
C344   C     0.01915   0.60164   0.23148   0.00000  Uiso   1.00
C345   C     0.97428   0.63637   0.17977   0.00000  Uiso   1.00
H346   H     0.94068   0.36138   0.17518   0.00000  Uiso   1.00
H347   H     0.88960   0.30549   0.30800   0.00000  Uiso   1.00
H348   H     0.02943   0.28507   0.09737   0.00000  Uiso   1.00
H349   H     0.89021   0.48162   0.10784   0.00000  Uiso   1.00
H350   H     0.85321   0.26233   0.47465   0.00000  Uiso   1.00
H351   H     0.14806   0.21929   0.03050   0.00000  Uiso   1.00
H352   H     0.85448   0.63377   0.05257   0.00000  Uiso   1.00
H353   H     0.09658   0.50646   0.32466   0.00000  Uiso   1.00
H354   H     0.05405   0.45853   0.46569   0.00000  Uiso   1.00
H355   H     0.19388   0.43811   0.25505   0.00000  Uiso   1.00
H356   H     0.05466   0.63466   0.26552   0.00000  Uiso   1.00
H357   H     0.98669   0.38654   0.60264   0.00000  Uiso   1.00
H358   H     0.28154   0.34351   0.15848   0.00000  Uiso   1.00
H359   H     0.98796   0.75798   0.18056   0.00000  Uiso   1.00
O360   O     0.88917   0.29026   0.62872   0.00000  Uiso   1.00
O361   O     0.27600   0.23382   0.04600   0.00000  Uiso   1.00
O362   O     0.89083   0.77759   0.07496   0.00000  Uiso   1.00
N363   N     0.89045   0.29815   0.48542   0.00000  Uiso   1.00
N364   N     0.16612   0.25791   0.07018   0.00000  Uiso   1.00
N365   N     0.89166   0.64540   0.09079   0.00000  Uiso   1.00
N366   N     0.96228   0.36499   0.55429   0.00000  Uiso   1.00
N367   N     0.23794   0.32474   0.13904   0.00000  Uiso   1.00
N368   N     0.96348   0.71224   0.15966   0.00000  Uiso   1.00
