data_job_06506
_audit_creation_date              2018-12-19
_audit_creation_method            'Materials Studio'
_symmetry_space_group_name_H-M    'P1'
_symmetry_Int_Tables_number       1
_symmetry_cell_setting            triclinic
loop_
_symmetry_equiv_pos_as_xyz
  x,y,z
_cell_length_a                    19.1916
_cell_length_b                    21.1124
_cell_length_c                    20.8027
_cell_angle_alpha                 68.0154
_cell_angle_beta                  68.0308
_cell_angle_gamma                 68.8538
loop_
_atom_site_label
_atom_site_type_symbol
_atom_site_fract_x
_atom_site_fract_y
_atom_site_fract_z
_atom_site_U_iso_or_equiv
_atom_site_adp_type
_atom_site_occupancy
C1     C     0.75190   0.10755   0.30232   0.00000  Uiso   1.00
C2     C     0.79532   0.04035   0.34750   0.00000  Uiso   1.00
C3     C     0.86200   0.03268   0.36422   0.00000  Uiso   1.00
C4     C     0.89291   0.96694   0.40623   0.00000  Uiso   1.00
C5     C     0.96561   0.87110   0.47265   0.00000  Uiso   1.00
C6     C     0.74825   0.08731   0.24077   0.00000  Uiso   1.00
C7     C     0.77534   0.11914   0.16775   0.00000  Uiso   1.00
C8     C     0.76660   0.09294   0.11991   0.00000  Uiso   1.00
C9     C     0.76617   0.07005   0.02063   0.00000  Uiso   1.00
C10    C     0.66850   0.12433   0.34944   0.00000  Uiso   1.00
C11    C     0.62853   0.18729   0.36778   0.00000  Uiso   1.00
C12    C     0.55265   0.19227   0.41143   0.00000  Uiso   1.00
C13    C     0.42840   0.22686   0.48088   0.00000  Uiso   1.00
C14    C     0.68822   0.00444   0.34720   0.00000  Uiso   1.00
C15    C     0.76073   0.98434   0.37188   0.00000  Uiso   1.00
C16    C     0.79155   0.91860   0.41388   0.00000  Uiso   1.00
C17    C     0.85826   0.91084   0.43066   0.00000  Uiso   1.00
C18    C     0.71366   0.03131   0.26514   0.00000  Uiso   1.00
C19    C     0.70488   0.00507   0.21741   0.00000  Uiso   1.00
C20    C     0.73196   0.03684   0.14434   0.00000  Uiso   1.00
C21    C     0.63391   0.06833   0.37382   0.00000  Uiso   1.00
C22    C     0.55808   0.07322   0.41745   0.00000  Uiso   1.00
C23    C     0.51800   0.13617   0.43585   0.00000  Uiso   1.00
H24    H     0.77883   0.15115   0.28333   0.00000  Uiso   1.00
H25    H     0.88875   0.07603   0.34534   0.00000  Uiso   1.00
H26    H     0.80209   0.16248   0.14890   0.00000  Uiso   1.00
H27    H     0.65531   0.23062   0.34891   0.00000  Uiso   1.00
H28    H     0.99538   0.96803   0.42481   0.00000  Uiso   1.00
H29    H     0.81264   0.15034   0.01061   0.00000  Uiso   1.00
H30    H     0.50312   0.29403   0.43236   0.00000  Uiso   1.00
H31    H     0.66129   0.96084   0.36618   0.00000  Uiso   1.00
H32    H     0.76477   0.87527   0.43274   0.00000  Uiso   1.00
H33    H     0.67811   0.96173   0.23629   0.00000  Uiso   1.00
H34    H     0.53133   0.02987   0.43630   0.00000  Uiso   1.00
H35    H     0.89476   0.80509   0.49574   0.00000  Uiso   1.00
H36    H     0.71201   0.98741   0.08154   0.00000  Uiso   1.00
H37    H     0.40249   0.13109   0.50329   0.00000  Uiso   1.00
O38    O     0.01527   0.83370   0.50254   0.00000  Uiso   1.00
O39    O     0.77550   0.07290   0.95912   0.00000  Uiso   1.00
O40    O     0.36943   0.26141   0.51246   0.00000  Uiso   1.00
N41    N     0.95749   0.94143   0.43238   0.00000  Uiso   1.00
N42    N     0.78664   0.11188   0.04513   0.00000  Uiso   1.00
N43    N     0.49726   0.24622   0.43941   0.00000  Uiso   1.00
N44    N     0.90334   0.85375   0.47055   0.00000  Uiso   1.00
N45    N     0.73250   0.02420   0.08330   0.00000  Uiso   1.00
N46    N     0.44312   0.15854   0.47758   0.00000  Uiso   1.00
C47    C     0.24490   0.69296   0.11247   0.00000  Uiso   1.00
C48    C     0.29385   0.74632   0.07962   0.00000  Uiso   1.00
C49    C     0.28515   0.79979   0.10764   0.00000  Uiso   1.00
C50    C     0.33569   0.84311   0.06955   0.00000  Uiso   1.00
C51    C     0.40297   0.92749   0.02824   0.00000  Uiso   1.00
C52    C     0.21091   0.69995   0.05385   0.00000  Uiso   1.00
C53    C     0.13248   0.71442   0.06020   0.00000  Uiso   1.00
C54    C     0.11321   0.71869   0.00042   0.00000  Uiso   1.00
C55    C     0.05173   0.73103   0.91911   0.00000  Uiso   1.00
C56    C     0.30206   0.62018   0.12343   0.00000  Uiso   1.00
C57    C     0.30026   0.56756   0.18828   0.00000  Uiso   1.00
C58    C     0.35772   0.50466   0.18707   0.00000  Uiso   1.00
C59    C     0.43776   0.39313   0.21379   0.00000  Uiso   1.00
C60    C     0.35014   0.67481   0.99500   0.00000  Uiso   1.00
C61    C     0.35101   0.73646   0.01581   0.00000  Uiso   1.00
C62    C     0.40158   0.77971   0.97767   0.00000  Uiso   1.00
C63    C     0.39296   0.83324   0.00564   0.00000  Uiso   1.00
C64    C     0.26807   0.69009   0.99004   0.00000  Uiso   1.00
C65    C     0.24891   0.69434   0.93024   0.00000  Uiso   1.00
C66    C     0.17047   0.70882   0.93650   0.00000  Uiso   1.00
C67    C     0.35922   0.61032   0.05962   0.00000  Uiso   1.00
C68    C     0.41669   0.54748   0.05831   0.00000  Uiso   1.00
C69    C     0.41498   0.49478   0.12315   0.00000  Uiso   1.00
H70    H     0.20040   0.70064   0.16214   0.00000  Uiso   1.00
H71    H     0.24090   0.80741   0.15702   0.00000  Uiso   1.00
H72    H     0.08826   0.72204   0.10959   0.00000  Uiso   1.00
H73    H     0.25601   0.57521   0.23764   0.00000  Uiso   1.00
H74    H     0.31099   0.92146   0.12319   0.00000  Uiso   1.00
H75    H     0.98914   0.74143   0.02319   0.00000  Uiso   1.00
H76    H     0.34288   0.43180   0.29322   0.00000  Uiso   1.00
H77    H     0.39464   0.66713   0.94532   0.00000  Uiso   1.00
H78    H     0.44581   0.77207   0.92830   0.00000  Uiso   1.00
H79    H     0.29316   0.68670   0.88087   0.00000  Uiso   1.00
H80    H     0.46092   0.53987   0.00892   0.00000  Uiso   1.00
H81    H     0.47730   0.89278   0.93755   0.00000  Uiso   1.00
H82    H     0.15545   0.71274   0.83755   0.00000  Uiso   1.00
H83    H     0.50919   0.40312   0.10758   0.00000  Uiso   1.00
O84    O     0.42428   0.97677   0.02307   0.00000  Uiso   1.00
O85    O     0.00203   0.74056   0.89189   0.00000  Uiso   1.00
O86    O     0.46613   0.33434   0.24616   0.00000  Uiso   1.00
N87    N     0.34312   0.90030   0.08184   0.00000  Uiso   1.00
N88    N     0.04221   0.73199   0.98835   0.00000  Uiso   1.00
N89    N     0.37291   0.44251   0.24080   0.00000  Uiso   1.00
N90    N     0.43261   0.88486   0.98195   0.00000  Uiso   1.00
N91    N     0.13170   0.71656   0.88845   0.00000  Uiso   1.00
N92    N     0.46240   0.42708   0.14091   0.00000  Uiso   1.00
C93    C     0.10024   0.29763   0.73165   0.00000  Uiso   1.00
C94    C     0.02747   0.34758   0.76589   0.00000  Uiso   1.00
C95    C     0.02275   0.38183   0.81334   0.00000  Uiso   1.00
C96    C     0.95090   0.42532   0.83868   0.00000  Uiso   1.00
C97    C     0.84774   0.50150   0.89513   0.00000  Uiso   1.00
C98    C     0.07885   0.22842   0.75172   0.00000  Uiso   1.00
C99    C     0.11735   0.16249   0.78726   0.00000  Uiso   1.00
C100   C     0.08875   0.10568   0.80067   0.00000  Uiso   1.00
C101   C     0.06540   0.99686   0.83508   0.00000  Uiso   1.00
C102   C     0.11269   0.32808   0.65034   0.00000  Uiso   1.00
C103   C     0.17966   0.34592   0.60063   0.00000  Uiso   1.00
C104   C     0.17956   0.37299   0.52868   0.00000  Uiso   1.00
C105   C     0.20876   0.41890   0.40568   0.00000  Uiso   1.00
C106   C     0.98101   0.31396   0.69226   0.00000  Uiso   1.00
C107   C     0.96271   0.35645   0.74450   0.00000  Uiso   1.00
C108   C     0.89084   0.39990   0.76977   0.00000  Uiso   1.00
C109   C     0.88602   0.43421   0.81725   0.00000  Uiso   1.00
C110   C     0.01409   0.23729   0.73034   0.00000  Uiso   1.00
C111   C     0.98543   0.18056   0.74369   0.00000  Uiso   1.00
C112   C     0.02387   0.11456   0.77924   0.00000  Uiso   1.00
C113   C     0.04793   0.33695   0.62895   0.00000  Uiso   1.00
C114   C     0.04774   0.36399   0.55706   0.00000  Uiso   1.00
C115   C     0.11468   0.38188   0.50725   0.00000  Uiso   1.00
H116   H     0.15066   0.29072   0.74830   0.00000  Uiso   1.00
H117   H     0.07288   0.37494   0.82989   0.00000  Uiso   1.00
H118   H     0.16746   0.15564   0.80380   0.00000  Uiso   1.00
H119   H     0.22976   0.33905   0.61720   0.00000  Uiso   1.00
H120   H     0.95809   0.47222   0.91093   0.00000  Uiso   1.00
H121   H     0.15753   0.00980   0.85590   0.00000  Uiso   1.00
H122   H     0.28890   0.39654   0.46242   0.00000  Uiso   1.00
H123   H     0.93059   0.32087   0.67561   0.00000  Uiso   1.00
H124   H     0.84073   0.40676   0.75321   0.00000  Uiso   1.00
H125   H     0.93532   0.18745   0.72713   0.00000  Uiso   1.00
H126   H     0.99761   0.37085   0.54053   0.00000  Uiso   1.00
H127   H     0.76966   0.49803   0.84870   0.00000  Uiso   1.00
H128   H     0.96912   0.03561   0.79367   0.00000  Uiso   1.00
H129   H     0.10048   0.42235   0.40019   0.00000  Uiso   1.00
O130   O     0.80873   0.54106   0.93219   0.00000  Uiso   1.00
O131   O     0.07041   0.93438   0.85998   0.00000  Uiso   1.00
O132   O     0.24275   0.44178   0.34375   0.00000  Uiso   1.00
N133   N     0.92608   0.46652   0.88562   0.00000  Uiso   1.00
N134   N     0.11254   0.03419   0.83418   0.00000  Uiso   1.00
N135   N     0.23536   0.39574   0.46631   0.00000  Uiso   1.00
N136   N     0.82469   0.48041   0.85213   0.00000  Uiso   1.00
N137   N     0.01115   0.04808   0.80070   0.00000  Uiso   1.00
N138   N     0.13398   0.40963   0.43283   0.00000  Uiso   1.00
C139   C     0.22572   0.82468   0.63251   0.00000  Uiso   1.00
C140   C     0.25850   0.87811   0.56436   0.00000  Uiso   1.00
C141   C     0.31932   0.90521   0.55335   0.00000  Uiso   1.00
C142   C     0.34070   0.95352   0.48729   0.00000  Uiso   1.00
C143   C     0.39743   0.03334   0.38952   0.00000  Uiso   1.00
C144   C     0.23141   0.76267   0.60839   0.00000  Uiso   1.00
C145   C     0.26944   0.69272   0.63441   0.00000  Uiso   1.00
C146   C     0.26799   0.64385   0.60543   0.00000  Uiso   1.00
C147   C     0.28261   0.54445   0.57607   0.00000  Uiso   1.00
C148   C     0.13915   0.85903   0.65781   0.00000  Uiso   1.00
C149   C     0.09960   0.87007   0.72539   0.00000  Uiso   1.00
C150   C     0.02048   0.90232   0.73801   0.00000  Uiso   1.00
C151   C     0.89185   0.95252   0.78537   0.00000  Uiso   1.00
C152   C     0.15553   0.86228   0.53478   0.00000  Uiso   1.00
C153   C     0.22038   0.89852   0.51128   0.00000  Uiso   1.00
C154   C     0.24167   0.94680   0.44522   0.00000  Uiso   1.00
C155   C     0.30250   0.97397   0.43411   0.00000  Uiso   1.00
C156   C     0.19329   0.78309   0.55531   0.00000  Uiso   1.00
C157   C     0.19178   0.73431   0.52628   0.00000  Uiso   1.00
C158   C     0.22980   0.66430   0.55225   0.00000  Uiso   1.00
C159   C     0.10103   0.87945   0.60473   0.00000  Uiso   1.00
C160   C     0.02195   0.91167   0.61725   0.00000  Uiso   1.00
C161   C     0.98228   0.92277   0.68483   0.00000  Uiso   1.00
H162   H     0.25540   0.80878   0.67384   0.00000  Uiso   1.00
H163   H     0.34882   0.88939   0.59444   0.00000  Uiso   1.00
H164   H     0.29893   0.67693   0.67550   0.00000  Uiso   1.00
H165   H     0.12912   0.85427   0.76645   0.00000  Uiso   1.00
H166   H     0.43559   0.98774   0.48298   0.00000  Uiso   1.00
H167   H     0.33038   0.53976   0.65392   0.00000  Uiso   1.00
H168   H     0.97231   0.91370   0.84572   0.00000  Uiso   1.00
H169   H     0.12585   0.87817   0.49345   0.00000  Uiso   1.00
H170   H     0.21215   0.96259   0.40415   0.00000  Uiso   1.00
H171   H     0.16227   0.75013   0.48521   0.00000  Uiso   1.00
H172   H     0.99246   0.92746   0.57616   0.00000  Uiso   1.00
H173   H     0.32467   0.04715   0.32853   0.00000  Uiso   1.00
H174   H     0.21946   0.59917   0.49947   0.00000  Uiso   1.00
H175   H     0.86139   0.97311   0.69127   0.00000  Uiso   1.00
O176   O     0.43926   0.07171   0.35026   0.00000  Uiso   1.00
O177   O     0.30122   0.48398   0.57453   0.00000  Uiso   1.00
O178   O     0.83144   0.97458   0.82616   0.00000  Uiso   1.00
N179   N     0.39763   0.99015   0.45889   0.00000  Uiso   1.00
N180   N     0.29928   0.57132   0.61870   0.00000  Uiso   1.00
N181   N     0.96450   0.92090   0.79802   0.00000  Uiso   1.00
N182   N     0.33794   0.02212   0.37579   0.00000  Uiso   1.00
N183   N     0.23959   0.60329   0.53560   0.00000  Uiso   1.00
N184   N     0.90482   0.95287   0.71491   0.00000  Uiso   1.00
C185   C     0.67620   0.62787   0.25217   0.00000  Uiso   1.00
C186   C     0.74469   0.57290   0.27805   0.00000  Uiso   1.00
C187   C     0.78223   0.57977   0.31966   0.00000  Uiso   1.00
C188   C     0.84364   0.52353   0.33774   0.00000  Uiso   1.00
C189   C     0.94647   0.44743   0.38141   0.00000  Uiso   1.00
C190   C     0.61150   0.59061   0.27949   0.00000  Uiso   1.00
C191   C     0.53706   0.61238   0.32232   0.00000  Uiso   1.00
C192   C     0.48635   0.57105   0.34160   0.00000  Uiso   1.00
C193   C     0.38239   0.52247   0.38748   0.00000  Uiso   1.00
C194   C     0.70137   0.64329   0.17025   0.00000  Uiso   1.00
C195   C     0.70249   0.70935   0.12122   0.00000  Uiso   1.00
C196   C     0.72743   0.71237   0.04853   0.00000  Uiso   1.00
C197   C     0.76301   0.74558   0.92480   0.00000  Uiso   1.00
C198   C     0.71848   0.51579   0.21027   0.00000  Uiso   1.00
C199   C     0.76765   0.51202   0.25529   0.00000  Uiso   1.00
C200   C     0.82902   0.45576   0.27330   0.00000  Uiso   1.00
C201   C     0.86665   0.46255   0.31493   0.00000  Uiso   1.00
C202   C     0.63446   0.52973   0.25674   0.00000  Uiso   1.00
C203   C     0.58385   0.48837   0.27596   0.00000  Uiso   1.00
C204   C     0.50936   0.51006   0.31880   0.00000  Uiso   1.00
C205   C     0.72434   0.58241   0.14749   0.00000  Uiso   1.00
C206   C     0.74928   0.58533   0.07487   0.00000  Uiso   1.00
C207   C     0.75044   0.65138   0.02574   0.00000  Uiso   1.00
H208   H     0.65831   0.67527   0.26989   0.00000  Uiso   1.00
H209   H     0.76444   0.62689   0.33727   0.00000  Uiso   1.00
H210   H     0.51931   0.65950   0.33991   0.00000  Uiso   1.00
H211   H     0.68471   0.75645   0.13886   0.00000  Uiso   1.00
H212   H     0.89221   0.54640   0.40196   0.00000  Uiso   1.00
H213   H     0.37533   0.61516   0.40752   0.00000  Uiso   1.00
H214   H     0.72412   0.81960   0.98354   0.00000  Uiso   1.00
H215   H     0.73636   0.46839   0.19255   0.00000  Uiso   1.00
H216   H     0.84678   0.40866   0.25568   0.00000  Uiso   1.00
H217   H     0.60164   0.44126   0.25833   0.00000  Uiso   1.00
H218   H     0.76705   0.53821   0.05727   0.00000  Uiso   1.00
H219   H     0.95904   0.36927   0.33574   0.00000  Uiso   1.00
H220   H     0.44215   0.43804   0.34130   0.00000  Uiso   1.00
H221   H     0.79094   0.64247   0.91733   0.00000  Uiso   1.00
O222   O     0.99683   0.42226   0.41180   0.00000  Uiso   1.00
O223   O     0.31870   0.51249   0.41908   0.00000  Uiso   1.00
O224   O     0.77631   0.78071   0.86284   0.00000  Uiso   1.00
N225   N     0.89280   0.51291   0.37770   0.00000  Uiso   1.00
N226   N     0.40954   0.57720   0.38291   0.00000  Uiso   1.00
N227   N     0.73561   0.76834   0.98653   0.00000  Uiso   1.00
N228   N     0.92875   0.41760   0.34207   0.00000  Uiso   1.00
N229   N     0.44550   0.48189   0.34728   0.00000  Uiso   1.00
N230   N     0.77157   0.67302   0.95090   0.00000  Uiso   1.00
C231   C     0.55983   0.27178   0.81311   0.00000  Uiso   1.00
C232   C     0.49094   0.31222   0.86155   0.00000  Uiso   1.00
C233   C     0.49253   0.36411   0.88633   0.00000  Uiso   1.00
C234   C     0.42337   0.39482   0.93009   0.00000  Uiso   1.00
C235   C     0.32676   0.46076   0.00249   0.00000  Uiso   1.00
C236   C     0.53454   0.28358   0.74732   0.00000  Uiso   1.00
C237   C     0.57280   0.31138   0.67606   0.00000  Uiso   1.00
C238   C     0.54034   0.31797   0.62366   0.00000  Uiso   1.00
C239   C     0.51146   0.33939   0.51872   0.00000  Uiso   1.00
C240   C     0.56790   0.19367   0.85351   0.00000  Uiso   1.00
C241   C     0.63423   0.14586   0.87152   0.00000  Uiso   1.00
C242   C     0.62987   0.07674   0.90851   0.00000  Uiso   1.00
C243   C     0.65280   0.95857   0.96844   0.00000  Uiso   1.00
C244   C     0.43417   0.23403   0.84675   0.00000  Uiso   1.00
C245   C     0.42268   0.29172   0.87982   0.00000  Uiso   1.00
C246   C     0.35350   0.32235   0.92355   0.00000  Uiso   1.00
C247   C     0.35499   0.37428   0.94839   0.00000  Uiso   1.00
C248   C     0.46628   0.26308   0.76559   0.00000  Uiso   1.00
C249   C     0.43376   0.26962   0.71328   0.00000  Uiso   1.00
C250   C     0.47196   0.29743   0.64196   0.00000  Uiso   1.00
C251   C     0.49965   0.17316   0.87178   0.00000  Uiso   1.00
C252   C     0.49519   0.10410   0.90874   0.00000  Uiso   1.00
C253   C     0.56149   0.05620   0.92681   0.00000  Uiso   1.00
H254   H     0.61297   0.28774   0.79888   0.00000  Uiso   1.00
H255   H     0.54536   0.37997   0.87217   0.00000  Uiso   1.00
H256   H     0.62562   0.32724   0.66194   0.00000  Uiso   1.00
H257   H     0.68704   0.16175   0.85737   0.00000  Uiso   1.00
H258   H     0.44030   0.47320   0.96147   0.00000  Uiso   1.00
H259   H     0.60954   0.36199   0.51818   0.00000  Uiso   1.00
H260   H     0.73905   0.01302   0.93028   0.00000  Uiso   1.00
H261   H     0.38102   0.21807   0.86097   0.00000  Uiso   1.00
H262   H     0.30068   0.30647   0.93768   0.00000  Uiso   1.00
H263   H     0.38094   0.25374   0.72744   0.00000  Uiso   1.00
H264   H     0.44236   0.08825   0.92287   0.00000  Uiso   1.00
H265   H     0.24171   0.41355   0.01463   0.00000  Uiso   1.00
H266   H     0.41095   0.30234   0.57134   0.00000  Uiso   1.00
H267   H     0.54046   0.95337   0.98345   0.00000  Uiso   1.00
O268   O     0.29233   0.50281   0.03737   0.00000  Uiso   1.00
O269   O     0.51438   0.35689   0.45579   0.00000  Uiso   1.00
O270   O     0.68430   0.89905   0.99646   0.00000  Uiso   1.00
N271   N     0.40459   0.44702   0.96346   0.00000  Uiso   1.00
N272   N     0.56281   0.34305   0.54901   0.00000  Uiso   1.00
N273   N     0.68390   0.01679   0.93428   0.00000  Uiso   1.00
N274   N     0.29773   0.41492   0.99207   0.00000  Uiso   1.00
N275   N     0.45595   0.31096   0.57762   0.00000  Uiso   1.00
N276   N     0.57704   0.98469   0.96289   0.00000  Uiso   1.00
C277   C     0.32820   0.93668   0.77257   0.00000  Uiso   1.00
C278   C     0.30463   0.00141   0.71267   0.00000  Uiso   1.00
C279   C     0.26052   0.00653   0.67031   0.00000  Uiso   1.00
C280   C     0.24523   0.07028   0.61840   0.00000  Uiso   1.00
C281   C     0.20437   0.16220   0.52682   0.00000  Uiso   1.00
C282   C     0.29843   0.96161   0.84031   0.00000  Uiso   1.00
C283   C     0.24912   0.93325   0.90526   0.00000  Uiso   1.00
C284   C     0.22861   0.96349   0.96080   0.00000  Uiso   1.00
C285   C     0.17818   0.99359   0.06739   0.00000  Uiso   1.00
C286   C     0.41666   0.91836   0.75317   0.00000  Uiso   1.00
C287   C     0.46675   0.85363   0.74487   0.00000  Uiso   1.00
C288   C     0.54579   0.84745   0.72705   0.00000  Uiso   1.00
C289   C     0.67891   0.81039   0.69835   0.00000  Uiso   1.00
C290   C     0.37948   0.04078   0.75571   0.00000  Uiso   1.00
C291   C     0.33249   0.05796   0.70352   0.00000  Uiso   1.00
C292   C     0.31726   0.12171   0.65165   0.00000  Uiso   1.00
C293   C     0.27313   0.12693   0.60922   0.00000  Uiso   1.00
C294   C     0.32629   0.01815   0.83115   0.00000  Uiso   1.00
C295   C     0.30586   0.04843   0.88661   0.00000  Uiso   1.00
C296   C     0.25652   0.02014   0.95162   0.00000  Uiso   1.00
C297   C     0.44452   0.97490   0.74401   0.00000  Uiso   1.00
C298   C     0.52349   0.96881   0.72621   0.00000  Uiso   1.00
C299   C     0.57369   0.90409   0.71788   0.00000  Uiso   1.00
H300   H     0.30651   0.89266   0.77970   0.00000  Uiso   1.00
H301   H     0.23897   0.96276   0.67742   0.00000  Uiso   1.00
H302   H     0.22758   0.88949   0.91233   0.00000  Uiso   1.00
H303   H     0.44518   0.80989   0.75196   0.00000  Uiso   1.00
H304   H     0.17635   0.06544   0.56000   0.00000  Uiso   1.00
H305   H     0.15235   0.91093   0.05534   0.00000  Uiso   1.00
H306   H     0.61120   0.74305   0.71716   0.00000  Uiso   1.00
H307   H     0.40117   0.08481   0.74858   0.00000  Uiso   1.00
H308   H     0.33882   0.16546   0.64458   0.00000  Uiso   1.00
H309   H     0.32743   0.09219   0.87950   0.00000  Uiso   1.00
H310   H     0.54502   0.01258   0.71913   0.00000  Uiso   1.00
H311   H     0.25739   0.22995   0.53335   0.00000  Uiso   1.00
H312   H     0.23339   0.07544   0.02869   0.00000  Uiso   1.00
H313   H     0.69224   0.90757   0.69052   0.00000  Uiso   1.00
O314   O     0.17413   0.19729   0.47884   0.00000  Uiso   1.00
O315   O     0.14265   0.99457   0.12871   0.00000  Uiso   1.00
O316   O     0.74465   0.77433   0.68503   0.00000  Uiso   1.00
N317   N     0.20399   0.09308   0.56799   0.00000  Uiso   1.00
N318   N     0.18154   0.94863   0.03110   0.00000  Uiso   1.00
N319   N     0.61053   0.79168   0.71495   0.00000  Uiso   1.00
N320   N     0.24760   0.18161   0.55365   0.00000  Uiso   1.00
N321   N     0.22515   0.03716   0.01676   0.00000  Uiso   1.00
N322   N     0.65413   0.88020   0.70061   0.00000  Uiso   1.00
C323   C     0.71171   0.29756   0.93733   0.00000  Uiso   1.00
C324   C     0.65567   0.26082   0.00269   0.00000  Uiso   1.00
C325   C     0.62055   0.21339   0.00340   0.00000  Uiso   1.00
C326   C     0.57113   0.18555   0.06861   0.00000  Uiso   1.00
C327   C     0.48624   0.12559   0.16065   0.00000  Uiso   1.00
C328   C     0.78562   0.27918   0.95927   0.00000  Uiso   1.00
C329   C     0.85976   0.24718   0.92346   0.00000  Uiso   1.00
C330   C     0.91973   0.23481   0.95211   0.00000  Uiso   1.00
C331   C     0.03659   0.20340   0.97670   0.00000  Uiso   1.00
C332   C     0.67650   0.37661   0.92851   0.00000  Uiso   1.00
C333   C     0.65892   0.42654   0.86683   0.00000  Uiso   1.00
C334   C     0.62703   0.49619   0.86957   0.00000  Uiso   1.00
C335   C     0.57447   0.61605   0.84641   0.00000  Uiso   1.00
C336   C     0.68639   0.33249   0.05187   0.00000  Uiso   1.00
C337   C     0.64192   0.27979   0.06491   0.00000  Uiso   1.00
C338   C     0.59253   0.25202   0.13013   0.00000  Uiso   1.00
C339   C     0.55735   0.20455   0.13093   0.00000  Uiso   1.00
C340   C     0.77186   0.29815   0.02148   0.00000  Uiso   1.00
C341   C     0.83174   0.28582   0.05019   0.00000  Uiso   1.00
C342   C     0.90595   0.25381   0.01443   0.00000  Uiso   1.00
C343   C     0.66274   0.39558   0.99072   0.00000  Uiso   1.00
C344   C     0.63089   0.46517   0.99356   0.00000  Uiso   1.00
C345   C     0.61326   0.51520   0.93190   0.00000  Uiso   1.00
H346   H     0.72243   0.28279   0.88889   0.00000  Uiso   1.00
H347   H     0.63122   0.19872   0.95525   0.00000  Uiso   1.00
H348   H     0.87039   0.23252   0.87531   0.00000  Uiso   1.00
H349   H     0.66957   0.41184   0.81870   0.00000  Uiso   1.00
H350   H     0.52406   0.11385   0.05626   0.00000  Uiso   1.00
H351   H     0.02836   0.18514   0.88770   0.00000  Uiso   1.00
H352   H     0.60490   0.56327   0.76831   0.00000  Uiso   1.00
H353   H     0.67568   0.34725   0.10030   0.00000  Uiso   1.00
H354   H     0.58190   0.26671   0.17827   0.00000  Uiso   1.00
H355   H     0.82107   0.30051   0.09833   0.00000  Uiso   1.00
H356   H     0.62025   0.47983   0.04171   0.00000  Uiso   1.00
H357   H     0.48403   0.16903   0.23727   0.00000  Uiso   1.00
H358   H     0.98834   0.24033   0.06871   0.00000  Uiso   1.00
H359   H     0.56487   0.61846   0.94932   0.00000  Uiso   1.00
O360   O     0.44322   0.08728   0.19424   0.00000  Uiso   1.00
O361   O     0.10485   0.18082   0.97309   0.00000  Uiso   1.00
O362   O     0.54927   0.67692   0.81645   0.00000  Uiso   1.00
N363   N     0.52749   0.13790   0.08816   0.00000  Uiso   1.00
N364   N     0.99899   0.20454   0.93057   0.00000  Uiso   1.00
N365   N     0.60310   0.55807   0.81894   0.00000  Uiso   1.00
N366   N     0.50595   0.16759   0.18556   0.00000  Uiso   1.00
N367   N     0.97745   0.23424   0.02797   0.00000  Uiso   1.00
N368   N     0.58156   0.58777   0.91634   0.00000  Uiso   1.00
C369   C     0.87350   0.73417   0.26698   0.00000  Uiso   1.00
C370   C     0.93875   0.67091   0.24803   0.00000  Uiso   1.00
C371   C     0.93836   0.62945   0.20987   0.00000  Uiso   1.00
C372   C     0.00365   0.57400   0.19808   0.00000  Uiso   1.00
C373   C     0.09534   0.47783   0.16476   0.00000  Uiso   1.00
C374   C     0.91018   0.79629   0.23625   0.00000  Uiso   1.00
C375   C     0.88575   0.86026   0.18819   0.00000  Uiso   1.00
C376   C     0.92698   0.91035   0.16650   0.00000  Uiso   1.00
C377   C     0.97427   0.00886   0.11493   0.00000  Uiso   1.00
C378   C     0.85154   0.71836   0.34879   0.00000  Uiso   1.00
C379   C     0.77780   0.71681   0.39536   0.00000  Uiso   1.00
C380   C     0.76966   0.70131   0.46841   0.00000  Uiso   1.00
C381   C     0.72590   0.67881   0.59158   0.00000  Uiso   1.00
C382   C     0.99016   0.70941   0.31391   0.00000  Uiso   1.00
C383   C     0.00212   0.65746   0.27352   0.00000  Uiso   1.00
C384   C     0.06743   0.60205   0.26179   0.00000  Uiso   1.00
C385   C     0.06713   0.56052   0.22362   0.00000  Uiso   1.00
C386   C     0.97354   0.78284   0.26174   0.00000  Uiso   1.00
C387   C     0.01481   0.83285   0.24012   0.00000  Uiso   1.00
C388   C     0.99046   0.89688   0.19203   0.00000  Uiso   1.00
C389   C     0.91490   0.70490   0.37429   0.00000  Uiso   1.00
C390   C     0.90687   0.68941   0.44728   0.00000  Uiso   1.00
C391   C     0.83313   0.68783   0.49395   0.00000  Uiso   1.00
H392   H     0.82417   0.74465   0.24713   0.00000  Uiso   1.00
H393   H     0.88931   0.63988   0.19015   0.00000  Uiso   1.00
H394   H     0.83670   0.87065   0.16848   0.00000  Uiso   1.00
H395   H     0.72878   0.72722   0.37561   0.00000  Uiso   1.00
H396   H     0.98948   0.51781   0.13819   0.00000  Uiso   1.00
H397   H     0.87854   0.00441   0.09253   0.00000  Uiso   1.00
H398   H     0.65095   0.70197   0.52930   0.00000  Uiso   1.00
H399   H     0.03950   0.69894   0.33375   0.00000  Uiso   1.00
H400   H     0.11645   0.59165   0.28152   0.00000  Uiso   1.00
H401   H     0.06384   0.82243   0.25986   0.00000  Uiso   1.00
H402   H     0.95592   0.67900   0.46699   0.00000  Uiso   1.00
H403   H     0.17384   0.47867   0.21235   0.00000  Uiso   1.00
H404   H     0.06290   0.96527   0.16669   0.00000  Uiso   1.00
H405   H     0.83531   0.66283   0.60346   0.00000  Uiso   1.00
O406   O     0.12841   0.42851   0.13933   0.00000  Uiso   1.00
O407   O     0.98285   0.06691   0.07944   0.00000  Uiso   1.00
O408   O     0.68426   0.67011   0.65247   0.00000  Uiso   1.00
N409   N     0.02231   0.52332   0.16282   0.00000  Uiso   1.00
N410   N     0.91859   0.97825   0.12012   0.00000  Uiso   1.00
N411   N     0.70581   0.69551   0.52847   0.00000  Uiso   1.00
N412   N     0.12151   0.50225   0.20273   0.00000  Uiso   1.00
N413   N     0.01779   0.95719   0.16003   0.00000  Uiso   1.00
N414   N     0.80501   0.67445   0.56838   0.00000  Uiso   1.00
C415   C     0.78821   0.27416   0.45929   0.00000  Uiso   1.00
C416   C     0.76967   0.21888   0.53133   0.00000  Uiso   1.00
C417   C     0.72413   0.17332   0.54897   0.00000  Uiso   1.00
C418   C     0.71413   0.12663   0.61767   0.00000  Uiso   1.00
C419   C     0.68009   0.04098   0.72205   0.00000  Uiso   1.00
C420   C     0.76163   0.34459   0.47686   0.00000  Uiso   1.00
C421   C     0.70934   0.40473   0.44870   0.00000  Uiso   1.00
C422   C     0.69258   0.46386   0.47154   0.00000  Uiso   1.00
C423   C     0.64610   0.57340   0.49132   0.00000  Uiso   1.00
C424   C     0.87664   0.25768   0.43179   0.00000  Uiso   1.00
C425   C     0.92105   0.24477   0.36572   0.00000  Uiso   1.00
C426   C     0.00112   0.23074   0.35062   0.00000  Uiso   1.00
C427   C     0.13321   0.20534   0.30042   0.00000  Uiso   1.00
C428   C     0.85143   0.27223   0.54992   0.00000  Uiso   1.00
C429   C     0.80401   0.21784   0.58055   0.00000  Uiso   1.00
C430   C     0.79408   0.17120   0.64924   0.00000  Uiso   1.00
C431   C     0.74853   0.12558   0.66698   0.00000  Uiso   1.00
C432   C     0.79597   0.34355   0.52609   0.00000  Uiso   1.00
C433   C     0.77929   0.40260   0.54898   0.00000  Uiso   1.00
C434   C     0.72698   0.46282   0.52086   0.00000  Uiso   1.00
C435   C     0.91098   0.25664   0.48102   0.00000  Uiso   1.00
C436   C     0.99100   0.24263   0.46601   0.00000  Uiso   1.00
C437   C     0.03552   0.22970   0.39993   0.00000  Uiso   1.00
H438   H     0.76147   0.27497   0.42096   0.00000  Uiso   1.00
H439   H     0.69756   0.17415   0.51086   0.00000  Uiso   1.00
H440   H     0.68278   0.40553   0.41060   0.00000  Uiso   1.00
H441   H     0.89446   0.24558   0.32764   0.00000  Uiso   1.00
H442   H     0.64182   0.06193   0.63224   0.00000  Uiso   1.00
H443   H     0.61068   0.54980   0.42082   0.00000  Uiso   1.00
H444   H     0.05704   0.21253   0.24589   0.00000  Uiso   1.00
H445   H     0.87817   0.27142   0.58825   0.00000  Uiso   1.00
H446   H     0.82066   0.17040   0.68733   0.00000  Uiso   1.00
H447   H     0.80588   0.40178   0.58707   0.00000  Uiso   1.00
H448   H     0.01756   0.24183   0.50411   0.00000  Uiso   1.00
H449   H     0.74173   0.05889   0.77547   0.00000  Uiso   1.00
H450   H     0.71059   0.54676   0.56405   0.00000  Uiso   1.00
H451   H     0.15695   0.20949   0.38912   0.00000  Uiso   1.00
O452   O     0.65182   0.99404   0.76602   0.00000  Uiso   1.00
O453   O     0.61097   0.63411   0.48864   0.00000  Uiso   1.00
O454   O     0.19659   0.19161   0.25914   0.00000  Uiso   1.00
N455   N     0.67324   0.07507   0.65235   0.00000  Uiso   1.00
N456   N     0.64411   0.53120   0.45469   0.00000  Uiso   1.00
N457   N     0.06142   0.21589   0.29114   0.00000  Uiso   1.00
N458   N     0.72700   0.07343   0.72942   0.00000  Uiso   1.00
N459   N     0.69788   0.52956   0.53177   0.00000  Uiso   1.00
N460   N     0.11519   0.21425   0.36821   0.00000  Uiso   1.00
C461   C     0.21945   0.43745   0.78549   0.00000  Uiso   1.00
C462   C     0.15800   0.50004   0.75591   0.00000  Uiso   1.00
C463   C     0.13014   0.50642   0.70051   0.00000  Uiso   1.00
C464   C     0.07395   0.56779   0.68132   0.00000  Uiso   1.00
C465   C     0.98271   0.65692   0.63005   0.00000  Uiso   1.00
C466   C     0.28374   0.46788   0.77856   0.00000  Uiso   1.00
C467   C     0.36160   0.44720   0.74221   0.00000  Uiso   1.00
C468   C     0.41126   0.48150   0.74210   0.00000  Uiso   1.00
C469   C     0.51525   0.52066   0.72604   0.00000  Uiso   1.00
C470   C     0.18220   0.41136   0.86616   0.00000  Uiso   1.00
C471   C     0.17470   0.34315   0.90347   0.00000  Uiso   1.00
C472   C     0.13888   0.32985   0.97712   0.00000  Uiso   1.00
C473   C     0.08521   0.28125   0.09706   0.00000  Uiso   1.00
C474   C     0.16922   0.53511   0.84995   0.00000  Uiso   1.00
C475   C     0.13072   0.55309   0.79093   0.00000  Uiso   1.00
C476   C     0.07456   0.61447   0.77183   0.00000  Uiso   1.00
C477   C     0.04662   0.62093   0.71640   0.00000  Uiso   1.00
C478   C     0.25646   0.52092   0.81358   0.00000  Uiso   1.00
C479   C     0.30602   0.55525   0.81353   0.00000  Uiso   1.00
C480   C     0.38393   0.53464   0.77718   0.00000  Uiso   1.00
C481   C     0.15492   0.46440   0.90118   0.00000  Uiso   1.00
C482   C     0.11912   0.45120   0.97478   0.00000  Uiso   1.00
C483   C     0.11155   0.38299   0.01219   0.00000  Uiso   1.00
H484   H     0.24070   0.39615   0.75823   0.00000  Uiso   1.00
H485   H     0.15127   0.46536   0.67342   0.00000  Uiso   1.00
H486   H     0.38270   0.40615   0.71512   0.00000  Uiso   1.00
H487   H     0.19581   0.30211   0.87635   0.00000  Uiso   1.00
H488   H     0.04011   0.56548   0.59481   0.00000  Uiso   1.00
H489   H     0.52809   0.44062   0.68277   0.00000  Uiso   1.00
H490   H     0.13402   0.22124   0.02276   0.00000  Uiso   1.00
H491   H     0.14798   0.57641   0.87721   0.00000  Uiso   1.00
H492   H     0.05346   0.65551   0.79893   0.00000  Uiso   1.00
H493   H     0.28489   0.59630   0.84063   0.00000  Uiso   1.00
H494   H     0.09801   0.49226   0.00186   0.00000  Uiso   1.00
H495   H     0.96073   0.71982   0.69668   0.00000  Uiso   1.00
H496   H     0.44871   0.59496   0.78464   0.00000  Uiso   1.00
H497   H     0.05463   0.37558   0.12462   0.00000  Uiso   1.00
O498   O     0.93993   0.69144   0.59209   0.00000  Uiso   1.00
O499   O     0.58014   0.52762   0.70750   0.00000  Uiso   1.00
O500   O     0.06313   0.23980   0.15354   0.00000  Uiso   1.00
N501   N     0.03439   0.59095   0.62954   0.00000  Uiso   1.00
N502   N     0.49062   0.47422   0.71177   0.00000  Uiso   1.00
N503   N     0.12221   0.26911   0.02963   0.00000  Uiso   1.00
N504   N     0.99167   0.67399   0.68435   0.00000  Uiso   1.00
N505   N     0.44790   0.55726   0.76658   0.00000  Uiso   1.00
N506   N     0.07950   0.35215   0.08444   0.00000  Uiso   1.00
C507   C     0.33366   0.78743   0.32188   0.00000  Uiso   1.00
C508   C     0.39064   0.76988   0.25287   0.00000  Uiso   1.00
C509   C     0.40011   0.71210   0.23089   0.00000  Uiso   1.00
C510   C     0.45530   0.70538   0.16604   0.00000  Uiso   1.00
C511   C     0.53710   0.67061   0.06519   0.00000  Uiso   1.00
C512   C     0.38233   0.79263   0.36236   0.00000  Uiso   1.00
C513   C     0.38480   0.75398   0.43243   0.00000  Uiso   1.00
C514   C     0.43300   0.76642   0.45975   0.00000  Uiso   1.00
C515   C     0.50186   0.76701   0.52889   0.00000  Uiso   1.00
C516   C     0.28364   0.86201   0.29829   0.00000  Uiso   1.00
C517   C     0.20312   0.88172   0.31451   0.00000  Uiso   1.00
C518   C     0.16821   0.95258   0.28790   0.00000  Uiso   1.00
C519   C     0.08383   0.06089   0.25757   0.00000  Uiso   1.00
C520   C     0.41484   0.87825   0.24581   0.00000  Uiso   1.00
C521   C     0.43474   0.81921   0.21156   0.00000  Uiso   1.00
C522   C     0.48993   0.81258   0.14672   0.00000  Uiso   1.00
C523   C     0.49948   0.75481   0.12465   0.00000  Uiso   1.00
C524   C     0.42643   0.84196   0.32104   0.00000  Uiso   1.00
C525   C     0.47463   0.85446   0.34826   0.00000  Uiso   1.00
C526   C     0.47717   0.81584   0.41836   0.00000  Uiso   1.00
C527   C     0.32773   0.91135   0.25697   0.00000  Uiso   1.00
C528   C     0.29295   0.98220   0.23034   0.00000  Uiso   1.00
C529   C     0.21239   0.00200   0.24651   0.00000  Uiso   1.00
H530   H     0.29933   0.74902   0.35406   0.00000  Uiso   1.00
H531   H     0.36597   0.67393   0.26289   0.00000  Uiso   1.00
H532   H     0.35066   0.71581   0.46440   0.00000  Uiso   1.00
H533   H     0.16901   0.84353   0.34649   0.00000  Uiso   1.00
H534   H     0.45933   0.61242   0.14360   0.00000  Uiso   1.00
H535   H     0.42703   0.70075   0.56850   0.00000  Uiso   1.00
H536   H     0.04398   0.97005   0.31987   0.00000  Uiso   1.00
H537   H     0.44918   0.91666   0.21364   0.00000  Uiso   1.00
H538   H     0.52405   0.85077   0.11476   0.00000  Uiso   1.00
H539   H     0.50874   0.89265   0.31627   0.00000  Uiso   1.00
H540   H     0.32709   0.02036   0.19837   0.00000  Uiso   1.00
H541   H     0.58764   0.75594   0.02337   0.00000  Uiso   1.00
H542   H     0.55533   0.84427   0.44828   0.00000  Uiso   1.00
H543   H     0.17228   0.11358   0.19965   0.00000  Uiso   1.00
O544   O     0.57005   0.63780   0.02098   0.00000  Uiso   1.00
O545   O     0.52766   0.75369   0.57845   0.00000  Uiso   1.00
O546   O     0.02511   0.10701   0.25225   0.00000  Uiso   1.00
N547   N     0.47924   0.65525   0.12887   0.00000  Uiso   1.00
N548   N     0.44905   0.73782   0.52612   0.00000  Uiso   1.00
N549   N     0.09093   0.98960   0.29369   0.00000  Uiso   1.00
N550   N     0.54828   0.73248   0.06417   0.00000  Uiso   1.00
N551   N     0.51809   0.81505   0.46143   0.00000  Uiso   1.00
N552   N     0.15997   0.06683   0.22900   0.00000  Uiso   1.00
