data_job_04794
_audit_creation_date              2018-12-19
_audit_creation_method            'Materials Studio'
_symmetry_space_group_name_H-M    'P1'
_symmetry_Int_Tables_number       1
_symmetry_cell_setting            triclinic
loop_
_symmetry_equiv_pos_as_xyz
  x,y,z
_cell_length_a                    27.8976
_cell_length_b                    11.9643
_cell_length_c                    14.1236
_cell_angle_alpha                 90.0000
_cell_angle_beta                  90.0000
_cell_angle_gamma                 90.0000
loop_
_atom_site_label
_atom_site_type_symbol
_atom_site_fract_x
_atom_site_fract_y
_atom_site_fract_z
_atom_site_U_iso_or_equiv
_atom_site_adp_type
_atom_site_occupancy
C1     C     0.59840   0.27886   0.82027   0.00000  Uiso   1.00
C2     C     0.63530   0.35321   0.86904   0.00000  Uiso   1.00
C3     C     0.65756   0.44568   0.82922   0.00000  Uiso   1.00
C4     C     0.69028   0.50263   0.88543   0.00000  Uiso   1.00
C5     C     0.74607   0.62326   0.94705   0.00000  Uiso   1.00
C6     C     0.61839   0.16036   0.82489   0.00000  Uiso   1.00
C7     C     0.62642   0.09068   0.74795   0.00000  Uiso   1.00
C8     C     0.64488   0.98529   0.76699   0.00000  Uiso   1.00
C9     C     0.67437   0.80648   0.76006   0.00000  Uiso   1.00
C10    C     0.55421   0.27966   0.88380   0.00000  Uiso   1.00
C11    C     0.50828   0.31026   0.85639   0.00000  Uiso   1.00
C12    C     0.47271   0.30529   0.92504   0.00000  Uiso   1.00
C13    C     0.40256   0.31172   0.00958   0.00000  Uiso   1.00
C14    C     0.61692   0.21559   0.99090   0.00000  Uiso   1.00
C15    C     0.64536   0.31883   0.96172   0.00000  Uiso   1.00
C16    C     0.67805   0.37567   0.01801   0.00000  Uiso   1.00
C17    C     0.70035   0.46821   0.97828   0.00000  Uiso   1.00
C18    C     0.62844   0.12599   0.91757   0.00000  Uiso   1.00
C19    C     0.64690   0.02067   0.93673   0.00000  Uiso   1.00
C20    C     0.65496   0.95085   0.85984   0.00000  Uiso   1.00
C21    C     0.56427   0.24529   0.97649   0.00000  Uiso   1.00
C22    C     0.52876   0.24026   0.04518   0.00000  Uiso   1.00
C23    C     0.48279   0.27086   0.01788   0.00000  Uiso   1.00
H24    H     0.59057   0.30561   0.74811   0.00000  Uiso   1.00
H25    H     0.64977   0.47224   0.75749   0.00000  Uiso   1.00
H26    H     0.61863   0.11729   0.67623   0.00000  Uiso   1.00
H27    H     0.50051   0.33685   0.78467   0.00000  Uiso   1.00
H28    H     0.71986   0.64180   0.80875   0.00000  Uiso   1.00
H29    H     0.65416   0.89336   0.63742   0.00000  Uiso   1.00
H30    H     0.40509   0.35633   0.86607   0.00000  Uiso   1.00
H31    H     0.62475   0.18883   0.06306   0.00000  Uiso   1.00
H32    H     0.68583   0.34905   0.08973   0.00000  Uiso   1.00
H33    H     0.65468   0.99410   0.00846   0.00000  Uiso   1.00
H34    H     0.53656   0.21366   0.11689   0.00000  Uiso   1.00
H35    H     0.74912   0.54181   0.07840   0.00000  Uiso   1.00
H36    H     0.68342   0.79336   0.90706   0.00000  Uiso   1.00
H37    H     0.43435   0.25635   0.13571   0.00000  Uiso   1.00
O38    O     0.77406   0.69929   0.95543   0.00000  Uiso   1.00
O39    O     0.68786   0.71736   0.73064   0.00000  Uiso   1.00
O40    O     0.36108   0.32478   0.03062   0.00000  Uiso   1.00
N41    N     0.71836   0.59629   0.86856   0.00000  Uiso   1.00
N42    N     0.65694   0.89655   0.70837   0.00000  Uiso   1.00
N43    N     0.42407   0.32937   0.92213   0.00000  Uiso   1.00
N44    N     0.73410   0.54249   0.01366   0.00000  Uiso   1.00
N45    N     0.67269   0.84275   0.85346   0.00000  Uiso   1.00
N46    N     0.43982   0.27556   0.06723   0.00000  Uiso   1.00
C47    C     0.09960   0.26263   0.48846   0.00000  Uiso   1.00
C48    C     0.13733   0.33346   0.53849   0.00000  Uiso   1.00
C49    C     0.16148   0.42380   0.49947   0.00000  Uiso   1.00
C50    C     0.19468   0.47765   0.55678   0.00000  Uiso   1.00
C51    C     0.25196   0.59297   0.62029   0.00000  Uiso   1.00
C52    C     0.11750   0.14236   0.49362   0.00000  Uiso   1.00
C53    C     0.12497   0.07202   0.41689   0.00000  Uiso   1.00
C54    C     0.14146   0.96499   0.43643   0.00000  Uiso   1.00
C55    C     0.16792   0.78359   0.43030   0.00000  Uiso   1.00
C56    C     0.05494   0.26750   0.55057   0.00000  Uiso   1.00
C57    C     0.00979   0.30236   0.52171   0.00000  Uiso   1.00
C58    C     0.97361   0.30067   0.58919   0.00000  Uiso   1.00
C59    C     0.90293   0.31359   0.67147   0.00000  Uiso   1.00
C60    C     0.11560   0.19760   0.65961   0.00000  Uiso   1.00
C61    C     0.14603   0.29814   0.63145   0.00000  Uiso   1.00
C62    C     0.17919   0.35186   0.68883   0.00000  Uiso   1.00
C63    C     0.20339   0.44227   0.64991   0.00000  Uiso   1.00
C64    C     0.12619   0.10703   0.58658   0.00000  Uiso   1.00
C65    C     0.14267   0.00008   0.60624   0.00000  Uiso   1.00
C66    C     0.15017   0.92960   0.52956   0.00000  Uiso   1.00
C67    C     0.06363   0.23219   0.64353   0.00000  Uiso   1.00
C68    C     0.02750   0.23043   0.71107   0.00000  Uiso   1.00
C69    C     0.98232   0.26529   0.68232   0.00000  Uiso   1.00
H70    H     0.09283   0.29012   0.41609   0.00000  Uiso   1.00
H71    H     0.15475   0.45110   0.42752   0.00000  Uiso   1.00
H72    H     0.11823   0.09937   0.34496   0.00000  Uiso   1.00
H73    H     0.00308   0.32969   0.44976   0.00000  Uiso   1.00
H74    H     0.22724   0.61398   0.48119   0.00000  Uiso   1.00
H75    H     0.15023   0.87233   0.30709   0.00000  Uiso   1.00
H76    H     0.90741   0.35799   0.52809   0.00000  Uiso   1.00
H77    H     0.12237   0.17010   0.73199   0.00000  Uiso   1.00
H78    H     0.18591   0.32451   0.76076   0.00000  Uiso   1.00
H79    H     0.14939   0.97277   0.67819   0.00000  Uiso   1.00
H80    H     0.03424   0.20309   0.78300   0.00000  Uiso   1.00
H81    H     0.25254   0.51123   0.75165   0.00000  Uiso   1.00
H82    H     0.17552   0.76957   0.57756   0.00000  Uiso   1.00
H83    H     0.93270   0.25524   0.79856   0.00000  Uiso   1.00
O84    O     0.28117   0.66632   0.62964   0.00000  Uiso   1.00
O85    O     0.18012   0.69329   0.40123   0.00000  Uiso   1.00
O86    O     0.86154   0.33048   0.69118   0.00000  Uiso   1.00
N87    N     0.22447   0.56863   0.54090   0.00000  Uiso   1.00
N88    N     0.15247   0.87522   0.37813   0.00000  Uiso   1.00
N89    N     0.92545   0.32925   0.58474   0.00000  Uiso   1.00
N90    N     0.23808   0.51334   0.68644   0.00000  Uiso   1.00
N91    N     0.16608   0.81994   0.52367   0.00000  Uiso   1.00
N92    N     0.93906   0.27396   0.73027   0.00000  Uiso   1.00
C93    C     0.40160   0.72114   0.82027   0.00000  Uiso   1.00
C94    C     0.36470   0.64679   0.86904   0.00000  Uiso   1.00
C95    C     0.34244   0.55432   0.82922   0.00000  Uiso   1.00
C96    C     0.30972   0.49737   0.88543   0.00000  Uiso   1.00
C97    C     0.25393   0.37674   0.94705   0.00000  Uiso   1.00
C98    C     0.38161   0.83964   0.82489   0.00000  Uiso   1.00
C99    C     0.37358   0.90932   0.74795   0.00000  Uiso   1.00
C100   C     0.35512   0.01471   0.76699   0.00000  Uiso   1.00
C101   C     0.32563   0.19352   0.76006   0.00000  Uiso   1.00
C102   C     0.44579   0.72034   0.88380   0.00000  Uiso   1.00
C103   C     0.49172   0.68974   0.85639   0.00000  Uiso   1.00
C104   C     0.52729   0.69471   0.92504   0.00000  Uiso   1.00
C105   C     0.59744   0.68828   0.00958   0.00000  Uiso   1.00
C106   C     0.38308   0.78441   0.99090   0.00000  Uiso   1.00
C107   C     0.35464   0.68117   0.96172   0.00000  Uiso   1.00
C108   C     0.32195   0.62433   0.01801   0.00000  Uiso   1.00
C109   C     0.29965   0.53179   0.97828   0.00000  Uiso   1.00
C110   C     0.37156   0.87401   0.91757   0.00000  Uiso   1.00
C111   C     0.35310   0.97933   0.93673   0.00000  Uiso   1.00
C112   C     0.34504   0.04915   0.85984   0.00000  Uiso   1.00
C113   C     0.43573   0.75471   0.97649   0.00000  Uiso   1.00
C114   C     0.47124   0.75974   0.04518   0.00000  Uiso   1.00
C115   C     0.51721   0.72914   0.01788   0.00000  Uiso   1.00
H116   H     0.40943   0.69439   0.74811   0.00000  Uiso   1.00
H117   H     0.35023   0.52776   0.75749   0.00000  Uiso   1.00
H118   H     0.38137   0.88271   0.67623   0.00000  Uiso   1.00
H119   H     0.49949   0.66315   0.78467   0.00000  Uiso   1.00
H120   H     0.28014   0.35820   0.80875   0.00000  Uiso   1.00
H121   H     0.34584   0.10664   0.63742   0.00000  Uiso   1.00
H122   H     0.59491   0.64367   0.86607   0.00000  Uiso   1.00
H123   H     0.37525   0.81117   0.06306   0.00000  Uiso   1.00
H124   H     0.31417   0.65095   0.08973   0.00000  Uiso   1.00
H125   H     0.34532   0.00590   0.00846   0.00000  Uiso   1.00
H126   H     0.46344   0.78634   0.11689   0.00000  Uiso   1.00
H127   H     0.25088   0.45819   0.07840   0.00000  Uiso   1.00
H128   H     0.31658   0.20664   0.90706   0.00000  Uiso   1.00
H129   H     0.56565   0.74365   0.13571   0.00000  Uiso   1.00
O130   O     0.22594   0.30071   0.95543   0.00000  Uiso   1.00
O131   O     0.31214   0.28264   0.73064   0.00000  Uiso   1.00
O132   O     0.63892   0.67522   0.03062   0.00000  Uiso   1.00
N133   N     0.28164   0.40371   0.86856   0.00000  Uiso   1.00
N134   N     0.34306   0.10345   0.70837   0.00000  Uiso   1.00
N135   N     0.57593   0.67063   0.92213   0.00000  Uiso   1.00
N136   N     0.26590   0.45751   0.01366   0.00000  Uiso   1.00
N137   N     0.32731   0.15725   0.85346   0.00000  Uiso   1.00
N138   N     0.56018   0.72444   0.06723   0.00000  Uiso   1.00
C139   C     0.90040   0.73737   0.48846   0.00000  Uiso   1.00
C140   C     0.86267   0.66654   0.53849   0.00000  Uiso   1.00
C141   C     0.83852   0.57620   0.49947   0.00000  Uiso   1.00
C142   C     0.80532   0.52235   0.55678   0.00000  Uiso   1.00
C143   C     0.74804   0.40703   0.62029   0.00000  Uiso   1.00
C144   C     0.88250   0.85764   0.49362   0.00000  Uiso   1.00
C145   C     0.87503   0.92798   0.41689   0.00000  Uiso   1.00
C146   C     0.85854   0.03501   0.43643   0.00000  Uiso   1.00
C147   C     0.83208   0.21641   0.43030   0.00000  Uiso   1.00
C148   C     0.94506   0.73250   0.55057   0.00000  Uiso   1.00
C149   C     0.99021   0.69764   0.52171   0.00000  Uiso   1.00
C150   C     0.02639   0.69933   0.58919   0.00000  Uiso   1.00
C151   C     0.09707   0.68641   0.67147   0.00000  Uiso   1.00
C152   C     0.88440   0.80240   0.65961   0.00000  Uiso   1.00
C153   C     0.85397   0.70186   0.63145   0.00000  Uiso   1.00
C154   C     0.82081   0.64814   0.68883   0.00000  Uiso   1.00
C155   C     0.79661   0.55773   0.64991   0.00000  Uiso   1.00
C156   C     0.87381   0.89297   0.58658   0.00000  Uiso   1.00
C157   C     0.85733   0.99992   0.60624   0.00000  Uiso   1.00
C158   C     0.84983   0.07040   0.52956   0.00000  Uiso   1.00
C159   C     0.93637   0.76781   0.64353   0.00000  Uiso   1.00
C160   C     0.97250   0.76957   0.71107   0.00000  Uiso   1.00
C161   C     0.01768   0.73471   0.68232   0.00000  Uiso   1.00
H162   H     0.90717   0.70988   0.41609   0.00000  Uiso   1.00
H163   H     0.84525   0.54890   0.42752   0.00000  Uiso   1.00
H164   H     0.88177   0.90063   0.34496   0.00000  Uiso   1.00
H165   H     0.99692   0.67031   0.44976   0.00000  Uiso   1.00
H166   H     0.77276   0.38602   0.48119   0.00000  Uiso   1.00
H167   H     0.84977   0.12767   0.30709   0.00000  Uiso   1.00
H168   H     0.09259   0.64201   0.52809   0.00000  Uiso   1.00
H169   H     0.87763   0.82990   0.73199   0.00000  Uiso   1.00
H170   H     0.81409   0.67549   0.76076   0.00000  Uiso   1.00
H171   H     0.85061   0.02723   0.67819   0.00000  Uiso   1.00
H172   H     0.96576   0.79691   0.78300   0.00000  Uiso   1.00
H173   H     0.74746   0.48877   0.75165   0.00000  Uiso   1.00
H174   H     0.82448   0.23043   0.57756   0.00000  Uiso   1.00
H175   H     0.06730   0.74476   0.79856   0.00000  Uiso   1.00
O176   O     0.71883   0.33368   0.62964   0.00000  Uiso   1.00
O177   O     0.81988   0.30671   0.40123   0.00000  Uiso   1.00
O178   O     0.13846   0.66952   0.69118   0.00000  Uiso   1.00
N179   N     0.77553   0.43137   0.54090   0.00000  Uiso   1.00
N180   N     0.84753   0.12478   0.37813   0.00000  Uiso   1.00
N181   N     0.07455   0.67075   0.58474   0.00000  Uiso   1.00
N182   N     0.76192   0.48666   0.68644   0.00000  Uiso   1.00
N183   N     0.83392   0.18006   0.52367   0.00000  Uiso   1.00
N184   N     0.06094   0.72604   0.73027   0.00000  Uiso   1.00
C185   C     0.59840   0.22114   0.32027   0.00000  Uiso   1.00
C186   C     0.63530   0.14679   0.36904   0.00000  Uiso   1.00
C187   C     0.65756   0.05432   0.32922   0.00000  Uiso   1.00
C188   C     0.69028   0.99737   0.38543   0.00000  Uiso   1.00
C189   C     0.74607   0.87674   0.44705   0.00000  Uiso   1.00
C190   C     0.61839   0.33964   0.32489   0.00000  Uiso   1.00
C191   C     0.62642   0.40932   0.24795   0.00000  Uiso   1.00
C192   C     0.64488   0.51471   0.26699   0.00000  Uiso   1.00
C193   C     0.67437   0.69352   0.26006   0.00000  Uiso   1.00
C194   C     0.55421   0.22034   0.38380   0.00000  Uiso   1.00
C195   C     0.50828   0.18974   0.35639   0.00000  Uiso   1.00
C196   C     0.47271   0.19471   0.42504   0.00000  Uiso   1.00
C197   C     0.40256   0.18828   0.50958   0.00000  Uiso   1.00
C198   C     0.61692   0.28441   0.49090   0.00000  Uiso   1.00
C199   C     0.64536   0.18117   0.46172   0.00000  Uiso   1.00
C200   C     0.67805   0.12433   0.51801   0.00000  Uiso   1.00
C201   C     0.70035   0.03179   0.47828   0.00000  Uiso   1.00
C202   C     0.62844   0.37401   0.41757   0.00000  Uiso   1.00
C203   C     0.64690   0.47933   0.43673   0.00000  Uiso   1.00
C204   C     0.65496   0.54915   0.35984   0.00000  Uiso   1.00
C205   C     0.56427   0.25471   0.47649   0.00000  Uiso   1.00
C206   C     0.52876   0.25974   0.54518   0.00000  Uiso   1.00
C207   C     0.48279   0.22914   0.51788   0.00000  Uiso   1.00
H208   H     0.59057   0.19439   0.24811   0.00000  Uiso   1.00
H209   H     0.64977   0.02776   0.25749   0.00000  Uiso   1.00
H210   H     0.61863   0.38271   0.17623   0.00000  Uiso   1.00
H211   H     0.50051   0.16315   0.28467   0.00000  Uiso   1.00
H212   H     0.71986   0.85820   0.30875   0.00000  Uiso   1.00
H213   H     0.65416   0.60664   0.13742   0.00000  Uiso   1.00
H214   H     0.40509   0.14367   0.36607   0.00000  Uiso   1.00
H215   H     0.62475   0.31117   0.56306   0.00000  Uiso   1.00
H216   H     0.68583   0.15095   0.58973   0.00000  Uiso   1.00
H217   H     0.65468   0.50590   0.50846   0.00000  Uiso   1.00
H218   H     0.53656   0.28634   0.61689   0.00000  Uiso   1.00
H219   H     0.74912   0.95819   0.57840   0.00000  Uiso   1.00
H220   H     0.68342   0.70664   0.40706   0.00000  Uiso   1.00
H221   H     0.43435   0.24365   0.63571   0.00000  Uiso   1.00
O222   O     0.77406   0.80071   0.45543   0.00000  Uiso   1.00
O223   O     0.68786   0.78264   0.23064   0.00000  Uiso   1.00
O224   O     0.36108   0.17522   0.53062   0.00000  Uiso   1.00
N225   N     0.71836   0.90371   0.36856   0.00000  Uiso   1.00
N226   N     0.65694   0.60345   0.20837   0.00000  Uiso   1.00
N227   N     0.42407   0.17063   0.42213   0.00000  Uiso   1.00
N228   N     0.73410   0.95751   0.51366   0.00000  Uiso   1.00
N229   N     0.67269   0.65725   0.35346   0.00000  Uiso   1.00
N230   N     0.43982   0.22444   0.56723   0.00000  Uiso   1.00
C231   C     0.09960   0.23737   0.98846   0.00000  Uiso   1.00
C232   C     0.13733   0.16654   0.03849   0.00000  Uiso   1.00
C233   C     0.16148   0.07620   0.99947   0.00000  Uiso   1.00
C234   C     0.19468   0.02235   0.05678   0.00000  Uiso   1.00
C235   C     0.25196   0.90703   0.12029   0.00000  Uiso   1.00
C236   C     0.11750   0.35764   0.99362   0.00000  Uiso   1.00
C237   C     0.12497   0.42798   0.91689   0.00000  Uiso   1.00
C238   C     0.14146   0.53501   0.93643   0.00000  Uiso   1.00
C239   C     0.16792   0.71641   0.93030   0.00000  Uiso   1.00
C240   C     0.05494   0.23250   0.05057   0.00000  Uiso   1.00
C241   C     0.00979   0.19764   0.02171   0.00000  Uiso   1.00
C242   C     0.97361   0.19933   0.08919   0.00000  Uiso   1.00
C243   C     0.90293   0.18641   0.17147   0.00000  Uiso   1.00
C244   C     0.11560   0.30240   0.15961   0.00000  Uiso   1.00
C245   C     0.14603   0.20186   0.13145   0.00000  Uiso   1.00
C246   C     0.17919   0.14814   0.18883   0.00000  Uiso   1.00
C247   C     0.20339   0.05773   0.14991   0.00000  Uiso   1.00
C248   C     0.12619   0.39297   0.08658   0.00000  Uiso   1.00
C249   C     0.14267   0.49992   0.10624   0.00000  Uiso   1.00
C250   C     0.15017   0.57040   0.02956   0.00000  Uiso   1.00
C251   C     0.06363   0.26781   0.14353   0.00000  Uiso   1.00
C252   C     0.02750   0.26957   0.21107   0.00000  Uiso   1.00
C253   C     0.98232   0.23471   0.18232   0.00000  Uiso   1.00
H254   H     0.09283   0.20988   0.91609   0.00000  Uiso   1.00
H255   H     0.15475   0.04890   0.92752   0.00000  Uiso   1.00
H256   H     0.11823   0.40063   0.84496   0.00000  Uiso   1.00
H257   H     0.00308   0.17031   0.94976   0.00000  Uiso   1.00
H258   H     0.22724   0.88602   0.98119   0.00000  Uiso   1.00
H259   H     0.15023   0.62767   0.80709   0.00000  Uiso   1.00
H260   H     0.90741   0.14201   0.02809   0.00000  Uiso   1.00
H261   H     0.12237   0.32990   0.23199   0.00000  Uiso   1.00
H262   H     0.18591   0.17549   0.26076   0.00000  Uiso   1.00
H263   H     0.14939   0.52723   0.17819   0.00000  Uiso   1.00
H264   H     0.03424   0.29691   0.28300   0.00000  Uiso   1.00
H265   H     0.25254   0.98877   0.25165   0.00000  Uiso   1.00
H266   H     0.17552   0.73043   0.07756   0.00000  Uiso   1.00
H267   H     0.93270   0.24476   0.29856   0.00000  Uiso   1.00
O268   O     0.28117   0.83368   0.12964   0.00000  Uiso   1.00
O269   O     0.18012   0.80671   0.90123   0.00000  Uiso   1.00
O270   O     0.86154   0.16952   0.19118   0.00000  Uiso   1.00
N271   N     0.22447   0.93137   0.04090   0.00000  Uiso   1.00
N272   N     0.15247   0.62478   0.87813   0.00000  Uiso   1.00
N273   N     0.92545   0.17075   0.08474   0.00000  Uiso   1.00
N274   N     0.23808   0.98666   0.18644   0.00000  Uiso   1.00
N275   N     0.16608   0.68006   0.02367   0.00000  Uiso   1.00
N276   N     0.93906   0.22604   0.23027   0.00000  Uiso   1.00
C277   C     0.40160   0.77886   0.32027   0.00000  Uiso   1.00
C278   C     0.36470   0.85321   0.36904   0.00000  Uiso   1.00
C279   C     0.34244   0.94568   0.32922   0.00000  Uiso   1.00
C280   C     0.30972   0.00263   0.38543   0.00000  Uiso   1.00
C281   C     0.25393   0.12326   0.44705   0.00000  Uiso   1.00
C282   C     0.38161   0.66036   0.32489   0.00000  Uiso   1.00
C283   C     0.37358   0.59068   0.24795   0.00000  Uiso   1.00
C284   C     0.35512   0.48529   0.26699   0.00000  Uiso   1.00
C285   C     0.32563   0.30648   0.26006   0.00000  Uiso   1.00
C286   C     0.44579   0.77966   0.38380   0.00000  Uiso   1.00
C287   C     0.49172   0.81026   0.35639   0.00000  Uiso   1.00
C288   C     0.52729   0.80529   0.42504   0.00000  Uiso   1.00
C289   C     0.59744   0.81172   0.50958   0.00000  Uiso   1.00
C290   C     0.38308   0.71559   0.49090   0.00000  Uiso   1.00
C291   C     0.35464   0.81883   0.46172   0.00000  Uiso   1.00
C292   C     0.32195   0.87567   0.51801   0.00000  Uiso   1.00
C293   C     0.29965   0.96821   0.47828   0.00000  Uiso   1.00
C294   C     0.37156   0.62599   0.41757   0.00000  Uiso   1.00
C295   C     0.35310   0.52067   0.43673   0.00000  Uiso   1.00
C296   C     0.34504   0.45085   0.35984   0.00000  Uiso   1.00
C297   C     0.43573   0.74529   0.47649   0.00000  Uiso   1.00
C298   C     0.47124   0.74026   0.54518   0.00000  Uiso   1.00
C299   C     0.51721   0.77086   0.51788   0.00000  Uiso   1.00
H300   H     0.40943   0.80561   0.24811   0.00000  Uiso   1.00
H301   H     0.35023   0.97224   0.25749   0.00000  Uiso   1.00
H302   H     0.38137   0.61729   0.17623   0.00000  Uiso   1.00
H303   H     0.49949   0.83685   0.28467   0.00000  Uiso   1.00
H304   H     0.28014   0.14180   0.30875   0.00000  Uiso   1.00
H305   H     0.34584   0.39336   0.13742   0.00000  Uiso   1.00
H306   H     0.59491   0.85633   0.36607   0.00000  Uiso   1.00
H307   H     0.37525   0.68883   0.56306   0.00000  Uiso   1.00
H308   H     0.31417   0.84905   0.58973   0.00000  Uiso   1.00
H309   H     0.34532   0.49410   0.50846   0.00000  Uiso   1.00
H310   H     0.46344   0.71366   0.61689   0.00000  Uiso   1.00
H311   H     0.25088   0.04181   0.57840   0.00000  Uiso   1.00
H312   H     0.31658   0.29336   0.40706   0.00000  Uiso   1.00
H313   H     0.56565   0.75635   0.63571   0.00000  Uiso   1.00
O314   O     0.22594   0.19929   0.45543   0.00000  Uiso   1.00
O315   O     0.31214   0.21736   0.23064   0.00000  Uiso   1.00
O316   O     0.63892   0.82478   0.53062   0.00000  Uiso   1.00
N317   N     0.28164   0.09629   0.36856   0.00000  Uiso   1.00
N318   N     0.34306   0.39655   0.20837   0.00000  Uiso   1.00
N319   N     0.57593   0.82937   0.42213   0.00000  Uiso   1.00
N320   N     0.26590   0.04249   0.51366   0.00000  Uiso   1.00
N321   N     0.32731   0.34275   0.35346   0.00000  Uiso   1.00
N322   N     0.56018   0.77556   0.56723   0.00000  Uiso   1.00
C323   C     0.90040   0.76263   0.98846   0.00000  Uiso   1.00
C324   C     0.86267   0.83346   0.03849   0.00000  Uiso   1.00
C325   C     0.83852   0.92380   0.99947   0.00000  Uiso   1.00
C326   C     0.80532   0.97765   0.05678   0.00000  Uiso   1.00
C327   C     0.74804   0.09297   0.12029   0.00000  Uiso   1.00
C328   C     0.88250   0.64236   0.99362   0.00000  Uiso   1.00
C329   C     0.87503   0.57202   0.91689   0.00000  Uiso   1.00
C330   C     0.85854   0.46499   0.93643   0.00000  Uiso   1.00
C331   C     0.83208   0.28359   0.93030   0.00000  Uiso   1.00
C332   C     0.94506   0.76750   0.05057   0.00000  Uiso   1.00
C333   C     0.99021   0.80236   0.02171   0.00000  Uiso   1.00
C334   C     0.02639   0.80067   0.08919   0.00000  Uiso   1.00
C335   C     0.09707   0.81359   0.17147   0.00000  Uiso   1.00
C336   C     0.88440   0.69760   0.15961   0.00000  Uiso   1.00
C337   C     0.85397   0.79814   0.13145   0.00000  Uiso   1.00
C338   C     0.82081   0.85186   0.18883   0.00000  Uiso   1.00
C339   C     0.79661   0.94227   0.14991   0.00000  Uiso   1.00
C340   C     0.87381   0.60703   0.08658   0.00000  Uiso   1.00
C341   C     0.85733   0.50008   0.10624   0.00000  Uiso   1.00
C342   C     0.84983   0.42960   0.02956   0.00000  Uiso   1.00
C343   C     0.93637   0.73219   0.14353   0.00000  Uiso   1.00
C344   C     0.97250   0.73043   0.21107   0.00000  Uiso   1.00
C345   C     0.01768   0.76529   0.18232   0.00000  Uiso   1.00
H346   H     0.90717   0.79012   0.91609   0.00000  Uiso   1.00
H347   H     0.84525   0.95110   0.92752   0.00000  Uiso   1.00
H348   H     0.88177   0.59937   0.84496   0.00000  Uiso   1.00
H349   H     0.99692   0.82969   0.94976   0.00000  Uiso   1.00
H350   H     0.77276   0.11398   0.98119   0.00000  Uiso   1.00
H351   H     0.84977   0.37233   0.80709   0.00000  Uiso   1.00
H352   H     0.09259   0.85799   0.02809   0.00000  Uiso   1.00
H353   H     0.87763   0.67010   0.23199   0.00000  Uiso   1.00
H354   H     0.81409   0.82451   0.26076   0.00000  Uiso   1.00
H355   H     0.85061   0.47277   0.17819   0.00000  Uiso   1.00
H356   H     0.96576   0.70309   0.28300   0.00000  Uiso   1.00
H357   H     0.74746   0.01123   0.25165   0.00000  Uiso   1.00
H358   H     0.82448   0.26957   0.07756   0.00000  Uiso   1.00
H359   H     0.06730   0.75524   0.29856   0.00000  Uiso   1.00
O360   O     0.71883   0.16632   0.12964   0.00000  Uiso   1.00
O361   O     0.81988   0.19329   0.90123   0.00000  Uiso   1.00
O362   O     0.13846   0.83048   0.19118   0.00000  Uiso   1.00
N363   N     0.77553   0.06863   0.04090   0.00000  Uiso   1.00
N364   N     0.84753   0.37522   0.87813   0.00000  Uiso   1.00
N365   N     0.07455   0.82925   0.08474   0.00000  Uiso   1.00
N366   N     0.76192   0.01334   0.18644   0.00000  Uiso   1.00
N367   N     0.83392   0.31994   0.02367   0.00000  Uiso   1.00
N368   N     0.06094   0.77396   0.23027   0.00000  Uiso   1.00
