data_job_05750
_audit_creation_date              2018-12-19
_audit_creation_method            'Materials Studio'
_symmetry_space_group_name_H-M    'P1'
_symmetry_Int_Tables_number       1
_symmetry_cell_setting            triclinic
loop_
_symmetry_equiv_pos_as_xyz
  x,y,z
_cell_length_a                    14.1097
_cell_length_b                    38.5052
_cell_length_c                    9.5824
_cell_angle_alpha                 90.0000
_cell_angle_beta                  90.0000
_cell_angle_gamma                 90.0000
loop_
_atom_site_label
_atom_site_type_symbol
_atom_site_fract_x
_atom_site_fract_y
_atom_site_fract_z
_atom_site_U_iso_or_equiv
_atom_site_adp_type
_atom_site_occupancy
C1     C     0.45068   0.84444   0.56478   0.00000  Uiso   1.00
C2     C     0.41787   0.88148   0.59377   0.00000  Uiso   1.00
C3     C     0.45162   0.90290   0.69911   0.00000  Uiso   1.00
C4     C     0.41248   0.93590   0.70835   0.00000  Uiso   1.00
C5     C     0.37220   0.99171   0.76753   0.00000  Uiso   1.00
C6     C     0.36187   0.82192   0.57025   0.00000  Uiso   1.00
C7     C     0.34855   0.79325   0.65582   0.00000  Uiso   1.00
C8     C     0.26228   0.77611   0.64524   0.00000  Uiso   1.00
C9     C     0.13508   0.73942   0.66784   0.00000  Uiso   1.00
C10    C     0.48354   0.84400   0.41319   0.00000  Uiso   1.00
C11    C     0.57252   0.83389   0.36669   0.00000  Uiso   1.00
C12    C     0.58867   0.83533   0.22388   0.00000  Uiso   1.00
C13    C     0.65039   0.83293   0.00262   0.00000  Uiso   1.00
C14    C     0.32116   0.86497   0.39384   0.00000  Uiso   1.00
C15    C     0.34752   0.89263   0.50092   0.00000  Uiso   1.00
C16    C     0.30832   0.92561   0.50999   0.00000  Uiso   1.00
C17    C     0.34201   0.94707   0.61534   0.00000  Uiso   1.00
C18    C     0.29152   0.83306   0.47741   0.00000  Uiso   1.00
C19    C     0.20525   0.81596   0.46670   0.00000  Uiso   1.00
C20    C     0.19180   0.78727   0.55223   0.00000  Uiso   1.00
C21    C     0.41319   0.85515   0.32034   0.00000  Uiso   1.00
C22    C     0.42921   0.85660   0.17757   0.00000  Uiso   1.00
C23    C     0.51819   0.84650   0.13087   0.00000  Uiso   1.00
H24    H     0.50545   0.83576   0.63707   0.00000  Uiso   1.00
H25    H     0.50606   0.89426   0.77096   0.00000  Uiso   1.00
H26    H     0.40301   0.78462   0.72765   0.00000  Uiso   1.00
H27    H     0.62694   0.82526   0.43857   0.00000  Uiso   1.00
H28    H     0.47568   0.96402   0.87848   0.00000  Uiso   1.00
H29    H     0.25841   0.73285   0.78714   0.00000  Uiso   1.00
H30    H     0.73061   0.81854   0.17756   0.00000  Uiso   1.00
H31    H     0.26639   0.87365   0.32155   0.00000  Uiso   1.00
H32    H     0.25388   0.93423   0.43813   0.00000  Uiso   1.00
H33    H     0.15083   0.82459   0.39483   0.00000  Uiso   1.00
H34    H     0.37476   0.86523   0.10575   0.00000  Uiso   1.00
H35    H     0.27100   0.99647   0.60835   0.00000  Uiso   1.00
H36    H     0.05373   0.76529   0.51701   0.00000  Uiso   1.00
H37    H     0.52592   0.85098   0.90743   0.00000  Uiso   1.00
O38    O     0.36940   0.01941   0.82583   0.00000  Uiso   1.00
O39    O     0.08436   0.71611   0.70597   0.00000  Uiso   1.00
O40    O     0.70387   0.82853   0.90622   0.00000  Uiso   1.00
N41    N     0.42924   0.96335   0.79889   0.00000  Uiso   1.00
N42    N     0.22610   0.74722   0.71351   0.00000  Uiso   1.00
N43    N     0.66756   0.82732   0.14360   0.00000  Uiso   1.00
N44    N     0.31910   0.98081   0.65354   0.00000  Uiso   1.00
N45    N     0.11596   0.76467   0.56815   0.00000  Uiso   1.00
N46    N     0.55742   0.84477   0.99825   0.00000  Uiso   1.00
C47    C     0.45068   0.34444   0.06478   0.00000  Uiso   1.00
C48    C     0.41787   0.38148   0.09377   0.00000  Uiso   1.00
C49    C     0.45162   0.40290   0.19911   0.00000  Uiso   1.00
C50    C     0.41248   0.43590   0.20835   0.00000  Uiso   1.00
C51    C     0.37220   0.49171   0.26753   0.00000  Uiso   1.00
C52    C     0.36187   0.32192   0.07025   0.00000  Uiso   1.00
C53    C     0.34855   0.29325   0.15582   0.00000  Uiso   1.00
C54    C     0.26228   0.27611   0.14524   0.00000  Uiso   1.00
C55    C     0.13508   0.23942   0.16784   0.00000  Uiso   1.00
C56    C     0.48354   0.34400   0.91319   0.00000  Uiso   1.00
C57    C     0.57252   0.33389   0.86669   0.00000  Uiso   1.00
C58    C     0.58867   0.33533   0.72388   0.00000  Uiso   1.00
C59    C     0.65039   0.33293   0.50262   0.00000  Uiso   1.00
C60    C     0.32116   0.36497   0.89384   0.00000  Uiso   1.00
C61    C     0.34752   0.39263   0.00092   0.00000  Uiso   1.00
C62    C     0.30832   0.42561   0.00999   0.00000  Uiso   1.00
C63    C     0.34201   0.44707   0.11534   0.00000  Uiso   1.00
C64    C     0.29152   0.33306   0.97741   0.00000  Uiso   1.00
C65    C     0.20525   0.31596   0.96670   0.00000  Uiso   1.00
C66    C     0.19180   0.28727   0.05223   0.00000  Uiso   1.00
C67    C     0.41319   0.35515   0.82034   0.00000  Uiso   1.00
C68    C     0.42921   0.35660   0.67757   0.00000  Uiso   1.00
C69    C     0.51819   0.34650   0.63087   0.00000  Uiso   1.00
H70    H     0.50545   0.33576   0.13707   0.00000  Uiso   1.00
H71    H     0.50606   0.39426   0.27096   0.00000  Uiso   1.00
H72    H     0.40301   0.28462   0.22765   0.00000  Uiso   1.00
H73    H     0.62694   0.32526   0.93857   0.00000  Uiso   1.00
H74    H     0.47568   0.46402   0.37848   0.00000  Uiso   1.00
H75    H     0.25841   0.23285   0.28714   0.00000  Uiso   1.00
H76    H     0.73061   0.31854   0.67756   0.00000  Uiso   1.00
H77    H     0.26639   0.37365   0.82155   0.00000  Uiso   1.00
H78    H     0.25388   0.43423   0.93813   0.00000  Uiso   1.00
H79    H     0.15083   0.32459   0.89483   0.00000  Uiso   1.00
H80    H     0.37476   0.36523   0.60575   0.00000  Uiso   1.00
H81    H     0.27100   0.49647   0.10835   0.00000  Uiso   1.00
H82    H     0.05373   0.26529   0.01701   0.00000  Uiso   1.00
H83    H     0.52592   0.35098   0.40743   0.00000  Uiso   1.00
O84    O     0.36940   0.51941   0.32583   0.00000  Uiso   1.00
O85    O     0.08436   0.21611   0.20597   0.00000  Uiso   1.00
O86    O     0.70387   0.32853   0.40622   0.00000  Uiso   1.00
N87    N     0.42924   0.46335   0.29889   0.00000  Uiso   1.00
N88    N     0.22610   0.24722   0.21351   0.00000  Uiso   1.00
N89    N     0.66756   0.32732   0.64360   0.00000  Uiso   1.00
N90    N     0.31910   0.48081   0.15354   0.00000  Uiso   1.00
N91    N     0.11596   0.26467   0.06815   0.00000  Uiso   1.00
N92    N     0.55742   0.34477   0.49825   0.00000  Uiso   1.00
C93    C     0.54932   0.15556   0.56478   0.00000  Uiso   1.00
C94    C     0.58213   0.11852   0.59377   0.00000  Uiso   1.00
C95    C     0.54838   0.09710   0.69911   0.00000  Uiso   1.00
C96    C     0.58752   0.06410   0.70835   0.00000  Uiso   1.00
C97    C     0.62780   0.00829   0.76753   0.00000  Uiso   1.00
C98    C     0.63813   0.17808   0.57025   0.00000  Uiso   1.00
C99    C     0.65145   0.20675   0.65582   0.00000  Uiso   1.00
C100   C     0.73772   0.22389   0.64524   0.00000  Uiso   1.00
C101   C     0.86492   0.26058   0.66784   0.00000  Uiso   1.00
C102   C     0.51646   0.15600   0.41319   0.00000  Uiso   1.00
C103   C     0.42748   0.16611   0.36669   0.00000  Uiso   1.00
C104   C     0.41133   0.16467   0.22388   0.00000  Uiso   1.00
C105   C     0.34961   0.16707   0.00262   0.00000  Uiso   1.00
C106   C     0.67884   0.13503   0.39384   0.00000  Uiso   1.00
C107   C     0.65248   0.10737   0.50092   0.00000  Uiso   1.00
C108   C     0.69168   0.07439   0.50999   0.00000  Uiso   1.00
C109   C     0.65799   0.05293   0.61534   0.00000  Uiso   1.00
C110   C     0.70848   0.16694   0.47741   0.00000  Uiso   1.00
C111   C     0.79475   0.18404   0.46670   0.00000  Uiso   1.00
C112   C     0.80820   0.21273   0.55223   0.00000  Uiso   1.00
C113   C     0.58681   0.14485   0.32034   0.00000  Uiso   1.00
C114   C     0.57079   0.14340   0.17757   0.00000  Uiso   1.00
C115   C     0.48181   0.15350   0.13087   0.00000  Uiso   1.00
H116   H     0.49455   0.16424   0.63707   0.00000  Uiso   1.00
H117   H     0.49394   0.10574   0.77096   0.00000  Uiso   1.00
H118   H     0.59699   0.21538   0.72765   0.00000  Uiso   1.00
H119   H     0.37306   0.17474   0.43857   0.00000  Uiso   1.00
H120   H     0.52432   0.03598   0.87848   0.00000  Uiso   1.00
H121   H     0.74159   0.26715   0.78714   0.00000  Uiso   1.00
H122   H     0.26939   0.18146   0.17756   0.00000  Uiso   1.00
H123   H     0.73361   0.12635   0.32155   0.00000  Uiso   1.00
H124   H     0.74612   0.06577   0.43813   0.00000  Uiso   1.00
H125   H     0.84917   0.17541   0.39483   0.00000  Uiso   1.00
H126   H     0.62524   0.13477   0.10575   0.00000  Uiso   1.00
H127   H     0.72900   0.00353   0.60835   0.00000  Uiso   1.00
H128   H     0.94627   0.23471   0.51701   0.00000  Uiso   1.00
H129   H     0.47408   0.14902   0.90743   0.00000  Uiso   1.00
O130   O     0.63060   0.98059   0.82583   0.00000  Uiso   1.00
O131   O     0.91564   0.28389   0.70597   0.00000  Uiso   1.00
O132   O     0.29613   0.17147   0.90622   0.00000  Uiso   1.00
N133   N     0.57076   0.03665   0.79889   0.00000  Uiso   1.00
N134   N     0.77390   0.25278   0.71351   0.00000  Uiso   1.00
N135   N     0.33244   0.17268   0.14360   0.00000  Uiso   1.00
N136   N     0.68090   0.01919   0.65354   0.00000  Uiso   1.00
N137   N     0.88404   0.23533   0.56815   0.00000  Uiso   1.00
N138   N     0.44258   0.15523   0.99825   0.00000  Uiso   1.00
C139   C     0.54932   0.65556   0.06478   0.00000  Uiso   1.00
C140   C     0.58213   0.61852   0.09377   0.00000  Uiso   1.00
C141   C     0.54838   0.59710   0.19911   0.00000  Uiso   1.00
C142   C     0.58752   0.56410   0.20835   0.00000  Uiso   1.00
C143   C     0.62780   0.50829   0.26753   0.00000  Uiso   1.00
C144   C     0.63813   0.67808   0.07025   0.00000  Uiso   1.00
C145   C     0.65145   0.70675   0.15582   0.00000  Uiso   1.00
C146   C     0.73772   0.72389   0.14524   0.00000  Uiso   1.00
C147   C     0.86492   0.76058   0.16784   0.00000  Uiso   1.00
C148   C     0.51646   0.65600   0.91319   0.00000  Uiso   1.00
C149   C     0.42748   0.66611   0.86669   0.00000  Uiso   1.00
C150   C     0.41133   0.66467   0.72388   0.00000  Uiso   1.00
C151   C     0.34961   0.66707   0.50262   0.00000  Uiso   1.00
C152   C     0.67884   0.63503   0.89384   0.00000  Uiso   1.00
C153   C     0.65248   0.60737   0.00092   0.00000  Uiso   1.00
C154   C     0.69168   0.57439   0.00999   0.00000  Uiso   1.00
C155   C     0.65799   0.55293   0.11534   0.00000  Uiso   1.00
C156   C     0.70848   0.66694   0.97741   0.00000  Uiso   1.00
C157   C     0.79475   0.68404   0.96670   0.00000  Uiso   1.00
C158   C     0.80820   0.71273   0.05223   0.00000  Uiso   1.00
C159   C     0.58681   0.64485   0.82034   0.00000  Uiso   1.00
C160   C     0.57079   0.64340   0.67757   0.00000  Uiso   1.00
C161   C     0.48181   0.65350   0.63087   0.00000  Uiso   1.00
H162   H     0.49455   0.66424   0.13707   0.00000  Uiso   1.00
H163   H     0.49394   0.60574   0.27096   0.00000  Uiso   1.00
H164   H     0.59699   0.71538   0.22765   0.00000  Uiso   1.00
H165   H     0.37306   0.67474   0.93857   0.00000  Uiso   1.00
H166   H     0.52432   0.53598   0.37848   0.00000  Uiso   1.00
H167   H     0.74159   0.76715   0.28714   0.00000  Uiso   1.00
H168   H     0.26939   0.68146   0.67756   0.00000  Uiso   1.00
H169   H     0.73361   0.62635   0.82155   0.00000  Uiso   1.00
H170   H     0.74612   0.56577   0.93813   0.00000  Uiso   1.00
H171   H     0.84917   0.67541   0.89483   0.00000  Uiso   1.00
H172   H     0.62524   0.63477   0.60575   0.00000  Uiso   1.00
H173   H     0.72900   0.50353   0.10835   0.00000  Uiso   1.00
H174   H     0.94627   0.73471   0.01701   0.00000  Uiso   1.00
H175   H     0.47408   0.64902   0.40743   0.00000  Uiso   1.00
O176   O     0.63060   0.48059   0.32583   0.00000  Uiso   1.00
O177   O     0.91564   0.78389   0.20597   0.00000  Uiso   1.00
O178   O     0.29613   0.67147   0.40622   0.00000  Uiso   1.00
N179   N     0.57076   0.53665   0.29889   0.00000  Uiso   1.00
N180   N     0.77390   0.75278   0.21351   0.00000  Uiso   1.00
N181   N     0.33244   0.67268   0.64360   0.00000  Uiso   1.00
N182   N     0.68090   0.51919   0.15354   0.00000  Uiso   1.00
N183   N     0.88404   0.73533   0.06815   0.00000  Uiso   1.00
N184   N     0.44258   0.65523   0.49825   0.00000  Uiso   1.00
C185   C     0.95068   0.65556   0.56478   0.00000  Uiso   1.00
C186   C     0.91787   0.61852   0.59377   0.00000  Uiso   1.00
C187   C     0.95162   0.59710   0.69911   0.00000  Uiso   1.00
C188   C     0.91248   0.56410   0.70835   0.00000  Uiso   1.00
C189   C     0.87220   0.50829   0.76753   0.00000  Uiso   1.00
C190   C     0.86187   0.67808   0.57025   0.00000  Uiso   1.00
C191   C     0.84855   0.70675   0.65582   0.00000  Uiso   1.00
C192   C     0.76228   0.72389   0.64524   0.00000  Uiso   1.00
C193   C     0.63508   0.76058   0.66784   0.00000  Uiso   1.00
C194   C     0.98354   0.65600   0.41319   0.00000  Uiso   1.00
C195   C     0.07252   0.66611   0.36669   0.00000  Uiso   1.00
C196   C     0.08867   0.66467   0.22388   0.00000  Uiso   1.00
C197   C     0.15039   0.66707   0.00262   0.00000  Uiso   1.00
C198   C     0.82116   0.63503   0.39384   0.00000  Uiso   1.00
C199   C     0.84752   0.60737   0.50092   0.00000  Uiso   1.00
C200   C     0.80832   0.57439   0.50999   0.00000  Uiso   1.00
C201   C     0.84201   0.55293   0.61534   0.00000  Uiso   1.00
C202   C     0.79152   0.66694   0.47741   0.00000  Uiso   1.00
C203   C     0.70525   0.68404   0.46670   0.00000  Uiso   1.00
C204   C     0.69180   0.71273   0.55223   0.00000  Uiso   1.00
C205   C     0.91319   0.64485   0.32034   0.00000  Uiso   1.00
C206   C     0.92921   0.64340   0.17757   0.00000  Uiso   1.00
C207   C     0.01819   0.65350   0.13087   0.00000  Uiso   1.00
H208   H     0.00545   0.66424   0.63707   0.00000  Uiso   1.00
H209   H     0.00606   0.60574   0.77096   0.00000  Uiso   1.00
H210   H     0.90301   0.71538   0.72765   0.00000  Uiso   1.00
H211   H     0.12694   0.67474   0.43857   0.00000  Uiso   1.00
H212   H     0.97568   0.53598   0.87848   0.00000  Uiso   1.00
H213   H     0.75841   0.76715   0.78714   0.00000  Uiso   1.00
H214   H     0.23061   0.68146   0.17756   0.00000  Uiso   1.00
H215   H     0.76639   0.62635   0.32155   0.00000  Uiso   1.00
H216   H     0.75388   0.56577   0.43813   0.00000  Uiso   1.00
H217   H     0.65083   0.67541   0.39483   0.00000  Uiso   1.00
H218   H     0.87476   0.63477   0.10575   0.00000  Uiso   1.00
H219   H     0.77100   0.50353   0.60835   0.00000  Uiso   1.00
H220   H     0.55373   0.73471   0.51701   0.00000  Uiso   1.00
H221   H     0.02592   0.64902   0.90743   0.00000  Uiso   1.00
O222   O     0.86940   0.48059   0.82583   0.00000  Uiso   1.00
O223   O     0.58436   0.78389   0.70597   0.00000  Uiso   1.00
O224   O     0.20387   0.67147   0.90622   0.00000  Uiso   1.00
N225   N     0.92924   0.53665   0.79889   0.00000  Uiso   1.00
N226   N     0.72610   0.75278   0.71351   0.00000  Uiso   1.00
N227   N     0.16756   0.67268   0.14360   0.00000  Uiso   1.00
N228   N     0.81910   0.51919   0.65354   0.00000  Uiso   1.00
N229   N     0.61596   0.73533   0.56815   0.00000  Uiso   1.00
N230   N     0.05742   0.65523   0.99825   0.00000  Uiso   1.00
C231   C     0.95068   0.15556   0.06478   0.00000  Uiso   1.00
C232   C     0.91787   0.11852   0.09377   0.00000  Uiso   1.00
C233   C     0.95162   0.09710   0.19911   0.00000  Uiso   1.00
C234   C     0.91248   0.06410   0.20835   0.00000  Uiso   1.00
C235   C     0.87220   0.00829   0.26753   0.00000  Uiso   1.00
C236   C     0.86187   0.17808   0.07025   0.00000  Uiso   1.00
C237   C     0.84855   0.20675   0.15582   0.00000  Uiso   1.00
C238   C     0.76228   0.22389   0.14524   0.00000  Uiso   1.00
C239   C     0.63508   0.26058   0.16784   0.00000  Uiso   1.00
C240   C     0.98354   0.15600   0.91319   0.00000  Uiso   1.00
C241   C     0.07252   0.16611   0.86669   0.00000  Uiso   1.00
C242   C     0.08867   0.16467   0.72388   0.00000  Uiso   1.00
C243   C     0.15039   0.16707   0.50262   0.00000  Uiso   1.00
C244   C     0.82116   0.13503   0.89384   0.00000  Uiso   1.00
C245   C     0.84752   0.10737   0.00092   0.00000  Uiso   1.00
C246   C     0.80832   0.07439   0.00999   0.00000  Uiso   1.00
C247   C     0.84201   0.05293   0.11534   0.00000  Uiso   1.00
C248   C     0.79152   0.16694   0.97741   0.00000  Uiso   1.00
C249   C     0.70525   0.18404   0.96670   0.00000  Uiso   1.00
C250   C     0.69180   0.21273   0.05223   0.00000  Uiso   1.00
C251   C     0.91319   0.14485   0.82034   0.00000  Uiso   1.00
C252   C     0.92921   0.14340   0.67757   0.00000  Uiso   1.00
C253   C     0.01819   0.15350   0.63087   0.00000  Uiso   1.00
H254   H     0.00545   0.16424   0.13707   0.00000  Uiso   1.00
H255   H     0.00606   0.10574   0.27096   0.00000  Uiso   1.00
H256   H     0.90301   0.21538   0.22765   0.00000  Uiso   1.00
H257   H     0.12694   0.17474   0.93857   0.00000  Uiso   1.00
H258   H     0.97568   0.03598   0.37848   0.00000  Uiso   1.00
H259   H     0.75841   0.26715   0.28714   0.00000  Uiso   1.00
H260   H     0.23061   0.18146   0.67756   0.00000  Uiso   1.00
H261   H     0.76639   0.12635   0.82155   0.00000  Uiso   1.00
H262   H     0.75388   0.06577   0.93813   0.00000  Uiso   1.00
H263   H     0.65083   0.17541   0.89483   0.00000  Uiso   1.00
H264   H     0.87476   0.13477   0.60575   0.00000  Uiso   1.00
H265   H     0.77100   0.00353   0.10835   0.00000  Uiso   1.00
H266   H     0.55373   0.23471   0.01701   0.00000  Uiso   1.00
H267   H     0.02592   0.14902   0.40743   0.00000  Uiso   1.00
O268   O     0.86940   0.98059   0.32583   0.00000  Uiso   1.00
O269   O     0.58436   0.28389   0.20597   0.00000  Uiso   1.00
O270   O     0.20387   0.17147   0.40622   0.00000  Uiso   1.00
N271   N     0.92924   0.03665   0.29889   0.00000  Uiso   1.00
N272   N     0.72610   0.25278   0.21351   0.00000  Uiso   1.00
N273   N     0.16756   0.17268   0.64360   0.00000  Uiso   1.00
N274   N     0.81910   0.01919   0.15354   0.00000  Uiso   1.00
N275   N     0.61596   0.23533   0.06815   0.00000  Uiso   1.00
N276   N     0.05742   0.15523   0.49825   0.00000  Uiso   1.00
C277   C     0.04932   0.34444   0.56478   0.00000  Uiso   1.00
C278   C     0.08213   0.38148   0.59377   0.00000  Uiso   1.00
C279   C     0.04838   0.40290   0.69911   0.00000  Uiso   1.00
C280   C     0.08752   0.43590   0.70835   0.00000  Uiso   1.00
C281   C     0.12780   0.49171   0.76753   0.00000  Uiso   1.00
C282   C     0.13813   0.32192   0.57025   0.00000  Uiso   1.00
C283   C     0.15145   0.29325   0.65582   0.00000  Uiso   1.00
C284   C     0.23772   0.27611   0.64524   0.00000  Uiso   1.00
C285   C     0.36492   0.23942   0.66784   0.00000  Uiso   1.00
C286   C     0.01646   0.34400   0.41319   0.00000  Uiso   1.00
C287   C     0.92748   0.33389   0.36669   0.00000  Uiso   1.00
C288   C     0.91133   0.33533   0.22388   0.00000  Uiso   1.00
C289   C     0.84961   0.33293   0.00262   0.00000  Uiso   1.00
C290   C     0.17884   0.36497   0.39384   0.00000  Uiso   1.00
C291   C     0.15248   0.39263   0.50092   0.00000  Uiso   1.00
C292   C     0.19168   0.42561   0.50999   0.00000  Uiso   1.00
C293   C     0.15799   0.44707   0.61534   0.00000  Uiso   1.00
C294   C     0.20848   0.33306   0.47741   0.00000  Uiso   1.00
C295   C     0.29475   0.31596   0.46670   0.00000  Uiso   1.00
C296   C     0.30820   0.28727   0.55223   0.00000  Uiso   1.00
C297   C     0.08681   0.35515   0.32034   0.00000  Uiso   1.00
C298   C     0.07079   0.35660   0.17757   0.00000  Uiso   1.00
C299   C     0.98181   0.34650   0.13087   0.00000  Uiso   1.00
H300   H     0.99455   0.33576   0.63707   0.00000  Uiso   1.00
H301   H     0.99394   0.39426   0.77096   0.00000  Uiso   1.00
H302   H     0.09699   0.28462   0.72765   0.00000  Uiso   1.00
H303   H     0.87306   0.32526   0.43857   0.00000  Uiso   1.00
H304   H     0.02432   0.46402   0.87848   0.00000  Uiso   1.00
H305   H     0.24159   0.23285   0.78714   0.00000  Uiso   1.00
H306   H     0.76939   0.31854   0.17756   0.00000  Uiso   1.00
H307   H     0.23361   0.37365   0.32155   0.00000  Uiso   1.00
H308   H     0.24612   0.43423   0.43813   0.00000  Uiso   1.00
H309   H     0.34917   0.32459   0.39483   0.00000  Uiso   1.00
H310   H     0.12524   0.36523   0.10575   0.00000  Uiso   1.00
H311   H     0.22900   0.49647   0.60835   0.00000  Uiso   1.00
H312   H     0.44627   0.26529   0.51701   0.00000  Uiso   1.00
H313   H     0.97408   0.35098   0.90743   0.00000  Uiso   1.00
O314   O     0.13060   0.51941   0.82583   0.00000  Uiso   1.00
O315   O     0.41564   0.21611   0.70597   0.00000  Uiso   1.00
O316   O     0.79613   0.32853   0.90622   0.00000  Uiso   1.00
N317   N     0.07076   0.46335   0.79889   0.00000  Uiso   1.00
N318   N     0.27390   0.24722   0.71351   0.00000  Uiso   1.00
N319   N     0.83244   0.32732   0.14360   0.00000  Uiso   1.00
N320   N     0.18090   0.48081   0.65354   0.00000  Uiso   1.00
N321   N     0.38404   0.26467   0.56815   0.00000  Uiso   1.00
N322   N     0.94258   0.34477   0.99825   0.00000  Uiso   1.00
C323   C     0.04932   0.84444   0.06478   0.00000  Uiso   1.00
C324   C     0.08213   0.88148   0.09377   0.00000  Uiso   1.00
C325   C     0.04838   0.90290   0.19911   0.00000  Uiso   1.00
C326   C     0.08752   0.93590   0.20835   0.00000  Uiso   1.00
C327   C     0.12780   0.99171   0.26753   0.00000  Uiso   1.00
C328   C     0.13813   0.82192   0.07025   0.00000  Uiso   1.00
C329   C     0.15145   0.79325   0.15582   0.00000  Uiso   1.00
C330   C     0.23772   0.77611   0.14524   0.00000  Uiso   1.00
C331   C     0.36492   0.73942   0.16784   0.00000  Uiso   1.00
C332   C     0.01646   0.84400   0.91319   0.00000  Uiso   1.00
C333   C     0.92748   0.83389   0.86669   0.00000  Uiso   1.00
C334   C     0.91133   0.83533   0.72388   0.00000  Uiso   1.00
C335   C     0.84961   0.83293   0.50262   0.00000  Uiso   1.00
C336   C     0.17884   0.86497   0.89384   0.00000  Uiso   1.00
C337   C     0.15248   0.89263   0.00092   0.00000  Uiso   1.00
C338   C     0.19168   0.92561   0.00999   0.00000  Uiso   1.00
C339   C     0.15799   0.94707   0.11534   0.00000  Uiso   1.00
C340   C     0.20848   0.83306   0.97741   0.00000  Uiso   1.00
C341   C     0.29475   0.81596   0.96670   0.00000  Uiso   1.00
C342   C     0.30820   0.78727   0.05223   0.00000  Uiso   1.00
C343   C     0.08681   0.85515   0.82034   0.00000  Uiso   1.00
C344   C     0.07079   0.85660   0.67757   0.00000  Uiso   1.00
C345   C     0.98181   0.84650   0.63087   0.00000  Uiso   1.00
H346   H     0.99455   0.83576   0.13707   0.00000  Uiso   1.00
H347   H     0.99394   0.89426   0.27096   0.00000  Uiso   1.00
H348   H     0.09699   0.78462   0.22765   0.00000  Uiso   1.00
H349   H     0.87306   0.82526   0.93857   0.00000  Uiso   1.00
H350   H     0.02432   0.96402   0.37848   0.00000  Uiso   1.00
H351   H     0.24159   0.73285   0.28714   0.00000  Uiso   1.00
H352   H     0.76939   0.81854   0.67756   0.00000  Uiso   1.00
H353   H     0.23361   0.87365   0.82155   0.00000  Uiso   1.00
H354   H     0.24612   0.93423   0.93813   0.00000  Uiso   1.00
H355   H     0.34917   0.82459   0.89483   0.00000  Uiso   1.00
H356   H     0.12524   0.86523   0.60575   0.00000  Uiso   1.00
H357   H     0.22900   0.99647   0.10835   0.00000  Uiso   1.00
H358   H     0.44627   0.76529   0.01701   0.00000  Uiso   1.00
H359   H     0.97408   0.85098   0.40743   0.00000  Uiso   1.00
O360   O     0.13060   0.01941   0.32583   0.00000  Uiso   1.00
O361   O     0.41564   0.71611   0.20597   0.00000  Uiso   1.00
O362   O     0.79613   0.82853   0.40622   0.00000  Uiso   1.00
N363   N     0.07076   0.96335   0.29889   0.00000  Uiso   1.00
N364   N     0.27390   0.74722   0.21351   0.00000  Uiso   1.00
N365   N     0.83244   0.82732   0.64360   0.00000  Uiso   1.00
N366   N     0.18090   0.98081   0.15354   0.00000  Uiso   1.00
N367   N     0.38404   0.76467   0.06815   0.00000  Uiso   1.00
N368   N     0.94258   0.84477   0.49825   0.00000  Uiso   1.00
