data_job_03866
_audit_creation_date              2018-12-19
_audit_creation_method            'Materials Studio'
_symmetry_space_group_name_H-M    'P1'
_symmetry_Int_Tables_number       1
_symmetry_cell_setting            triclinic
loop_
_symmetry_equiv_pos_as_xyz
  x,y,z
_cell_length_a                    22.3429
_cell_length_b                    22.3429
_cell_length_c                    12.5843
_cell_angle_alpha                 90.0000
_cell_angle_beta                  90.0000
_cell_angle_gamma                 120.0000
loop_
_atom_site_label
_atom_site_type_symbol
_atom_site_fract_x
_atom_site_fract_y
_atom_site_fract_z
_atom_site_U_iso_or_equiv
_atom_site_adp_type
_atom_site_occupancy
C1     C     0.57436   0.78623   0.63737   0.00000  Uiso   1.00
C2     C     0.65293   0.82104   0.63209   0.00000  Uiso   1.00
C3     C     0.69167   0.78947   0.65290   0.00000  Uiso   1.00
C4     C     0.76293   0.83018   0.64374   0.00000  Uiso   1.00
C5     C     0.88016   0.87362   0.63999   0.00000  Uiso   1.00
C6     C     0.55858   0.82891   0.71504   0.00000  Uiso   1.00
C7     C     0.51798   0.80396   0.80558   0.00000  Uiso   1.00
C8     C     0.50982   0.85130   0.86624   0.00000  Uiso   1.00
C9     C     0.48052   0.90696   0.99122   0.00000  Uiso   1.00
C10    C     0.55110   0.79676   0.52849   0.00000  Uiso   1.00
C11    C     0.50421   0.74478   0.46219   0.00000  Uiso   1.00
C12    C     0.48974   0.76505   0.36579   0.00000  Uiso   1.00
C13    C     0.44884   0.77079   0.20113   0.00000  Uiso   1.00
C14    C     0.63203   0.91467   0.58409   0.00000  Uiso   1.00
C15    C     0.68425   0.89080   0.60315   0.00000  Uiso   1.00
C16    C     0.75548   0.93157   0.59395   0.00000  Uiso   1.00
C17    C     0.79432   0.90007   0.61474   0.00000  Uiso   1.00
C18    C     0.58990   0.89867   0.68610   0.00000  Uiso   1.00
C19    C     0.58179   0.94606   0.74663   0.00000  Uiso   1.00
C20    C     0.54120   0.92119   0.83725   0.00000  Uiso   1.00
C21    C     0.58243   0.86652   0.49955   0.00000  Uiso   1.00
C22    C     0.56802   0.88688   0.40324   0.00000  Uiso   1.00
C23    C     0.52112   0.83494   0.33680   0.00000  Uiso   1.00
H24    H     0.54997   0.73192   0.65991   0.00000  Uiso   1.00
H25    H     0.66741   0.73548   0.67531   0.00000  Uiso   1.00
H26    H     0.49374   0.74997   0.82795   0.00000  Uiso   1.00
H27    H     0.47998   0.69080   0.48461   0.00000  Uiso   1.00
H28    H     0.81142   0.77020   0.67965   0.00000  Uiso   1.00
H29    H     0.44522   0.80074   0.00149   0.00000  Uiso   1.00
H30    H     0.41619   0.67597   0.27749   0.00000  Uiso   1.00
H31    H     0.65642   0.96899   0.56156   0.00000  Uiso   1.00
H32    H     0.77970   0.98556   0.57155   0.00000  Uiso   1.00
H33    H     0.60603   0.00005   0.72421   0.00000  Uiso   1.00
H34    H     0.59227   0.94088   0.38087   0.00000  Uiso   1.00
H35    H     0.90256   0.97317   0.59545   0.00000  Uiso   1.00
H36    H     0.53636   0.00372   0.91729   0.00000  Uiso   1.00
H37    H     0.50733   0.87895   0.19329   0.00000  Uiso   1.00
O38    O     0.93617   0.87831   0.64593   0.00000  Uiso   1.00
O39    O     0.45571   0.91839   0.06817   0.00000  Uiso   1.00
O40    O     0.41763   0.75468   0.11830   0.00000  Uiso   1.00
N41    N     0.81595   0.81569   0.65844   0.00000  Uiso   1.00
N42    N     0.47358   0.84425   0.95936   0.00000  Uiso   1.00
N43    N     0.44643   0.72760   0.28249   0.00000  Uiso   1.00
N44    N     0.86500   0.92491   0.61313   0.00000  Uiso   1.00
N45    N     0.52263   0.95347   0.91405   0.00000  Uiso   1.00
N46    N     0.49547   0.83682   0.23718   0.00000  Uiso   1.00
C47    C     0.21377   0.78813   0.63737   0.00000  Uiso   1.00
C48    C     0.17896   0.83189   0.63209   0.00000  Uiso   1.00
C49    C     0.21053   0.90220   0.65290   0.00000  Uiso   1.00
C50    C     0.16982   0.93276   0.64374   0.00000  Uiso   1.00
C51    C     0.12638   0.00654   0.63999   0.00000  Uiso   1.00
C52    C     0.17109   0.72967   0.71504   0.00000  Uiso   1.00
C53    C     0.19604   0.71402   0.80558   0.00000  Uiso   1.00
C54    C     0.14870   0.65851   0.86624   0.00000  Uiso   1.00
C55    C     0.09304   0.57356   0.99122   0.00000  Uiso   1.00
C56    C     0.20324   0.75434   0.52849   0.00000  Uiso   1.00
C57    C     0.25522   0.75943   0.46219   0.00000  Uiso   1.00
C58    C     0.23495   0.72469   0.36579   0.00000  Uiso   1.00
C59    C     0.22921   0.67805   0.20113   0.00000  Uiso   1.00
C60    C     0.08533   0.71736   0.58409   0.00000  Uiso   1.00
C61    C     0.10920   0.79345   0.60315   0.00000  Uiso   1.00
C62    C     0.06843   0.82390   0.59395   0.00000  Uiso   1.00
C63    C     0.09993   0.89425   0.61474   0.00000  Uiso   1.00
C64    C     0.10133   0.69123   0.68610   0.00000  Uiso   1.00
C65    C     0.05394   0.63572   0.74663   0.00000  Uiso   1.00
C66    C     0.07881   0.62000   0.83725   0.00000  Uiso   1.00
C67    C     0.13348   0.71590   0.49955   0.00000  Uiso   1.00
C68    C     0.11312   0.68114   0.40324   0.00000  Uiso   1.00
C69    C     0.16506   0.68618   0.33680   0.00000  Uiso   1.00
H70    H     0.26808   0.81806   0.65991   0.00000  Uiso   1.00
H71    H     0.26452   0.93193   0.67531   0.00000  Uiso   1.00
H72    H     0.25003   0.74378   0.82795   0.00000  Uiso   1.00
H73    H     0.30920   0.78918   0.48461   0.00000  Uiso   1.00
H74    H     0.22980   0.04123   0.67965   0.00000  Uiso   1.00
H75    H     0.19926   0.64448   0.00149   0.00000  Uiso   1.00
H76    H     0.32403   0.74022   0.27749   0.00000  Uiso   1.00
H77    H     0.03101   0.68743   0.56156   0.00000  Uiso   1.00
H78    H     0.01444   0.79414   0.57155   0.00000  Uiso   1.00
H79    H     0.99995   0.60599   0.72421   0.00000  Uiso   1.00
H80    H     0.05912   0.65139   0.38087   0.00000  Uiso   1.00
H81    H     0.02683   0.92939   0.59545   0.00000  Uiso   1.00
H82    H     0.99628   0.53264   0.91729   0.00000  Uiso   1.00
H83    H     0.12105   0.62839   0.19329   0.00000  Uiso   1.00
O84    O     0.12169   0.05786   0.64593   0.00000  Uiso   1.00
O85    O     0.08161   0.53733   0.06817   0.00000  Uiso   1.00
O86    O     0.24532   0.66295   0.11830   0.00000  Uiso   1.00
N87    N     0.18431   0.00026   0.65844   0.00000  Uiso   1.00
N88    N     0.15575   0.62933   0.95936   0.00000  Uiso   1.00
N89    N     0.27240   0.71883   0.28249   0.00000  Uiso   1.00
N90    N     0.07509   0.94009   0.61313   0.00000  Uiso   1.00
N91    N     0.04653   0.56916   0.91405   0.00000  Uiso   1.00
N92    N     0.16318   0.65866   0.23718   0.00000  Uiso   1.00
C93    C     0.21187   0.42564   0.63737   0.00000  Uiso   1.00
C94    C     0.16811   0.34707   0.63209   0.00000  Uiso   1.00
C95    C     0.09780   0.30833   0.65290   0.00000  Uiso   1.00
C96    C     0.06724   0.23707   0.64374   0.00000  Uiso   1.00
C97    C     0.99346   0.11984   0.63999   0.00000  Uiso   1.00
C98    C     0.27033   0.44142   0.71504   0.00000  Uiso   1.00
C99    C     0.28598   0.48202   0.80558   0.00000  Uiso   1.00
C100   C     0.34149   0.49018   0.86624   0.00000  Uiso   1.00
C101   C     0.42644   0.51948   0.99122   0.00000  Uiso   1.00
C102   C     0.24566   0.44890   0.52849   0.00000  Uiso   1.00
C103   C     0.24057   0.49579   0.46219   0.00000  Uiso   1.00
C104   C     0.27531   0.51026   0.36579   0.00000  Uiso   1.00
C105   C     0.32195   0.55116   0.20113   0.00000  Uiso   1.00
C106   C     0.28264   0.36797   0.58409   0.00000  Uiso   1.00
C107   C     0.20655   0.31575   0.60315   0.00000  Uiso   1.00
C108   C     0.17610   0.24452   0.59395   0.00000  Uiso   1.00
C109   C     0.10575   0.20568   0.61474   0.00000  Uiso   1.00
C110   C     0.30877   0.41010   0.68610   0.00000  Uiso   1.00
C111   C     0.36428   0.41821   0.74663   0.00000  Uiso   1.00
C112   C     0.38000   0.45880   0.83725   0.00000  Uiso   1.00
C113   C     0.28410   0.41757   0.49955   0.00000  Uiso   1.00
C114   C     0.31886   0.43198   0.40324   0.00000  Uiso   1.00
C115   C     0.31382   0.47888   0.33680   0.00000  Uiso   1.00
H116   H     0.18194   0.45003   0.65991   0.00000  Uiso   1.00
H117   H     0.06807   0.33259   0.67531   0.00000  Uiso   1.00
H118   H     0.25622   0.50626   0.82795   0.00000  Uiso   1.00
H119   H     0.21082   0.52002   0.48461   0.00000  Uiso   1.00
H120   H     0.95877   0.18858   0.67965   0.00000  Uiso   1.00
H121   H     0.35552   0.55478   0.00149   0.00000  Uiso   1.00
H122   H     0.25978   0.58381   0.27749   0.00000  Uiso   1.00
H123   H     0.31257   0.34358   0.56156   0.00000  Uiso   1.00
H124   H     0.20586   0.22030   0.57155   0.00000  Uiso   1.00
H125   H     0.39401   0.39397   0.72421   0.00000  Uiso   1.00
H126   H     0.34861   0.40773   0.38087   0.00000  Uiso   1.00
H127   H     0.07061   0.09744   0.59545   0.00000  Uiso   1.00
H128   H     0.46736   0.46364   0.91729   0.00000  Uiso   1.00
H129   H     0.37161   0.49267   0.19329   0.00000  Uiso   1.00
O130   O     0.94214   0.06383   0.64593   0.00000  Uiso   1.00
O131   O     0.46267   0.54429   0.06817   0.00000  Uiso   1.00
O132   O     0.33705   0.58237   0.11830   0.00000  Uiso   1.00
N133   N     0.99974   0.18405   0.65844   0.00000  Uiso   1.00
N134   N     0.37067   0.52642   0.95936   0.00000  Uiso   1.00
N135   N     0.28117   0.55357   0.28249   0.00000  Uiso   1.00
N136   N     0.05991   0.13500   0.61313   0.00000  Uiso   1.00
N137   N     0.43084   0.47737   0.91405   0.00000  Uiso   1.00
N138   N     0.34134   0.50453   0.23718   0.00000  Uiso   1.00
C139   C     0.42564   0.21377   0.36263   0.00000  Uiso   1.00
C140   C     0.34707   0.17896   0.36791   0.00000  Uiso   1.00
C141   C     0.30833   0.21053   0.34710   0.00000  Uiso   1.00
C142   C     0.23707   0.16982   0.35626   0.00000  Uiso   1.00
C143   C     0.11984   0.12638   0.36001   0.00000  Uiso   1.00
C144   C     0.44142   0.17109   0.28496   0.00000  Uiso   1.00
C145   C     0.48202   0.19604   0.19442   0.00000  Uiso   1.00
C146   C     0.49018   0.14870   0.13376   0.00000  Uiso   1.00
C147   C     0.51948   0.09304   0.00878   0.00000  Uiso   1.00
C148   C     0.44890   0.20324   0.47151   0.00000  Uiso   1.00
C149   C     0.49579   0.25522   0.53781   0.00000  Uiso   1.00
C150   C     0.51026   0.23495   0.63421   0.00000  Uiso   1.00
C151   C     0.55116   0.22921   0.79887   0.00000  Uiso   1.00
C152   C     0.36797   0.08533   0.41591   0.00000  Uiso   1.00
C153   C     0.31575   0.10920   0.39685   0.00000  Uiso   1.00
C154   C     0.24452   0.06843   0.40605   0.00000  Uiso   1.00
C155   C     0.20568   0.09993   0.38526   0.00000  Uiso   1.00
C156   C     0.41010   0.10133   0.31390   0.00000  Uiso   1.00
C157   C     0.41821   0.05394   0.25337   0.00000  Uiso   1.00
C158   C     0.45880   0.07881   0.16275   0.00000  Uiso   1.00
C159   C     0.41757   0.13348   0.50045   0.00000  Uiso   1.00
C160   C     0.43198   0.11312   0.59676   0.00000  Uiso   1.00
C161   C     0.47888   0.16506   0.66320   0.00000  Uiso   1.00
H162   H     0.45003   0.26808   0.34009   0.00000  Uiso   1.00
H163   H     0.33259   0.26452   0.32469   0.00000  Uiso   1.00
H164   H     0.50626   0.25003   0.17205   0.00000  Uiso   1.00
H165   H     0.52002   0.30920   0.51539   0.00000  Uiso   1.00
H166   H     0.18858   0.22980   0.32035   0.00000  Uiso   1.00
H167   H     0.55478   0.19926   0.99851   0.00000  Uiso   1.00
H168   H     0.58381   0.32403   0.72251   0.00000  Uiso   1.00
H169   H     0.34358   0.03101   0.43844   0.00000  Uiso   1.00
H170   H     0.22030   0.01444   0.42845   0.00000  Uiso   1.00
H171   H     0.39397   0.99995   0.27579   0.00000  Uiso   1.00
H172   H     0.40773   0.05912   0.61913   0.00000  Uiso   1.00
H173   H     0.09744   0.02683   0.40455   0.00000  Uiso   1.00
H174   H     0.46364   0.99628   0.08271   0.00000  Uiso   1.00
H175   H     0.49267   0.12105   0.80671   0.00000  Uiso   1.00
O176   O     0.06383   0.12169   0.35407   0.00000  Uiso   1.00
O177   O     0.54429   0.08161   0.93183   0.00000  Uiso   1.00
O178   O     0.58237   0.24532   0.88170   0.00000  Uiso   1.00
N179   N     0.18405   0.18431   0.34156   0.00000  Uiso   1.00
N180   N     0.52642   0.15575   0.04064   0.00000  Uiso   1.00
N181   N     0.55357   0.27240   0.71751   0.00000  Uiso   1.00
N182   N     0.13500   0.07509   0.38687   0.00000  Uiso   1.00
N183   N     0.47737   0.04653   0.08595   0.00000  Uiso   1.00
N184   N     0.50453   0.16318   0.76282   0.00000  Uiso   1.00
C185   C     0.78623   0.21187   0.36263   0.00000  Uiso   1.00
C186   C     0.82104   0.16811   0.36791   0.00000  Uiso   1.00
C187   C     0.78947   0.09780   0.34710   0.00000  Uiso   1.00
C188   C     0.83018   0.06724   0.35626   0.00000  Uiso   1.00
C189   C     0.87362   0.99346   0.36001   0.00000  Uiso   1.00
C190   C     0.82891   0.27033   0.28496   0.00000  Uiso   1.00
C191   C     0.80396   0.28598   0.19442   0.00000  Uiso   1.00
C192   C     0.85130   0.34149   0.13376   0.00000  Uiso   1.00
C193   C     0.90696   0.42644   0.00878   0.00000  Uiso   1.00
C194   C     0.79676   0.24566   0.47151   0.00000  Uiso   1.00
C195   C     0.74478   0.24057   0.53781   0.00000  Uiso   1.00
C196   C     0.76505   0.27531   0.63421   0.00000  Uiso   1.00
C197   C     0.77079   0.32195   0.79887   0.00000  Uiso   1.00
C198   C     0.91467   0.28264   0.41591   0.00000  Uiso   1.00
C199   C     0.89080   0.20655   0.39685   0.00000  Uiso   1.00
C200   C     0.93157   0.17610   0.40605   0.00000  Uiso   1.00
C201   C     0.90007   0.10575   0.38526   0.00000  Uiso   1.00
C202   C     0.89867   0.30877   0.31390   0.00000  Uiso   1.00
C203   C     0.94606   0.36428   0.25337   0.00000  Uiso   1.00
C204   C     0.92119   0.38000   0.16275   0.00000  Uiso   1.00
C205   C     0.86652   0.28410   0.50045   0.00000  Uiso   1.00
C206   C     0.88688   0.31886   0.59676   0.00000  Uiso   1.00
C207   C     0.83494   0.31382   0.66320   0.00000  Uiso   1.00
H208   H     0.73192   0.18194   0.34009   0.00000  Uiso   1.00
H209   H     0.73548   0.06807   0.32469   0.00000  Uiso   1.00
H210   H     0.74997   0.25622   0.17205   0.00000  Uiso   1.00
H211   H     0.69080   0.21082   0.51539   0.00000  Uiso   1.00
H212   H     0.77020   0.95877   0.32035   0.00000  Uiso   1.00
H213   H     0.80074   0.35552   0.99851   0.00000  Uiso   1.00
H214   H     0.67597   0.25978   0.72251   0.00000  Uiso   1.00
H215   H     0.96899   0.31257   0.43844   0.00000  Uiso   1.00
H216   H     0.98556   0.20586   0.42845   0.00000  Uiso   1.00
H217   H     0.00005   0.39401   0.27579   0.00000  Uiso   1.00
H218   H     0.94088   0.34861   0.61913   0.00000  Uiso   1.00
H219   H     0.97317   0.07061   0.40455   0.00000  Uiso   1.00
H220   H     0.00372   0.46736   0.08271   0.00000  Uiso   1.00
H221   H     0.87895   0.37161   0.80671   0.00000  Uiso   1.00
O222   O     0.87831   0.94214   0.35407   0.00000  Uiso   1.00
O223   O     0.91839   0.46267   0.93183   0.00000  Uiso   1.00
O224   O     0.75468   0.33705   0.88170   0.00000  Uiso   1.00
N225   N     0.81569   0.99974   0.34156   0.00000  Uiso   1.00
N226   N     0.84425   0.37067   0.04064   0.00000  Uiso   1.00
N227   N     0.72760   0.28117   0.71751   0.00000  Uiso   1.00
N228   N     0.92491   0.05991   0.38687   0.00000  Uiso   1.00
N229   N     0.95347   0.43084   0.08595   0.00000  Uiso   1.00
N230   N     0.83682   0.34134   0.76282   0.00000  Uiso   1.00
C231   C     0.78813   0.57436   0.36263   0.00000  Uiso   1.00
C232   C     0.83189   0.65293   0.36791   0.00000  Uiso   1.00
C233   C     0.90220   0.69167   0.34710   0.00000  Uiso   1.00
C234   C     0.93276   0.76293   0.35626   0.00000  Uiso   1.00
C235   C     0.00654   0.88016   0.36001   0.00000  Uiso   1.00
C236   C     0.72967   0.55858   0.28496   0.00000  Uiso   1.00
C237   C     0.71402   0.51798   0.19442   0.00000  Uiso   1.00
C238   C     0.65851   0.50982   0.13376   0.00000  Uiso   1.00
C239   C     0.57356   0.48052   0.00878   0.00000  Uiso   1.00
C240   C     0.75434   0.55110   0.47151   0.00000  Uiso   1.00
C241   C     0.75943   0.50421   0.53781   0.00000  Uiso   1.00
C242   C     0.72469   0.48974   0.63421   0.00000  Uiso   1.00
C243   C     0.67805   0.44884   0.79887   0.00000  Uiso   1.00
C244   C     0.71736   0.63203   0.41591   0.00000  Uiso   1.00
C245   C     0.79345   0.68425   0.39685   0.00000  Uiso   1.00
C246   C     0.82390   0.75548   0.40605   0.00000  Uiso   1.00
C247   C     0.89425   0.79432   0.38526   0.00000  Uiso   1.00
C248   C     0.69123   0.58990   0.31390   0.00000  Uiso   1.00
C249   C     0.63572   0.58179   0.25337   0.00000  Uiso   1.00
C250   C     0.62000   0.54120   0.16275   0.00000  Uiso   1.00
C251   C     0.71590   0.58243   0.50045   0.00000  Uiso   1.00
C252   C     0.68114   0.56802   0.59676   0.00000  Uiso   1.00
C253   C     0.68618   0.52112   0.66320   0.00000  Uiso   1.00
H254   H     0.81806   0.54997   0.34009   0.00000  Uiso   1.00
H255   H     0.93193   0.66741   0.32469   0.00000  Uiso   1.00
H256   H     0.74378   0.49374   0.17205   0.00000  Uiso   1.00
H257   H     0.78918   0.47998   0.51539   0.00000  Uiso   1.00
H258   H     0.04123   0.81142   0.32035   0.00000  Uiso   1.00
H259   H     0.64448   0.44522   0.99851   0.00000  Uiso   1.00
H260   H     0.74022   0.41619   0.72251   0.00000  Uiso   1.00
H261   H     0.68743   0.65642   0.43844   0.00000  Uiso   1.00
H262   H     0.79414   0.77970   0.42845   0.00000  Uiso   1.00
H263   H     0.60599   0.60603   0.27579   0.00000  Uiso   1.00
H264   H     0.65139   0.59227   0.61913   0.00000  Uiso   1.00
H265   H     0.92939   0.90256   0.40455   0.00000  Uiso   1.00
H266   H     0.53264   0.53636   0.08271   0.00000  Uiso   1.00
H267   H     0.62839   0.50733   0.80671   0.00000  Uiso   1.00
O268   O     0.05786   0.93617   0.35407   0.00000  Uiso   1.00
O269   O     0.53733   0.45571   0.93183   0.00000  Uiso   1.00
O270   O     0.66295   0.41763   0.88170   0.00000  Uiso   1.00
N271   N     0.00026   0.81595   0.34156   0.00000  Uiso   1.00
N272   N     0.62933   0.47358   0.04064   0.00000  Uiso   1.00
N273   N     0.71883   0.44643   0.71751   0.00000  Uiso   1.00
N274   N     0.94009   0.86500   0.38687   0.00000  Uiso   1.00
N275   N     0.56916   0.52263   0.08595   0.00000  Uiso   1.00
N276   N     0.65866   0.49547   0.76282   0.00000  Uiso   1.00
