data_job_06302
_audit_creation_date              2018-12-19
_audit_creation_method            'Materials Studio'
_symmetry_space_group_name_H-M    'P1'
_symmetry_Int_Tables_number       1
_symmetry_cell_setting            triclinic
loop_
_symmetry_equiv_pos_as_xyz
  x,y,z
_cell_length_a                    8.2664
_cell_length_b                    22.5594
_cell_length_c                    24.0899
_cell_angle_alpha                 115.1580
_cell_angle_beta                  98.5701
_cell_angle_gamma                 96.2699
loop_
_atom_site_label
_atom_site_type_symbol
_atom_site_fract_x
_atom_site_fract_y
_atom_site_fract_z
_atom_site_U_iso_or_equiv
_atom_site_adp_type
_atom_site_occupancy
C1     C     0.26294   0.20581   0.35812   0.00000  Uiso   1.00
C2     C     0.31072   0.15530   0.29991   0.00000  Uiso   1.00
C3     C     0.20024   0.10882   0.24525   0.00000  Uiso   1.00
C4     C     0.26871   0.06703   0.19733   0.00000  Uiso   1.00
C5     C     0.31661   0.98786   0.10597   0.00000  Uiso   1.00
C6     C     0.34299   0.19375   0.41270   0.00000  Uiso   1.00
C7     C     0.25965   0.17960   0.45287   0.00000  Uiso   1.00
C8     C     0.35529   0.17019   0.49990   0.00000  Uiso   1.00
C9     C     0.45332   0.15078   0.58367   0.00000  Uiso   1.00
C10    C     0.35306   0.27419   0.37003   0.00000  Uiso   1.00
C11    C     0.27819   0.32768   0.37434   0.00000  Uiso   1.00
C12    C     0.38232   0.38600   0.38545   0.00000  Uiso   1.00
C13    C     0.49598   0.49147   0.40296   0.00000  Uiso   1.00
C14    C     0.58099   0.21426   0.37021   0.00000  Uiso   1.00
C15    C     0.48347   0.15989   0.30649   0.00000  Uiso   1.00
C16    C     0.55213   0.11816   0.25863   0.00000  Uiso   1.00
C17    C     0.44177   0.07163   0.20391   0.00000  Uiso   1.00
C18    C     0.51574   0.19834   0.41927   0.00000  Uiso   1.00
C19    C     0.61153   0.18895   0.46625   0.00000  Uiso   1.00
C20    C     0.52836   0.17479   0.50648   0.00000  Uiso   1.00
C21    C     0.52582   0.27877   0.37659   0.00000  Uiso   1.00
C22    C     0.63008   0.33703   0.38771   0.00000  Uiso   1.00
C23    C     0.55539   0.39060   0.39203   0.00000  Uiso   1.00
H24    H     0.12845   0.20224   0.35301   0.00000  Uiso   1.00
H25    H     0.06656   0.10527   0.24019   0.00000  Uiso   1.00
H26    H     0.12597   0.17606   0.44778   0.00000  Uiso   1.00
H27    H     0.14451   0.32411   0.36925   0.00000  Uiso   1.00
H28    H     0.07413   0.99978   0.11802   0.00000  Uiso   1.00
H29    H     0.19939   0.14905   0.55575   0.00000  Uiso   1.00
H30    H     0.23849   0.46125   0.39015   0.00000  Uiso   1.00
H31    H     0.71549   0.21784   0.37533   0.00000  Uiso   1.00
H32    H     0.68582   0.12172   0.26373   0.00000  Uiso   1.00
H33    H     0.74522   0.19251   0.47132   0.00000  Uiso   1.00
H34    H     0.76376   0.34056   0.39279   0.00000  Uiso   1.00
H35    H     0.57674   0.01312   0.13712   0.00000  Uiso   1.00
H36    H     0.70200   0.16241   0.57486   0.00000  Uiso   1.00
H37    H     0.74110   0.47460   0.40926   0.00000  Uiso   1.00
O38    O     0.29532   0.94293   0.05376   0.00000  Uiso   1.00
O39    O     0.45966   0.13879   0.62806   0.00000  Uiso   1.00
O40    O     0.51095   0.54838   0.41080   0.00000  Uiso   1.00
N41    N     0.19649   0.01612   0.13782   0.00000  Uiso   1.00
N42    N     0.31360   0.15567   0.54707   0.00000  Uiso   1.00
N43    N     0.35016   0.44756   0.39227   0.00000  Uiso   1.00
N44    N     0.46694   0.02330   0.14810   0.00000  Uiso   1.00
N45    N     0.58405   0.16286   0.55735   0.00000  Uiso   1.00
N46    N     0.62061   0.45474   0.40255   0.00000  Uiso   1.00
C47    C     0.05984   0.62040   0.84482   0.00000  Uiso   1.00
C48    C     0.12567   0.68850   0.84934   0.00000  Uiso   1.00
C49    C     0.03905   0.74044   0.86145   0.00000  Uiso   1.00
C50    C     0.12107   0.79876   0.86368   0.00000  Uiso   1.00
C51    C     0.19849   0.90356   0.87211   0.00000  Uiso   1.00
C52    C     0.07472   0.56905   0.78039   0.00000  Uiso   1.00
C53    C     0.94526   0.52056   0.73455   0.00000  Uiso   1.00
C54    C     0.98441   0.47832   0.67875   0.00000  Uiso   1.00
C55    C     0.98275   0.39764   0.58017   0.00000  Uiso   1.00
C56    C     0.18451   0.61133   0.89267   0.00000  Uiso   1.00
C57    C     0.14736   0.59837   0.94123   0.00000  Uiso   1.00
C58    C     0.27893   0.59172   0.97995   0.00000  Uiso   1.00
C59    C     0.44774   0.57669   0.05569   0.00000  Uiso   1.00
C60    C     0.35954   0.63160   0.82723   0.00000  Uiso   1.00
C61    C     0.28845   0.69458   0.83978   0.00000  Uiso   1.00
C62    C     0.37064   0.75283   0.84199   0.00000  Uiso   1.00
C63    C     0.28415   0.80486   0.85411   0.00000  Uiso   1.00
C64    C     0.23750   0.57513   0.77084   0.00000  Uiso   1.00
C65    C     0.27685   0.53295   0.71509   0.00000  Uiso   1.00
C66    C     0.14749   0.48441   0.66917   0.00000  Uiso   1.00
C67    C     0.34729   0.61741   0.88312   0.00000  Uiso   1.00
C68    C     0.47895   0.61077   0.92177   0.00000  Uiso   1.00
C69    C     0.44201   0.59781   0.97037   0.00000  Uiso   1.00
H70    H     0.93310   0.61567   0.85226   0.00000  Uiso   1.00
H71    H     0.91306   0.73572   0.86884   0.00000  Uiso   1.00
H72    H     0.81930   0.51586   0.74196   0.00000  Uiso   1.00
H73    H     0.02137   0.59367   0.94861   0.00000  Uiso   1.00
H74    H     0.96262   0.87149   0.88299   0.00000  Uiso   1.00
H75    H     0.76493   0.40790   0.61547   0.00000  Uiso   1.00
H76    H     0.19102   0.57197   0.05122   0.00000  Uiso   1.00
H77    H     0.48628   0.63633   0.81979   0.00000  Uiso   1.00
H78    H     0.49661   0.75752   0.83459   0.00000  Uiso   1.00
H79    H     0.40284   0.53767   0.70771   0.00000  Uiso   1.00
H80    H     0.60490   0.61547   0.91436   0.00000  Uiso   1.00
H81    H     0.43624   0.88918   0.85519   0.00000  Uiso   1.00
H82    H     0.23854   0.42559   0.58767   0.00000  Uiso   1.00
H83    H     0.66464   0.58967   0.02342   0.00000  Uiso   1.00
O84    O     0.19622   0.95968   0.87939   0.00000  Uiso   1.00
O85    O     0.93686   0.35146   0.52842   0.00000  Uiso   1.00
O86    O     0.49589   0.56673   0.10012   0.00000  Uiso   1.00
N87    N     0.07268   0.85903   0.87443   0.00000  Uiso   1.00
N88    N     0.88784   0.42561   0.62431   0.00000  Uiso   1.00
N89    N     0.28620   0.57898   0.03169   0.00000  Uiso   1.00
N90    N     0.32753   0.86855   0.85947   0.00000  Uiso   1.00
N91    N     0.14270   0.43513   0.60935   0.00000  Uiso   1.00
N92    N     0.54105   0.58851   0.01673   0.00000  Uiso   1.00
C93    C     0.88174   0.15664   0.79498   0.00000  Uiso   1.00
C94    C     0.99009   0.15358   0.85041   0.00000  Uiso   1.00
C95    C     0.93293   0.13148   0.89096   0.00000  Uiso   1.00
C96    C     0.05194   0.13259   0.93877   0.00000  Uiso   1.00
C97    C     0.19431   0.12447   0.02380   0.00000  Uiso   1.00
C98    C     0.92144   0.22887   0.80588   0.00000  Uiso   1.00
C99    C     0.80655   0.27006   0.80897   0.00000  Uiso   1.00
C100   C     0.86777   0.33453   0.81929   0.00000  Uiso   1.00
C101   C     0.90355   0.44328   0.83514   0.00000  Uiso   1.00
C102   C     0.94819   0.11574   0.73743   0.00000  Uiso   1.00
C103   C     0.85578   0.06182   0.68296   0.00000  Uiso   1.00
C104   C     0.93952   0.03106   0.63563   0.00000  Uiso   1.00
C105   C     0.01683   0.96416   0.54520   0.00000  Uiso   1.00
C106   C     0.19476   0.19789   0.80779   0.00000  Uiso   1.00
C107   C     0.16011   0.17599   0.85737   0.00000  Uiso   1.00
C108   C     0.27925   0.17712   0.90513   0.00000  Uiso   1.00
C109   C     0.22226   0.15503   0.94574   0.00000  Uiso   1.00
C110   C     0.09146   0.25127   0.81284   0.00000  Uiso   1.00
C111   C     0.15287   0.31570   0.82315   0.00000  Uiso   1.00
C112   C     0.03810   0.35698   0.82626   0.00000  Uiso   1.00
C113   C     0.11821   0.13814   0.74438   0.00000  Uiso   1.00
C114   C     0.20211   0.10746   0.69713   0.00000  Uiso   1.00
C115   C     0.10985   0.05351   0.64260   0.00000  Uiso   1.00
H116   H     0.74937   0.13920   0.78956   0.00000  Uiso   1.00
H117   H     0.80134   0.11416   0.88556   0.00000  Uiso   1.00
H118   H     0.67498   0.25271   0.80358   0.00000  Uiso   1.00
H119   H     0.72421   0.04450   0.67759   0.00000  Uiso   1.00
H120   H     0.93392   0.09629   0.99508   0.00000  Uiso   1.00
H121   H     0.66749   0.38843   0.82220   0.00000  Uiso   1.00
H122   H     0.77130   0.94939   0.55651   0.00000  Uiso   1.00
H123   H     0.32713   0.21534   0.81320   0.00000  Uiso   1.00
H124   H     0.41081   0.19447   0.91050   0.00000  Uiso   1.00
H125   H     0.28444   0.33302   0.82852   0.00000  Uiso   1.00
H126   H     0.33368   0.12482   0.70253   0.00000  Uiso   1.00
H127   H     0.42859   0.16148   0.01532   0.00000  Uiso   1.00
H128   H     0.16215   0.45362   0.84244   0.00000  Uiso   1.00
H129   H     0.26596   0.01457   0.57676   0.00000  Uiso   1.00
O130   O     0.22587   0.11381   0.06879   0.00000  Uiso   1.00
O131   O     0.87631   0.49707   0.84197   0.00000  Uiso   1.00
O132   O     0.01251   0.92106   0.49340   0.00000  Uiso   1.00
N133   N     0.03887   0.11449   0.98648   0.00000  Uiso   1.00
N134   N     0.78976   0.38762   0.82486   0.00000  Uiso   1.00
N135   N     0.88681   0.97716   0.57646   0.00000  Uiso   1.00
N136   N     0.30504   0.14956   0.99737   0.00000  Uiso   1.00
N137   N     0.05594   0.42269   0.83575   0.00000  Uiso   1.00
N138   N     0.15298   0.01224   0.58735   0.00000  Uiso   1.00
C139   C     0.73706   0.79419   0.64188   0.00000  Uiso   1.00
C140   C     0.68928   0.84470   0.70009   0.00000  Uiso   1.00
C141   C     0.79976   0.89118   0.75475   0.00000  Uiso   1.00
C142   C     0.73129   0.93297   0.80267   0.00000  Uiso   1.00
C143   C     0.68339   0.01214   0.89403   0.00000  Uiso   1.00
C144   C     0.65701   0.80625   0.58730   0.00000  Uiso   1.00
C145   C     0.74035   0.82040   0.54713   0.00000  Uiso   1.00
C146   C     0.64470   0.82981   0.50010   0.00000  Uiso   1.00
C147   C     0.54668   0.84922   0.41633   0.00000  Uiso   1.00
C148   C     0.64694   0.72581   0.62997   0.00000  Uiso   1.00
C149   C     0.72181   0.67232   0.62566   0.00000  Uiso   1.00
C150   C     0.61768   0.61400   0.61455   0.00000  Uiso   1.00
C151   C     0.50402   0.50853   0.59704   0.00000  Uiso   1.00
C152   C     0.41901   0.78574   0.62979   0.00000  Uiso   1.00
C153   C     0.51653   0.84011   0.69351   0.00000  Uiso   1.00
C154   C     0.44787   0.88184   0.74137   0.00000  Uiso   1.00
C155   C     0.55823   0.92837   0.79609   0.00000  Uiso   1.00
C156   C     0.48426   0.80166   0.58073   0.00000  Uiso   1.00
C157   C     0.38847   0.81105   0.53375   0.00000  Uiso   1.00
C158   C     0.47164   0.82521   0.49352   0.00000  Uiso   1.00
C159   C     0.47418   0.72123   0.62341   0.00000  Uiso   1.00
C160   C     0.36992   0.66297   0.61229   0.00000  Uiso   1.00
C161   C     0.44461   0.60940   0.60797   0.00000  Uiso   1.00
H162   H     0.87155   0.79776   0.64699   0.00000  Uiso   1.00
H163   H     0.93344   0.89473   0.75981   0.00000  Uiso   1.00
H164   H     0.87403   0.82394   0.55222   0.00000  Uiso   1.00
H165   H     0.85549   0.67589   0.63075   0.00000  Uiso   1.00
H166   H     0.92587   0.00022   0.88198   0.00000  Uiso   1.00
H167   H     0.80061   0.85095   0.44425   0.00000  Uiso   1.00
H168   H     0.76151   0.53875   0.60985   0.00000  Uiso   1.00
H169   H     0.28451   0.78216   0.62467   0.00000  Uiso   1.00
H170   H     0.31418   0.87828   0.73627   0.00000  Uiso   1.00
H171   H     0.25478   0.80749   0.52868   0.00000  Uiso   1.00
H172   H     0.23624   0.65944   0.60721   0.00000  Uiso   1.00
H173   H     0.42326   0.98688   0.86288   0.00000  Uiso   1.00
H174   H     0.29800   0.83759   0.42514   0.00000  Uiso   1.00
H175   H     0.25890   0.52540   0.59074   0.00000  Uiso   1.00
O176   O     0.70468   0.05707   0.94624   0.00000  Uiso   1.00
O177   O     0.54034   0.86121   0.37194   0.00000  Uiso   1.00
O178   O     0.48905   0.45162   0.58920   0.00000  Uiso   1.00
N179   N     0.80351   0.98388   0.86218   0.00000  Uiso   1.00
N180   N     0.68640   0.84433   0.45293   0.00000  Uiso   1.00
N181   N     0.64984   0.55244   0.60773   0.00000  Uiso   1.00
N182   N     0.53306   0.97670   0.85189   0.00000  Uiso   1.00
N183   N     0.41595   0.83714   0.44265   0.00000  Uiso   1.00
N184   N     0.37939   0.54526   0.59745   0.00000  Uiso   1.00
C185   C     0.94016   0.37960   0.15518   0.00000  Uiso   1.00
C186   C     0.87433   0.31150   0.15066   0.00000  Uiso   1.00
C187   C     0.96095   0.25956   0.13854   0.00000  Uiso   1.00
C188   C     0.87893   0.20124   0.13632   0.00000  Uiso   1.00
C189   C     0.80151   0.09644   0.12789   0.00000  Uiso   1.00
C190   C     0.92528   0.43095   0.21961   0.00000  Uiso   1.00
C191   C     0.05474   0.47944   0.26545   0.00000  Uiso   1.00
C192   C     0.01559   0.52168   0.32125   0.00000  Uiso   1.00
C193   C     0.01725   0.60236   0.41983   0.00000  Uiso   1.00
C194   C     0.81549   0.38867   0.10733   0.00000  Uiso   1.00
C195   C     0.85264   0.40163   0.05877   0.00000  Uiso   1.00
C196   C     0.72107   0.40828   0.02005   0.00000  Uiso   1.00
C197   C     0.55226   0.42331   0.94431   0.00000  Uiso   1.00
C198   C     0.64046   0.36840   0.17277   0.00000  Uiso   1.00
C199   C     0.71155   0.30542   0.16022   0.00000  Uiso   1.00
C200   C     0.62936   0.24717   0.15801   0.00000  Uiso   1.00
C201   C     0.71585   0.19514   0.14589   0.00000  Uiso   1.00
C202   C     0.76250   0.42487   0.22916   0.00000  Uiso   1.00
C203   C     0.72315   0.46705   0.28491   0.00000  Uiso   1.00
C204   C     0.85251   0.51559   0.33083   0.00000  Uiso   1.00
C205   C     0.65271   0.38259   0.11688   0.00000  Uiso   1.00
C206   C     0.52105   0.38923   0.07823   0.00000  Uiso   1.00
C207   C     0.55799   0.40219   0.02963   0.00000  Uiso   1.00
H208   H     0.06690   0.38433   0.14774   0.00000  Uiso   1.00
H209   H     0.08694   0.26428   0.13116   0.00000  Uiso   1.00
H210   H     0.18070   0.48414   0.25804   0.00000  Uiso   1.00
H211   H     0.97863   0.40633   0.05139   0.00000  Uiso   1.00
H212   H     0.03738   0.12851   0.11701   0.00000  Uiso   1.00
H213   H     0.23507   0.59210   0.38453   0.00000  Uiso   1.00
H214   H     0.80898   0.42803   0.94878   0.00000  Uiso   1.00
H215   H     0.51372   0.36367   0.18021   0.00000  Uiso   1.00
H216   H     0.50339   0.24248   0.16541   0.00000  Uiso   1.00
H217   H     0.59716   0.46233   0.29229   0.00000  Uiso   1.00
H218   H     0.39510   0.38453   0.08564   0.00000  Uiso   1.00
H219   H     0.56376   0.11082   0.14481   0.00000  Uiso   1.00
H220   H     0.76146   0.57441   0.41233   0.00000  Uiso   1.00
H221   H     0.33536   0.41033   0.97658   0.00000  Uiso   1.00
O222   O     0.80378   0.04032   0.12061   0.00000  Uiso   1.00
O223   O     0.06314   0.64854   0.47158   0.00000  Uiso   1.00
O224   O     0.50411   0.43327   0.89988   0.00000  Uiso   1.00
N225   N     0.92732   0.14097   0.12557   0.00000  Uiso   1.00
N226   N     0.11216   0.57439   0.37569   0.00000  Uiso   1.00
N227   N     0.71380   0.42102   0.96831   0.00000  Uiso   1.00
N228   N     0.67247   0.13145   0.14053   0.00000  Uiso   1.00
N229   N     0.85730   0.56487   0.39065   0.00000  Uiso   1.00
N230   N     0.45895   0.41149   0.98327   0.00000  Uiso   1.00
C231   C     0.11826   0.84336   0.20502   0.00000  Uiso   1.00
C232   C     0.00991   0.84642   0.14959   0.00000  Uiso   1.00
C233   C     0.06707   0.86852   0.10904   0.00000  Uiso   1.00
C234   C     0.94806   0.86741   0.06123   0.00000  Uiso   1.00
C235   C     0.80569   0.87553   0.97620   0.00000  Uiso   1.00
C236   C     0.07856   0.77113   0.19412   0.00000  Uiso   1.00
C237   C     0.19345   0.72994   0.19103   0.00000  Uiso   1.00
C238   C     0.13223   0.66547   0.18071   0.00000  Uiso   1.00
C239   C     0.09645   0.55672   0.16486   0.00000  Uiso   1.00
C240   C     0.05181   0.88426   0.26257   0.00000  Uiso   1.00
C241   C     0.14422   0.93818   0.31704   0.00000  Uiso   1.00
C242   C     0.06048   0.96894   0.36437   0.00000  Uiso   1.00
C243   C     0.98317   0.03584   0.45480   0.00000  Uiso   1.00
C244   C     0.80524   0.80211   0.19221   0.00000  Uiso   1.00
C245   C     0.83989   0.82401   0.14263   0.00000  Uiso   1.00
C246   C     0.72075   0.82288   0.09487   0.00000  Uiso   1.00
C247   C     0.77774   0.84497   0.05426   0.00000  Uiso   1.00
C248   C     0.90854   0.74873   0.18716   0.00000  Uiso   1.00
C249   C     0.84713   0.68430   0.17685   0.00000  Uiso   1.00
C250   C     0.96190   0.64302   0.17374   0.00000  Uiso   1.00
C251   C     0.88179   0.86186   0.25562   0.00000  Uiso   1.00
C252   C     0.79789   0.89254   0.30287   0.00000  Uiso   1.00
C253   C     0.89015   0.94649   0.35740   0.00000  Uiso   1.00
H254   H     0.25063   0.86080   0.21044   0.00000  Uiso   1.00
H255   H     0.19866   0.88584   0.11444   0.00000  Uiso   1.00
H256   H     0.32502   0.74729   0.19642   0.00000  Uiso   1.00
H257   H     0.27579   0.95550   0.32241   0.00000  Uiso   1.00
H258   H     0.06608   0.90371   0.00492   0.00000  Uiso   1.00
H259   H     0.33251   0.61157   0.17780   0.00000  Uiso   1.00
H260   H     0.22870   0.05061   0.44349   0.00000  Uiso   1.00
H261   H     0.67287   0.78466   0.18680   0.00000  Uiso   1.00
H262   H     0.58919   0.80553   0.08950   0.00000  Uiso   1.00
H263   H     0.71555   0.66698   0.17148   0.00000  Uiso   1.00
H264   H     0.66632   0.87518   0.29747   0.00000  Uiso   1.00
H265   H     0.57141   0.83852   0.98468   0.00000  Uiso   1.00
H266   H     0.83785   0.54638   0.15756   0.00000  Uiso   1.00
H267   H     0.73404   0.98543   0.42324   0.00000  Uiso   1.00
O268   O     0.77413   0.88619   0.93121   0.00000  Uiso   1.00
O269   O     0.12369   0.50293   0.15803   0.00000  Uiso   1.00
O270   O     0.98749   0.07894   0.50660   0.00000  Uiso   1.00
N271   N     0.96113   0.88551   0.01352   0.00000  Uiso   1.00
N272   N     0.21024   0.61238   0.17514   0.00000  Uiso   1.00
N273   N     0.11319   0.02284   0.42354   0.00000  Uiso   1.00
N274   N     0.69496   0.85044   0.00263   0.00000  Uiso   1.00
N275   N     0.94406   0.57731   0.16425   0.00000  Uiso   1.00
N276   N     0.84702   0.98776   0.41265   0.00000  Uiso   1.00
