data_job_02007
_audit_creation_date              2018-12-19
_audit_creation_method            'Materials Studio'
_symmetry_space_group_name_H-M    'P1'
_symmetry_Int_Tables_number       1
_symmetry_cell_setting            triclinic
loop_
_symmetry_equiv_pos_as_xyz
  x,y,z
_cell_length_a                    25.1737
_cell_length_b                    10.8701
_cell_length_c                    24.7088
_cell_angle_alpha                 90.0000
_cell_angle_beta                  150.9064
_cell_angle_gamma                 90.0000
loop_
_atom_site_label
_atom_site_type_symbol
_atom_site_fract_x
_atom_site_fract_y
_atom_site_fract_z
_atom_site_U_iso_or_equiv
_atom_site_adp_type
_atom_site_occupancy
C1     C     0.84076   0.89136   0.48356   0.00000  Uiso   1.00
C2     C     0.83390   0.83193   0.53327   0.00000  Uiso   1.00
C3     C     0.80103   0.89008   0.55128   0.00000  Uiso   1.00
C4     C     0.80037   0.81978   0.59760   0.00000  Uiso   1.00
C5     C     0.78505   0.74638   0.67067   0.00000  Uiso   1.00
C6     C     0.95801   0.87268   0.56878   0.00000  Uiso   1.00
C7     C     0.02947   0.96509   0.61663   0.00000  Uiso   1.00
C8     C     0.13327   0.92910   0.69284   0.00000  Uiso   1.00
C9     C     0.31060   0.91895   0.82098   0.00000  Uiso   1.00
C10    C     0.76961   0.81306   0.38308   0.00000  Uiso   1.00
C11    C     0.68269   0.85534   0.27480   0.00000  Uiso   1.00
C12    C     0.62789   0.76915   0.19466   0.00000  Uiso   1.00
C13    C     0.51270   0.66643   0.03449   0.00000  Uiso   1.00
C14    C     0.89802   0.66311   0.53379   0.00000  Uiso   1.00
C15    C     0.86501   0.70795   0.56055   0.00000  Uiso   1.00
C16    C     0.86439   0.63755   0.60685   0.00000  Uiso   1.00
C17    C     0.83152   0.69558   0.62493   0.00000  Uiso   1.00
C18    C     0.98911   0.74871   0.59606   0.00000  Uiso   1.00
C19    C     0.09283   0.71256   0.67221   0.00000  Uiso   1.00
C20    C     0.16444   0.80490   0.72017   0.00000  Uiso   1.00
C21    C     0.80071   0.68908   0.41036   0.00000  Uiso   1.00
C22    C     0.74604   0.60281   0.33038   0.00000  Uiso   1.00
C23    C     0.65905   0.64495   0.22200   0.00000  Uiso   1.00
H24    H     0.81655   0.98788   0.46233   0.00000  Uiso   1.00
H25    H     0.77698   0.98603   0.53016   0.00000  Uiso   1.00
H26    H     0.00538   0.06102   0.59550   0.00000  Uiso   1.00
H27    H     0.65864   0.95129   0.25372   0.00000  Uiso   1.00
H28    H     0.74686   0.92931   0.61744   0.00000  Uiso   1.00
H29    H     0.22844   0.08745   0.75517   0.00000  Uiso   1.00
H30    H     0.49728   0.85604   0.03447   0.00000  Uiso   1.00
H31    H     0.92224   0.56659   0.55504   0.00000  Uiso   1.00
H32    H     0.88847   0.54161   0.62796   0.00000  Uiso   1.00
H33    H     0.11687   0.61661   0.69329   0.00000  Uiso   1.00
H34    H     0.77014   0.50688   0.35152   0.00000  Uiso   1.00
H35    H     0.83736   0.56861   0.69682   0.00000  Uiso   1.00
H36    H     0.31894   0.72675   0.83455   0.00000  Uiso   1.00
H37    H     0.58778   0.49534   0.11385   0.00000  Uiso   1.00
O38    O     0.76802   0.74014   0.70346   0.00000  Uiso   1.00
O39    O     0.39982   0.94761   0.88414   0.00000  Uiso   1.00
O40    O     0.44056   0.64402   0.93860   0.00000  Uiso   1.00
N41    N     0.77277   0.84784   0.62609   0.00000  Uiso   1.00
N42    N     0.22303   0.99569   0.75488   0.00000  Uiso   1.00
N43    N     0.53948   0.77935   0.08109   0.00000  Uiso   1.00
N44    N     0.82147   0.65375   0.66880   0.00000  Uiso   1.00
N45    N     0.27172   0.80160   0.79759   0.00000  Uiso   1.00
N46    N     0.58817   0.58526   0.12380   0.00000  Uiso   1.00
C47    C     0.15924   0.39136   0.01644   0.00000  Uiso   1.00
C48    C     0.16610   0.33193   0.96673   0.00000  Uiso   1.00
C49    C     0.19897   0.39008   0.94872   0.00000  Uiso   1.00
C50    C     0.19963   0.31978   0.90240   0.00000  Uiso   1.00
C51    C     0.21495   0.24638   0.82933   0.00000  Uiso   1.00
C52    C     0.04199   0.37268   0.93122   0.00000  Uiso   1.00
C53    C     0.97053   0.46509   0.88337   0.00000  Uiso   1.00
C54    C     0.86673   0.42910   0.80716   0.00000  Uiso   1.00
C55    C     0.68940   0.41895   0.67902   0.00000  Uiso   1.00
C56    C     0.23039   0.31306   0.11692   0.00000  Uiso   1.00
C57    C     0.31731   0.35534   0.22520   0.00000  Uiso   1.00
C58    C     0.37211   0.26915   0.30534   0.00000  Uiso   1.00
C59    C     0.48730   0.16643   0.46551   0.00000  Uiso   1.00
C60    C     0.10198   0.16311   0.96621   0.00000  Uiso   1.00
C61    C     0.13499   0.20795   0.93945   0.00000  Uiso   1.00
C62    C     0.13561   0.13755   0.89315   0.00000  Uiso   1.00
C63    C     0.16848   0.19558   0.87507   0.00000  Uiso   1.00
C64    C     0.01089   0.24871   0.90394   0.00000  Uiso   1.00
C65    C     0.90717   0.21256   0.82779   0.00000  Uiso   1.00
C66    C     0.83556   0.30490   0.77983   0.00000  Uiso   1.00
C67    C     0.19929   0.18908   0.08964   0.00000  Uiso   1.00
C68    C     0.25396   0.10281   0.16962   0.00000  Uiso   1.00
C69    C     0.34095   0.14495   0.27800   0.00000  Uiso   1.00
H70    H     0.18345   0.48788   0.03767   0.00000  Uiso   1.00
H71    H     0.22302   0.48603   0.96984   0.00000  Uiso   1.00
H72    H     0.99462   0.56102   0.90450   0.00000  Uiso   1.00
H73    H     0.34136   0.45129   0.24628   0.00000  Uiso   1.00
H74    H     0.25314   0.42931   0.88256   0.00000  Uiso   1.00
H75    H     0.77156   0.58745   0.74483   0.00000  Uiso   1.00
H76    H     0.50272   0.35604   0.46553   0.00000  Uiso   1.00
H77    H     0.07776   0.06659   0.94496   0.00000  Uiso   1.00
H78    H     0.11153   0.04161   0.87204   0.00000  Uiso   1.00
H79    H     0.88313   0.11661   0.80671   0.00000  Uiso   1.00
H80    H     0.22986   0.00688   0.14848   0.00000  Uiso   1.00
H81    H     0.16264   0.06861   0.80318   0.00000  Uiso   1.00
H82    H     0.68106   0.22675   0.66545   0.00000  Uiso   1.00
H83    H     0.41222   0.99534   0.38615   0.00000  Uiso   1.00
O84    O     0.23198   0.24014   0.79654   0.00000  Uiso   1.00
O85    O     0.60018   0.44761   0.61586   0.00000  Uiso   1.00
O86    O     0.55944   0.14402   0.56140   0.00000  Uiso   1.00
N87    N     0.22723   0.34784   0.87391   0.00000  Uiso   1.00
N88    N     0.77697   0.49569   0.74512   0.00000  Uiso   1.00
N89    N     0.46052   0.27935   0.41891   0.00000  Uiso   1.00
N90    N     0.17853   0.15375   0.83120   0.00000  Uiso   1.00
N91    N     0.72828   0.30160   0.70241   0.00000  Uiso   1.00
N92    N     0.41183   0.08526   0.37620   0.00000  Uiso   1.00
C93    C     0.15924   0.10864   0.51644   0.00000  Uiso   1.00
C94    C     0.16610   0.16807   0.46673   0.00000  Uiso   1.00
C95    C     0.19897   0.10992   0.44872   0.00000  Uiso   1.00
C96    C     0.19963   0.18022   0.40240   0.00000  Uiso   1.00
C97    C     0.21495   0.25362   0.32933   0.00000  Uiso   1.00
C98    C     0.04199   0.12732   0.43122   0.00000  Uiso   1.00
C99    C     0.97053   0.03491   0.38337   0.00000  Uiso   1.00
C100   C     0.86673   0.07090   0.30716   0.00000  Uiso   1.00
C101   C     0.68940   0.08105   0.17902   0.00000  Uiso   1.00
C102   C     0.23039   0.18694   0.61692   0.00000  Uiso   1.00
C103   C     0.31731   0.14466   0.72520   0.00000  Uiso   1.00
C104   C     0.37211   0.23085   0.80534   0.00000  Uiso   1.00
C105   C     0.48730   0.33357   0.96551   0.00000  Uiso   1.00
C106   C     0.10198   0.33689   0.46621   0.00000  Uiso   1.00
C107   C     0.13499   0.29205   0.43945   0.00000  Uiso   1.00
C108   C     0.13561   0.36245   0.39315   0.00000  Uiso   1.00
C109   C     0.16848   0.30442   0.37507   0.00000  Uiso   1.00
C110   C     0.01089   0.25129   0.40394   0.00000  Uiso   1.00
C111   C     0.90717   0.28744   0.32779   0.00000  Uiso   1.00
C112   C     0.83556   0.19510   0.27983   0.00000  Uiso   1.00
C113   C     0.19929   0.31092   0.58964   0.00000  Uiso   1.00
C114   C     0.25396   0.39719   0.66962   0.00000  Uiso   1.00
C115   C     0.34095   0.35505   0.77800   0.00000  Uiso   1.00
H116   H     0.18345   0.01212   0.53767   0.00000  Uiso   1.00
H117   H     0.22302   0.01397   0.46984   0.00000  Uiso   1.00
H118   H     0.99462   0.93898   0.40450   0.00000  Uiso   1.00
H119   H     0.34136   0.04871   0.74628   0.00000  Uiso   1.00
H120   H     0.25314   0.07069   0.38256   0.00000  Uiso   1.00
H121   H     0.77156   0.91255   0.24483   0.00000  Uiso   1.00
H122   H     0.50272   0.14396   0.96553   0.00000  Uiso   1.00
H123   H     0.07776   0.43341   0.44496   0.00000  Uiso   1.00
H124   H     0.11153   0.45839   0.37204   0.00000  Uiso   1.00
H125   H     0.88313   0.38339   0.30671   0.00000  Uiso   1.00
H126   H     0.22986   0.49312   0.64848   0.00000  Uiso   1.00
H127   H     0.16264   0.43139   0.30318   0.00000  Uiso   1.00
H128   H     0.68106   0.27325   0.16545   0.00000  Uiso   1.00
H129   H     0.41222   0.50466   0.88615   0.00000  Uiso   1.00
O130   O     0.23198   0.25986   0.29654   0.00000  Uiso   1.00
O131   O     0.60018   0.05239   0.11586   0.00000  Uiso   1.00
O132   O     0.55944   0.35598   0.06140   0.00000  Uiso   1.00
N133   N     0.22723   0.15216   0.37391   0.00000  Uiso   1.00
N134   N     0.77697   0.00431   0.24512   0.00000  Uiso   1.00
N135   N     0.46052   0.22065   0.91891   0.00000  Uiso   1.00
N136   N     0.17853   0.34625   0.33120   0.00000  Uiso   1.00
N137   N     0.72828   0.19840   0.20241   0.00000  Uiso   1.00
N138   N     0.41183   0.41474   0.87620   0.00000  Uiso   1.00
C139   C     0.84076   0.60864   0.98356   0.00000  Uiso   1.00
C140   C     0.83390   0.66807   0.03327   0.00000  Uiso   1.00
C141   C     0.80103   0.60992   0.05128   0.00000  Uiso   1.00
C142   C     0.80037   0.68022   0.09760   0.00000  Uiso   1.00
C143   C     0.78505   0.75362   0.17067   0.00000  Uiso   1.00
C144   C     0.95801   0.62732   0.06878   0.00000  Uiso   1.00
C145   C     0.02947   0.53491   0.11663   0.00000  Uiso   1.00
C146   C     0.13327   0.57090   0.19284   0.00000  Uiso   1.00
C147   C     0.31060   0.58105   0.32098   0.00000  Uiso   1.00
C148   C     0.76961   0.68694   0.88308   0.00000  Uiso   1.00
C149   C     0.68269   0.64466   0.77480   0.00000  Uiso   1.00
C150   C     0.62789   0.73085   0.69466   0.00000  Uiso   1.00
C151   C     0.51270   0.83357   0.53449   0.00000  Uiso   1.00
C152   C     0.89802   0.83689   0.03379   0.00000  Uiso   1.00
C153   C     0.86501   0.79205   0.06055   0.00000  Uiso   1.00
C154   C     0.86439   0.86245   0.10685   0.00000  Uiso   1.00
C155   C     0.83152   0.80442   0.12493   0.00000  Uiso   1.00
C156   C     0.98911   0.75129   0.09606   0.00000  Uiso   1.00
C157   C     0.09283   0.78744   0.17221   0.00000  Uiso   1.00
C158   C     0.16444   0.69510   0.22017   0.00000  Uiso   1.00
C159   C     0.80071   0.81092   0.91036   0.00000  Uiso   1.00
C160   C     0.74604   0.89719   0.83038   0.00000  Uiso   1.00
C161   C     0.65905   0.85505   0.72200   0.00000  Uiso   1.00
H162   H     0.81655   0.51212   0.96233   0.00000  Uiso   1.00
H163   H     0.77698   0.51397   0.03016   0.00000  Uiso   1.00
H164   H     0.00538   0.43898   0.09550   0.00000  Uiso   1.00
H165   H     0.65864   0.54871   0.75372   0.00000  Uiso   1.00
H166   H     0.74686   0.57069   0.11744   0.00000  Uiso   1.00
H167   H     0.22844   0.41255   0.25517   0.00000  Uiso   1.00
H168   H     0.49728   0.64396   0.53447   0.00000  Uiso   1.00
H169   H     0.92224   0.93341   0.05504   0.00000  Uiso   1.00
H170   H     0.88847   0.95839   0.12796   0.00000  Uiso   1.00
H171   H     0.11687   0.88339   0.19329   0.00000  Uiso   1.00
H172   H     0.77014   0.99312   0.85152   0.00000  Uiso   1.00
H173   H     0.83736   0.93139   0.19682   0.00000  Uiso   1.00
H174   H     0.31894   0.77325   0.33455   0.00000  Uiso   1.00
H175   H     0.58778   0.00466   0.61385   0.00000  Uiso   1.00
O176   O     0.76802   0.75986   0.20346   0.00000  Uiso   1.00
O177   O     0.39982   0.55239   0.38414   0.00000  Uiso   1.00
O178   O     0.44056   0.85598   0.43860   0.00000  Uiso   1.00
N179   N     0.77277   0.65216   0.12609   0.00000  Uiso   1.00
N180   N     0.22303   0.50431   0.25488   0.00000  Uiso   1.00
N181   N     0.53948   0.72065   0.58109   0.00000  Uiso   1.00
N182   N     0.82147   0.84625   0.16880   0.00000  Uiso   1.00
N183   N     0.27172   0.69840   0.29759   0.00000  Uiso   1.00
N184   N     0.58817   0.91474   0.62380   0.00000  Uiso   1.00
