data_job_00931
_audit_creation_date              2018-12-19
_audit_creation_method            'Materials Studio'
_symmetry_space_group_name_H-M    'P1'
_symmetry_Int_Tables_number       1
_symmetry_cell_setting            triclinic
loop_
_symmetry_equiv_pos_as_xyz
  x,y,z
_cell_length_a                    8.7708
_cell_length_b                    11.3223
_cell_length_c                    14.1317
_cell_angle_alpha                 88.3217
_cell_angle_beta                  77.7074
_cell_angle_gamma                 75.0704
loop_
_atom_site_label
_atom_site_type_symbol
_atom_site_fract_x
_atom_site_fract_y
_atom_site_fract_z
_atom_site_U_iso_or_equiv
_atom_site_adp_type
_atom_site_occupancy
C1     C     0.16954   0.32008   0.76410   0.00000  Uiso   1.00
C2     C     0.03377   0.35925   0.70893   0.00000  Uiso   1.00
C3     C     0.99335   0.46992   0.66366   0.00000  Uiso   1.00
C4     C     0.86520   0.48833   0.61702   0.00000  Uiso   1.00
C5     C     0.66720   0.56274   0.53159   0.00000  Uiso   1.00
C6     C     0.09080   0.28887   0.86538   0.00000  Uiso   1.00
C7     C     0.09836   0.34036   0.95164   0.00000  Uiso   1.00
C8     C     0.01824   0.29952   0.03670   0.00000  Uiso   1.00
C9     C     0.90889   0.26460   0.19416   0.00000  Uiso   1.00
C10    C     0.27734   0.19966   0.71641   0.00000  Uiso   1.00
C11    C     0.44175   0.17612   0.67744   0.00000  Uiso   1.00
C12    C     0.51869   0.06016   0.63710   0.00000  Uiso   1.00
C13    C     0.69896   0.88673   0.56327   0.00000  Uiso   1.00
C14    C     0.01385   0.15598   0.76179   0.00000  Uiso   1.00
C15    C     0.94921   0.27011   0.70768   0.00000  Uiso   1.00
C16    C     0.82110   0.28836   0.66110   0.00000  Uiso   1.00
C17    C     0.78049   0.39904   0.61576   0.00000  Uiso   1.00
C18    C     0.00624   0.19974   0.86413   0.00000  Uiso   1.00
C19    C     0.92611   0.15880   0.94908   0.00000  Uiso   1.00
C20    C     0.93353   0.21022   0.03544   0.00000  Uiso   1.00
C21    C     0.19278   0.11053   0.71515   0.00000  Uiso   1.00
C22    C     0.26949   0.99457   0.67488   0.00000  Uiso   1.00
C23    C     0.43398   0.97086   0.63585   0.00000  Uiso   1.00
H24    H     0.23537   0.38947   0.76509   0.00000  Uiso   1.00
H25    H     0.05881   0.53888   0.66465   0.00000  Uiso   1.00
H26    H     0.16382   0.40933   0.95259   0.00000  Uiso   1.00
H27    H     0.50714   0.24512   0.67843   0.00000  Uiso   1.00
H28    H     0.82572   0.66523   0.55278   0.00000  Uiso   1.00
H29    H     0.04719   0.39204   0.15991   0.00000  Uiso   1.00
H30    H     0.77117   0.04578   0.58179   0.00000  Uiso   1.00
H31    H     0.94801   0.08658   0.76081   0.00000  Uiso   1.00
H32    H     0.75568   0.21937   0.66014   0.00000  Uiso   1.00
H33    H     0.86069   0.08982   0.94808   0.00000  Uiso   1.00
H34    H     0.20401   0.92562   0.67392   0.00000  Uiso   1.00
H35    H     0.57969   0.40591   0.54912   0.00000  Uiso   1.00
H36    H     0.80116   0.13272   0.15625   0.00000  Uiso   1.00
H37    H     0.52513   0.78646   0.57813   0.00000  Uiso   1.00
O38    O     0.58133   0.62841   0.48483   0.00000  Uiso   1.00
O39    O     0.87192   0.26997   0.28136   0.00000  Uiso   1.00
O40    O     0.82175   0.81569   0.52288   0.00000  Uiso   1.00
N41    N     0.79424   0.58597   0.56572   0.00000  Uiso   1.00
N42    N     0.00127   0.33057   0.13335   0.00000  Uiso   1.00
N43    N     0.67814   0.00683   0.59288   0.00000  Uiso   1.00
N44    N     0.66185   0.44643   0.56375   0.00000  Uiso   1.00
N45    N     0.86888   0.19103   0.13138   0.00000  Uiso   1.00
N46    N     0.54575   0.86729   0.59091   0.00000  Uiso   1.00
C47    C     0.83046   0.67992   0.23590   0.00000  Uiso   1.00
C48    C     0.96623   0.64075   0.29107   0.00000  Uiso   1.00
C49    C     0.00665   0.53008   0.33634   0.00000  Uiso   1.00
C50    C     0.13480   0.51167   0.38298   0.00000  Uiso   1.00
C51    C     0.33280   0.43726   0.46841   0.00000  Uiso   1.00
C52    C     0.90920   0.71113   0.13462   0.00000  Uiso   1.00
C53    C     0.90164   0.65964   0.04836   0.00000  Uiso   1.00
C54    C     0.98176   0.70048   0.96330   0.00000  Uiso   1.00
C55    C     0.09111   0.73540   0.80584   0.00000  Uiso   1.00
C56    C     0.72266   0.80034   0.28359   0.00000  Uiso   1.00
C57    C     0.55825   0.82388   0.32256   0.00000  Uiso   1.00
C58    C     0.48131   0.93984   0.36290   0.00000  Uiso   1.00
C59    C     0.30104   0.11327   0.43673   0.00000  Uiso   1.00
C60    C     0.98615   0.84402   0.23821   0.00000  Uiso   1.00
C61    C     0.05079   0.72989   0.29232   0.00000  Uiso   1.00
C62    C     0.17890   0.71164   0.33890   0.00000  Uiso   1.00
C63    C     0.21951   0.60096   0.38424   0.00000  Uiso   1.00
C64    C     0.99376   0.80026   0.13587   0.00000  Uiso   1.00
C65    C     0.07389   0.84120   0.05092   0.00000  Uiso   1.00
C66    C     0.06647   0.78978   0.96456   0.00000  Uiso   1.00
C67    C     0.80722   0.88947   0.28485   0.00000  Uiso   1.00
C68    C     0.73051   0.00543   0.32512   0.00000  Uiso   1.00
C69    C     0.56602   0.02914   0.36415   0.00000  Uiso   1.00
H70    H     0.76463   0.61053   0.23491   0.00000  Uiso   1.00
H71    H     0.94119   0.46112   0.33535   0.00000  Uiso   1.00
H72    H     0.83618   0.59067   0.04741   0.00000  Uiso   1.00
H73    H     0.49286   0.75488   0.32157   0.00000  Uiso   1.00
H74    H     0.17428   0.33477   0.44722   0.00000  Uiso   1.00
H75    H     0.95281   0.60796   0.84009   0.00000  Uiso   1.00
H76    H     0.22883   0.95422   0.41821   0.00000  Uiso   1.00
H77    H     0.05199   0.91342   0.23919   0.00000  Uiso   1.00
H78    H     0.24432   0.78063   0.33986   0.00000  Uiso   1.00
H79    H     0.13931   0.91018   0.05192   0.00000  Uiso   1.00
H80    H     0.79599   0.07438   0.32608   0.00000  Uiso   1.00
H81    H     0.42031   0.59409   0.45088   0.00000  Uiso   1.00
H82    H     0.19884   0.86728   0.84375   0.00000  Uiso   1.00
H83    H     0.47487   0.21354   0.42187   0.00000  Uiso   1.00
O84    O     0.41867   0.37159   0.51517   0.00000  Uiso   1.00
O85    O     0.12808   0.73003   0.71864   0.00000  Uiso   1.00
O86    O     0.17825   0.18431   0.47712   0.00000  Uiso   1.00
N87    N     0.20576   0.41403   0.43428   0.00000  Uiso   1.00
N88    N     0.99873   0.66943   0.86665   0.00000  Uiso   1.00
N89    N     0.32186   0.99317   0.40712   0.00000  Uiso   1.00
N90    N     0.33815   0.55357   0.43625   0.00000  Uiso   1.00
N91    N     0.13112   0.80897   0.86862   0.00000  Uiso   1.00
N92    N     0.45425   0.13271   0.40909   0.00000  Uiso   1.00
