data_job_04923
_audit_creation_date              2018-12-19
_audit_creation_method            'Materials Studio'
_symmetry_space_group_name_H-M    'P1'
_symmetry_Int_Tables_number       1
_symmetry_cell_setting            triclinic
loop_
_symmetry_equiv_pos_as_xyz
  x,y,z
_cell_length_a                    18.7436
_cell_length_b                    18.7436
_cell_length_c                    18.7436
_cell_angle_alpha                 90.0000
_cell_angle_beta                  90.0000
_cell_angle_gamma                 90.0000
loop_
_atom_site_label
_atom_site_type_symbol
_atom_site_fract_x
_atom_site_fract_y
_atom_site_fract_z
_atom_site_U_iso_or_equiv
_atom_site_adp_type
_atom_site_occupancy
C1     C     0.19372   0.01934   0.82615   0.00000  Uiso   1.00
C2     C     0.23351   0.03316   0.75654   0.00000  Uiso   1.00
C3     C     0.23447   0.09712   0.71925   0.00000  Uiso   1.00
C4     C     0.27405   0.09894   0.65667   0.00000  Uiso   1.00
C5     C     0.33014   0.12953   0.55228   0.00000  Uiso   1.00
C6     C     0.14501   0.95575   0.81194   0.00000  Uiso   1.00
C7     C     0.07156   0.95461   0.82123   0.00000  Uiso   1.00
C8     C     0.03664   0.89126   0.80528   0.00000  Uiso   1.00
C9     C     0.95533   0.80164   0.78694   0.00000  Uiso   1.00
C10    C     0.24964   0.99339   0.87923   0.00000  Uiso   1.00
C11    C     0.26416   0.02388   0.94513   0.00000  Uiso   1.00
C12    C     0.31732   0.99221   0.98585   0.00000  Uiso   1.00
C13    C     0.39846   0.96103   0.07199   0.00000  Uiso   1.00
C14    C     0.26231   0.90885   0.78131   0.00000  Uiso   1.00
C15    C     0.27076   0.97315   0.73219   0.00000  Uiso   1.00
C16    C     0.31035   0.97488   0.66965   0.00000  Uiso   1.00
C17    C     0.31137   0.03882   0.63227   0.00000  Uiso   1.00
C18    C     0.18226   0.89573   0.78758   0.00000  Uiso   1.00
C19    C     0.14744   0.83237   0.77162   0.00000  Uiso   1.00
C20    C     0.07395   0.83114   0.78088   0.00000  Uiso   1.00
C21    C     0.28689   0.93337   0.85488   0.00000  Uiso   1.00
C22    C     0.34004   0.90164   0.89551   0.00000  Uiso   1.00
C23    C     0.35463   0.93209   0.96145   0.00000  Uiso   1.00
H24    H     0.16472   0.06606   0.84511   0.00000  Uiso   1.00
H25    H     0.20563   0.14355   0.73811   0.00000  Uiso   1.00
H26    H     0.04275   0.00106   0.84008   0.00000  Uiso   1.00
H27    H     0.23532   0.07032   0.96395   0.00000  Uiso   1.00
H28    H     0.26740   0.20299   0.60874   0.00000  Uiso   1.00
H29    H     0.92395   0.90254   0.82377   0.00000  Uiso   1.00
H30    H     0.33002   0.04859   0.08497   0.00000  Uiso   1.00
H31    H     0.29131   0.86212   0.76235   0.00000  Uiso   1.00
H32    H     0.33917   0.92842   0.65081   0.00000  Uiso   1.00
H33    H     0.17628   0.78594   0.75278   0.00000  Uiso   1.00
H34    H     0.36885   0.85520   0.87665   0.00000  Uiso   1.00
H35    H     0.37578   0.02838   0.53788   0.00000  Uiso   1.00
H36    H     0.03233   0.72793   0.75291   0.00000  Uiso   1.00
H37    H     0.43840   0.87399   0.01412   0.00000  Uiso   1.00
O38    O     0.35078   0.16297   0.50142   0.00000  Uiso   1.00
O39    O     0.90018   0.76879   0.78354   0.00000  Uiso   1.00
O40    O     0.43294   0.96041   0.12623   0.00000  Uiso   1.00
N41    N     0.28635   0.15280   0.60738   0.00000  Uiso   1.00
N42    N     0.96524   0.87190   0.80840   0.00000  Uiso   1.00
N43    N     0.34487   0.00844   0.05262   0.00000  Uiso   1.00
N44    N     0.34467   0.05885   0.56925   0.00000  Uiso   1.00
N45    N     0.02356   0.77795   0.77028   0.00000  Uiso   1.00
N46    N     0.40319   0.91448   0.01449   0.00000  Uiso   1.00
C47    C     0.30628   0.98066   0.32615   0.00000  Uiso   1.00
C48    C     0.26649   0.96684   0.25654   0.00000  Uiso   1.00
C49    C     0.26553   0.90288   0.21925   0.00000  Uiso   1.00
C50    C     0.22595   0.90106   0.15667   0.00000  Uiso   1.00
C51    C     0.16986   0.87047   0.05228   0.00000  Uiso   1.00
C52    C     0.35499   0.04425   0.31194   0.00000  Uiso   1.00
C53    C     0.42844   0.04539   0.32123   0.00000  Uiso   1.00
C54    C     0.46336   0.10874   0.30528   0.00000  Uiso   1.00
C55    C     0.54467   0.19836   0.28694   0.00000  Uiso   1.00
C56    C     0.25036   0.00661   0.37923   0.00000  Uiso   1.00
C57    C     0.23584   0.97612   0.44513   0.00000  Uiso   1.00
C58    C     0.18268   0.00779   0.48585   0.00000  Uiso   1.00
C59    C     0.10154   0.03897   0.57199   0.00000  Uiso   1.00
C60    C     0.23769   0.09115   0.28131   0.00000  Uiso   1.00
C61    C     0.22924   0.02685   0.23219   0.00000  Uiso   1.00
C62    C     0.18965   0.02512   0.16965   0.00000  Uiso   1.00
C63    C     0.18863   0.96118   0.13227   0.00000  Uiso   1.00
C64    C     0.31774   0.10427   0.28758   0.00000  Uiso   1.00
C65    C     0.35256   0.16763   0.27162   0.00000  Uiso   1.00
C66    C     0.42605   0.16886   0.28088   0.00000  Uiso   1.00
C67    C     0.21311   0.06663   0.35488   0.00000  Uiso   1.00
C68    C     0.15996   0.09836   0.39551   0.00000  Uiso   1.00
C69    C     0.14537   0.06791   0.46145   0.00000  Uiso   1.00
H70    H     0.33528   0.93394   0.34511   0.00000  Uiso   1.00
H71    H     0.29437   0.85645   0.23811   0.00000  Uiso   1.00
H72    H     0.45725   0.99894   0.34008   0.00000  Uiso   1.00
H73    H     0.26468   0.92968   0.46395   0.00000  Uiso   1.00
H74    H     0.23260   0.79701   0.10874   0.00000  Uiso   1.00
H75    H     0.57605   0.09746   0.32377   0.00000  Uiso   1.00
H76    H     0.16998   0.95141   0.58497   0.00000  Uiso   1.00
H77    H     0.20869   0.13788   0.26235   0.00000  Uiso   1.00
H78    H     0.16083   0.07158   0.15081   0.00000  Uiso   1.00
H79    H     0.32372   0.21406   0.25278   0.00000  Uiso   1.00
H80    H     0.13115   0.14480   0.37665   0.00000  Uiso   1.00
H81    H     0.12422   0.97162   0.03788   0.00000  Uiso   1.00
H82    H     0.46767   0.27207   0.25291   0.00000  Uiso   1.00
H83    H     0.06160   0.12601   0.51412   0.00000  Uiso   1.00
O84    O     0.14922   0.83703   0.00142   0.00000  Uiso   1.00
O85    O     0.59982   0.23121   0.28354   0.00000  Uiso   1.00
O86    O     0.06706   0.03959   0.62623   0.00000  Uiso   1.00
N87    N     0.21365   0.84720   0.10738   0.00000  Uiso   1.00
N88    N     0.53476   0.12810   0.30840   0.00000  Uiso   1.00
N89    N     0.15513   0.99156   0.55262   0.00000  Uiso   1.00
N90    N     0.15533   0.94115   0.06925   0.00000  Uiso   1.00
N91    N     0.47644   0.22205   0.27028   0.00000  Uiso   1.00
N92    N     0.09681   0.08552   0.51449   0.00000  Uiso   1.00
C93    C     0.80628   0.51934   0.67385   0.00000  Uiso   1.00
C94    C     0.76649   0.53316   0.74346   0.00000  Uiso   1.00
C95    C     0.76553   0.59712   0.78075   0.00000  Uiso   1.00
C96    C     0.72595   0.59894   0.84333   0.00000  Uiso   1.00
C97    C     0.66986   0.62953   0.94772   0.00000  Uiso   1.00
C98    C     0.85499   0.45575   0.68806   0.00000  Uiso   1.00
C99    C     0.92844   0.45461   0.67877   0.00000  Uiso   1.00
C100   C     0.96336   0.39126   0.69472   0.00000  Uiso   1.00
C101   C     0.04467   0.30164   0.71306   0.00000  Uiso   1.00
C102   C     0.75036   0.49339   0.62077   0.00000  Uiso   1.00
C103   C     0.73584   0.52388   0.55487   0.00000  Uiso   1.00
C104   C     0.68268   0.49221   0.51415   0.00000  Uiso   1.00
C105   C     0.60154   0.46103   0.42801   0.00000  Uiso   1.00
C106   C     0.73769   0.40885   0.71869   0.00000  Uiso   1.00
C107   C     0.72924   0.47315   0.76781   0.00000  Uiso   1.00
C108   C     0.68965   0.47488   0.83035   0.00000  Uiso   1.00
C109   C     0.68863   0.53882   0.86773   0.00000  Uiso   1.00
C110   C     0.81774   0.39573   0.71242   0.00000  Uiso   1.00
C111   C     0.85256   0.33237   0.72838   0.00000  Uiso   1.00
C112   C     0.92605   0.33114   0.71912   0.00000  Uiso   1.00
C113   C     0.71311   0.43337   0.64512   0.00000  Uiso   1.00
C114   C     0.65996   0.40164   0.60449   0.00000  Uiso   1.00
C115   C     0.64537   0.43209   0.53855   0.00000  Uiso   1.00
H116   H     0.83528   0.56606   0.65489   0.00000  Uiso   1.00
H117   H     0.79437   0.64355   0.76189   0.00000  Uiso   1.00
H118   H     0.95725   0.50106   0.65992   0.00000  Uiso   1.00
H119   H     0.76468   0.57032   0.53605   0.00000  Uiso   1.00
H120   H     0.73260   0.70299   0.89126   0.00000  Uiso   1.00
H121   H     0.07605   0.40254   0.67623   0.00000  Uiso   1.00
H122   H     0.66998   0.54859   0.41503   0.00000  Uiso   1.00
H123   H     0.70869   0.36212   0.73765   0.00000  Uiso   1.00
H124   H     0.66083   0.42842   0.84919   0.00000  Uiso   1.00
H125   H     0.82372   0.28594   0.74722   0.00000  Uiso   1.00
H126   H     0.63115   0.35520   0.62335   0.00000  Uiso   1.00
H127   H     0.62422   0.52838   0.96212   0.00000  Uiso   1.00
H128   H     0.96767   0.22793   0.74709   0.00000  Uiso   1.00
H129   H     0.56160   0.37399   0.48588   0.00000  Uiso   1.00
O130   O     0.64922   0.66297   0.99858   0.00000  Uiso   1.00
O131   O     0.09982   0.26879   0.71646   0.00000  Uiso   1.00
O132   O     0.56706   0.46041   0.37377   0.00000  Uiso   1.00
N133   N     0.71365   0.65280   0.89262   0.00000  Uiso   1.00
N134   N     0.03476   0.37190   0.69160   0.00000  Uiso   1.00
N135   N     0.65513   0.50844   0.44738   0.00000  Uiso   1.00
N136   N     0.65533   0.55885   0.93075   0.00000  Uiso   1.00
N137   N     0.97644   0.27795   0.72972   0.00000  Uiso   1.00
N138   N     0.59681   0.41448   0.48551   0.00000  Uiso   1.00
C139   C     0.69372   0.48066   0.17385   0.00000  Uiso   1.00
C140   C     0.73351   0.46684   0.24346   0.00000  Uiso   1.00
C141   C     0.73447   0.40288   0.28075   0.00000  Uiso   1.00
C142   C     0.77405   0.40106   0.34333   0.00000  Uiso   1.00
C143   C     0.83014   0.37047   0.44772   0.00000  Uiso   1.00
C144   C     0.64501   0.54425   0.18806   0.00000  Uiso   1.00
C145   C     0.57156   0.54539   0.17877   0.00000  Uiso   1.00
C146   C     0.53664   0.60874   0.19472   0.00000  Uiso   1.00
C147   C     0.45533   0.69836   0.21306   0.00000  Uiso   1.00
C148   C     0.74964   0.50661   0.12077   0.00000  Uiso   1.00
C149   C     0.76416   0.47612   0.05487   0.00000  Uiso   1.00
C150   C     0.81732   0.50779   0.01415   0.00000  Uiso   1.00
C151   C     0.89846   0.53897   0.92801   0.00000  Uiso   1.00
C152   C     0.76231   0.59115   0.21869   0.00000  Uiso   1.00
C153   C     0.77076   0.52685   0.26781   0.00000  Uiso   1.00
C154   C     0.81035   0.52512   0.33035   0.00000  Uiso   1.00
C155   C     0.81137   0.46118   0.36773   0.00000  Uiso   1.00
C156   C     0.68226   0.60427   0.21242   0.00000  Uiso   1.00
C157   C     0.64744   0.66763   0.22838   0.00000  Uiso   1.00
C158   C     0.57395   0.66886   0.21912   0.00000  Uiso   1.00
C159   C     0.78689   0.56663   0.14512   0.00000  Uiso   1.00
C160   C     0.84004   0.59836   0.10449   0.00000  Uiso   1.00
C161   C     0.85463   0.56791   0.03855   0.00000  Uiso   1.00
H162   H     0.66472   0.43394   0.15489   0.00000  Uiso   1.00
H163   H     0.70563   0.35645   0.26189   0.00000  Uiso   1.00
H164   H     0.54275   0.49894   0.15992   0.00000  Uiso   1.00
H165   H     0.73532   0.42968   0.03605   0.00000  Uiso   1.00
H166   H     0.76740   0.29701   0.39126   0.00000  Uiso   1.00
H167   H     0.42395   0.59746   0.17623   0.00000  Uiso   1.00
H168   H     0.83002   0.45141   0.91503   0.00000  Uiso   1.00
H169   H     0.79131   0.63788   0.23765   0.00000  Uiso   1.00
H170   H     0.83917   0.57158   0.34919   0.00000  Uiso   1.00
H171   H     0.67628   0.71406   0.24722   0.00000  Uiso   1.00
H172   H     0.86885   0.64480   0.12335   0.00000  Uiso   1.00
H173   H     0.87578   0.47162   0.46212   0.00000  Uiso   1.00
H174   H     0.53233   0.77207   0.24709   0.00000  Uiso   1.00
H175   H     0.93840   0.62601   0.98588   0.00000  Uiso   1.00
O176   O     0.85078   0.33703   0.49858   0.00000  Uiso   1.00
O177   O     0.40018   0.73121   0.21646   0.00000  Uiso   1.00
O178   O     0.93294   0.53959   0.87377   0.00000  Uiso   1.00
N179   N     0.78635   0.34720   0.39262   0.00000  Uiso   1.00
N180   N     0.46524   0.62810   0.19160   0.00000  Uiso   1.00
N181   N     0.84487   0.49156   0.94738   0.00000  Uiso   1.00
N182   N     0.84467   0.44115   0.43075   0.00000  Uiso   1.00
N183   N     0.52356   0.72205   0.22972   0.00000  Uiso   1.00
N184   N     0.90319   0.58552   0.98551   0.00000  Uiso   1.00
C185   C     0.82615   0.19372   0.01934   0.00000  Uiso   1.00
C186   C     0.75654   0.23351   0.03316   0.00000  Uiso   1.00
C187   C     0.71925   0.23447   0.09712   0.00000  Uiso   1.00
C188   C     0.65667   0.27405   0.09894   0.00000  Uiso   1.00
C189   C     0.55228   0.33014   0.12953   0.00000  Uiso   1.00
C190   C     0.81194   0.14501   0.95575   0.00000  Uiso   1.00
C191   C     0.82123   0.07156   0.95461   0.00000  Uiso   1.00
C192   C     0.80528   0.03664   0.89126   0.00000  Uiso   1.00
C193   C     0.78694   0.95533   0.80164   0.00000  Uiso   1.00
C194   C     0.87923   0.24964   0.99339   0.00000  Uiso   1.00
C195   C     0.94513   0.26416   0.02388   0.00000  Uiso   1.00
C196   C     0.98585   0.31732   0.99221   0.00000  Uiso   1.00
C197   C     0.07199   0.39846   0.96103   0.00000  Uiso   1.00
C198   C     0.78131   0.26231   0.90885   0.00000  Uiso   1.00
C199   C     0.73219   0.27076   0.97315   0.00000  Uiso   1.00
C200   C     0.66965   0.31035   0.97488   0.00000  Uiso   1.00
C201   C     0.63227   0.31137   0.03882   0.00000  Uiso   1.00
C202   C     0.78758   0.18226   0.89573   0.00000  Uiso   1.00
C203   C     0.77162   0.14744   0.83237   0.00000  Uiso   1.00
C204   C     0.78088   0.07395   0.83114   0.00000  Uiso   1.00
C205   C     0.85488   0.28689   0.93337   0.00000  Uiso   1.00
C206   C     0.89551   0.34004   0.90164   0.00000  Uiso   1.00
C207   C     0.96145   0.35463   0.93209   0.00000  Uiso   1.00
H208   H     0.84511   0.16472   0.06606   0.00000  Uiso   1.00
H209   H     0.73811   0.20563   0.14355   0.00000  Uiso   1.00
H210   H     0.84008   0.04275   0.00106   0.00000  Uiso   1.00
H211   H     0.96395   0.23532   0.07032   0.00000  Uiso   1.00
H212   H     0.60874   0.26740   0.20299   0.00000  Uiso   1.00
H213   H     0.82377   0.92395   0.90254   0.00000  Uiso   1.00
H214   H     0.08497   0.33002   0.04859   0.00000  Uiso   1.00
H215   H     0.76235   0.29131   0.86212   0.00000  Uiso   1.00
H216   H     0.65081   0.33917   0.92842   0.00000  Uiso   1.00
H217   H     0.75278   0.17628   0.78594   0.00000  Uiso   1.00
H218   H     0.87665   0.36885   0.85520   0.00000  Uiso   1.00
H219   H     0.53788   0.37578   0.02838   0.00000  Uiso   1.00
H220   H     0.75291   0.03233   0.72793   0.00000  Uiso   1.00
H221   H     0.01412   0.43840   0.87399   0.00000  Uiso   1.00
O222   O     0.50142   0.35078   0.16297   0.00000  Uiso   1.00
O223   O     0.78354   0.90018   0.76879   0.00000  Uiso   1.00
O224   O     0.12623   0.43294   0.96041   0.00000  Uiso   1.00
N225   N     0.60738   0.28635   0.15280   0.00000  Uiso   1.00
N226   N     0.80840   0.96524   0.87190   0.00000  Uiso   1.00
N227   N     0.05262   0.34487   0.00844   0.00000  Uiso   1.00
N228   N     0.56925   0.34467   0.05885   0.00000  Uiso   1.00
N229   N     0.77028   0.02356   0.77795   0.00000  Uiso   1.00
N230   N     0.01449   0.40319   0.91448   0.00000  Uiso   1.00
C231   C     0.32615   0.30628   0.98066   0.00000  Uiso   1.00
C232   C     0.25654   0.26649   0.96684   0.00000  Uiso   1.00
C233   C     0.21925   0.26553   0.90288   0.00000  Uiso   1.00
C234   C     0.15667   0.22595   0.90106   0.00000  Uiso   1.00
C235   C     0.05228   0.16986   0.87047   0.00000  Uiso   1.00
C236   C     0.31194   0.35499   0.04425   0.00000  Uiso   1.00
C237   C     0.32123   0.42844   0.04539   0.00000  Uiso   1.00
C238   C     0.30528   0.46336   0.10874   0.00000  Uiso   1.00
C239   C     0.28694   0.54467   0.19836   0.00000  Uiso   1.00
C240   C     0.37923   0.25036   0.00661   0.00000  Uiso   1.00
C241   C     0.44513   0.23584   0.97612   0.00000  Uiso   1.00
C242   C     0.48585   0.18268   0.00779   0.00000  Uiso   1.00
C243   C     0.57199   0.10154   0.03897   0.00000  Uiso   1.00
C244   C     0.28131   0.23769   0.09115   0.00000  Uiso   1.00
C245   C     0.23219   0.22924   0.02685   0.00000  Uiso   1.00
C246   C     0.16965   0.18965   0.02512   0.00000  Uiso   1.00
C247   C     0.13227   0.18863   0.96118   0.00000  Uiso   1.00
C248   C     0.28758   0.31774   0.10427   0.00000  Uiso   1.00
C249   C     0.27162   0.35256   0.16763   0.00000  Uiso   1.00
C250   C     0.28088   0.42605   0.16886   0.00000  Uiso   1.00
C251   C     0.35488   0.21311   0.06663   0.00000  Uiso   1.00
C252   C     0.39551   0.15996   0.09836   0.00000  Uiso   1.00
C253   C     0.46145   0.14537   0.06791   0.00000  Uiso   1.00
H254   H     0.34511   0.33528   0.93394   0.00000  Uiso   1.00
H255   H     0.23811   0.29437   0.85645   0.00000  Uiso   1.00
H256   H     0.34008   0.45725   0.99894   0.00000  Uiso   1.00
H257   H     0.46395   0.26468   0.92968   0.00000  Uiso   1.00
H258   H     0.10874   0.23260   0.79701   0.00000  Uiso   1.00
H259   H     0.32377   0.57605   0.09746   0.00000  Uiso   1.00
H260   H     0.58497   0.16998   0.95141   0.00000  Uiso   1.00
H261   H     0.26235   0.20869   0.13788   0.00000  Uiso   1.00
H262   H     0.15081   0.16083   0.07158   0.00000  Uiso   1.00
H263   H     0.25278   0.32372   0.21406   0.00000  Uiso   1.00
H264   H     0.37665   0.13115   0.14480   0.00000  Uiso   1.00
H265   H     0.03788   0.12422   0.97162   0.00000  Uiso   1.00
H266   H     0.25291   0.46767   0.27207   0.00000  Uiso   1.00
H267   H     0.51412   0.06160   0.12601   0.00000  Uiso   1.00
O268   O     0.00142   0.14922   0.83703   0.00000  Uiso   1.00
O269   O     0.28354   0.59982   0.23121   0.00000  Uiso   1.00
O270   O     0.62623   0.06706   0.03959   0.00000  Uiso   1.00
N271   N     0.10738   0.21365   0.84720   0.00000  Uiso   1.00
N272   N     0.30840   0.53476   0.12810   0.00000  Uiso   1.00
N273   N     0.55262   0.15513   0.99156   0.00000  Uiso   1.00
N274   N     0.06925   0.15533   0.94115   0.00000  Uiso   1.00
N275   N     0.27028   0.47644   0.22205   0.00000  Uiso   1.00
N276   N     0.51449   0.09681   0.08552   0.00000  Uiso   1.00
C277   C     0.67385   0.80628   0.51934   0.00000  Uiso   1.00
C278   C     0.74346   0.76649   0.53316   0.00000  Uiso   1.00
C279   C     0.78075   0.76553   0.59712   0.00000  Uiso   1.00
C280   C     0.84333   0.72595   0.59894   0.00000  Uiso   1.00
C281   C     0.94772   0.66986   0.62953   0.00000  Uiso   1.00
C282   C     0.68806   0.85499   0.45575   0.00000  Uiso   1.00
C283   C     0.67877   0.92844   0.45461   0.00000  Uiso   1.00
C284   C     0.69472   0.96336   0.39126   0.00000  Uiso   1.00
C285   C     0.71306   0.04467   0.30164   0.00000  Uiso   1.00
C286   C     0.62077   0.75036   0.49339   0.00000  Uiso   1.00
C287   C     0.55487   0.73584   0.52388   0.00000  Uiso   1.00
C288   C     0.51415   0.68268   0.49221   0.00000  Uiso   1.00
C289   C     0.42801   0.60154   0.46103   0.00000  Uiso   1.00
C290   C     0.71869   0.73769   0.40885   0.00000  Uiso   1.00
C291   C     0.76781   0.72924   0.47315   0.00000  Uiso   1.00
C292   C     0.83035   0.68965   0.47488   0.00000  Uiso   1.00
C293   C     0.86773   0.68863   0.53882   0.00000  Uiso   1.00
C294   C     0.71242   0.81774   0.39573   0.00000  Uiso   1.00
C295   C     0.72838   0.85256   0.33237   0.00000  Uiso   1.00
C296   C     0.71912   0.92605   0.33114   0.00000  Uiso   1.00
C297   C     0.64512   0.71311   0.43337   0.00000  Uiso   1.00
C298   C     0.60449   0.65996   0.40164   0.00000  Uiso   1.00
C299   C     0.53855   0.64537   0.43209   0.00000  Uiso   1.00
H300   H     0.65489   0.83528   0.56606   0.00000  Uiso   1.00
H301   H     0.76189   0.79437   0.64355   0.00000  Uiso   1.00
H302   H     0.65992   0.95725   0.50106   0.00000  Uiso   1.00
H303   H     0.53605   0.76468   0.57032   0.00000  Uiso   1.00
H304   H     0.89126   0.73260   0.70299   0.00000  Uiso   1.00
H305   H     0.67623   0.07605   0.40254   0.00000  Uiso   1.00
H306   H     0.41503   0.66998   0.54859   0.00000  Uiso   1.00
H307   H     0.73765   0.70869   0.36212   0.00000  Uiso   1.00
H308   H     0.84919   0.66083   0.42842   0.00000  Uiso   1.00
H309   H     0.74722   0.82372   0.28594   0.00000  Uiso   1.00
H310   H     0.62335   0.63115   0.35520   0.00000  Uiso   1.00
H311   H     0.96212   0.62422   0.52838   0.00000  Uiso   1.00
H312   H     0.74709   0.96767   0.22793   0.00000  Uiso   1.00
H313   H     0.48588   0.56160   0.37399   0.00000  Uiso   1.00
O314   O     0.99858   0.64922   0.66297   0.00000  Uiso   1.00
O315   O     0.71646   0.09982   0.26879   0.00000  Uiso   1.00
O316   O     0.37377   0.56706   0.46041   0.00000  Uiso   1.00
N317   N     0.89262   0.71365   0.65280   0.00000  Uiso   1.00
N318   N     0.69160   0.03476   0.37190   0.00000  Uiso   1.00
N319   N     0.44738   0.65513   0.50844   0.00000  Uiso   1.00
N320   N     0.93075   0.65533   0.55885   0.00000  Uiso   1.00
N321   N     0.72972   0.97644   0.27795   0.00000  Uiso   1.00
N322   N     0.48551   0.59681   0.41448   0.00000  Uiso   1.00
C323   C     0.17385   0.69372   0.48066   0.00000  Uiso   1.00
C324   C     0.24346   0.73351   0.46684   0.00000  Uiso   1.00
C325   C     0.28075   0.73447   0.40288   0.00000  Uiso   1.00
C326   C     0.34333   0.77405   0.40106   0.00000  Uiso   1.00
C327   C     0.44772   0.83014   0.37047   0.00000  Uiso   1.00
C328   C     0.18806   0.64501   0.54425   0.00000  Uiso   1.00
C329   C     0.17877   0.57156   0.54539   0.00000  Uiso   1.00
C330   C     0.19472   0.53664   0.60874   0.00000  Uiso   1.00
C331   C     0.21306   0.45533   0.69836   0.00000  Uiso   1.00
C332   C     0.12077   0.74964   0.50661   0.00000  Uiso   1.00
C333   C     0.05487   0.76416   0.47612   0.00000  Uiso   1.00
C334   C     0.01415   0.81732   0.50779   0.00000  Uiso   1.00
C335   C     0.92801   0.89846   0.53897   0.00000  Uiso   1.00
C336   C     0.21869   0.76231   0.59115   0.00000  Uiso   1.00
C337   C     0.26781   0.77076   0.52685   0.00000  Uiso   1.00
C338   C     0.33035   0.81035   0.52512   0.00000  Uiso   1.00
C339   C     0.36773   0.81137   0.46118   0.00000  Uiso   1.00
C340   C     0.21242   0.68226   0.60427   0.00000  Uiso   1.00
C341   C     0.22838   0.64744   0.66763   0.00000  Uiso   1.00
C342   C     0.21912   0.57395   0.66886   0.00000  Uiso   1.00
C343   C     0.14512   0.78689   0.56663   0.00000  Uiso   1.00
C344   C     0.10449   0.84004   0.59836   0.00000  Uiso   1.00
C345   C     0.03855   0.85463   0.56791   0.00000  Uiso   1.00
H346   H     0.15489   0.66472   0.43394   0.00000  Uiso   1.00
H347   H     0.26189   0.70563   0.35645   0.00000  Uiso   1.00
H348   H     0.15992   0.54275   0.49894   0.00000  Uiso   1.00
H349   H     0.03605   0.73532   0.42968   0.00000  Uiso   1.00
H350   H     0.39126   0.76740   0.29701   0.00000  Uiso   1.00
H351   H     0.17623   0.42395   0.59746   0.00000  Uiso   1.00
H352   H     0.91503   0.83002   0.45141   0.00000  Uiso   1.00
H353   H     0.23765   0.79131   0.63788   0.00000  Uiso   1.00
H354   H     0.34919   0.83917   0.57158   0.00000  Uiso   1.00
H355   H     0.24722   0.67628   0.71406   0.00000  Uiso   1.00
H356   H     0.12335   0.86885   0.64480   0.00000  Uiso   1.00
H357   H     0.46212   0.87578   0.47162   0.00000  Uiso   1.00
H358   H     0.24709   0.53233   0.77207   0.00000  Uiso   1.00
H359   H     0.98588   0.93840   0.62601   0.00000  Uiso   1.00
O360   O     0.49858   0.85078   0.33703   0.00000  Uiso   1.00
O361   O     0.21646   0.40018   0.73121   0.00000  Uiso   1.00
O362   O     0.87377   0.93294   0.53959   0.00000  Uiso   1.00
N363   N     0.39262   0.78635   0.34720   0.00000  Uiso   1.00
N364   N     0.19160   0.46524   0.62810   0.00000  Uiso   1.00
N365   N     0.94738   0.84487   0.49156   0.00000  Uiso   1.00
N366   N     0.43075   0.84467   0.44115   0.00000  Uiso   1.00
N367   N     0.22972   0.52356   0.72205   0.00000  Uiso   1.00
N368   N     0.98551   0.90319   0.58552   0.00000  Uiso   1.00
C369   C     0.01934   0.82615   0.19372   0.00000  Uiso   1.00
C370   C     0.03316   0.75654   0.23351   0.00000  Uiso   1.00
C371   C     0.09712   0.71925   0.23447   0.00000  Uiso   1.00
C372   C     0.09894   0.65667   0.27405   0.00000  Uiso   1.00
C373   C     0.12953   0.55228   0.33014   0.00000  Uiso   1.00
C374   C     0.95575   0.81194   0.14501   0.00000  Uiso   1.00
C375   C     0.95461   0.82123   0.07156   0.00000  Uiso   1.00
C376   C     0.89126   0.80528   0.03664   0.00000  Uiso   1.00
C377   C     0.80164   0.78694   0.95533   0.00000  Uiso   1.00
C378   C     0.99339   0.87923   0.24964   0.00000  Uiso   1.00
C379   C     0.02388   0.94513   0.26416   0.00000  Uiso   1.00
C380   C     0.99221   0.98585   0.31732   0.00000  Uiso   1.00
C381   C     0.96103   0.07199   0.39846   0.00000  Uiso   1.00
C382   C     0.90885   0.78131   0.26231   0.00000  Uiso   1.00
C383   C     0.97315   0.73219   0.27076   0.00000  Uiso   1.00
C384   C     0.97488   0.66965   0.31035   0.00000  Uiso   1.00
C385   C     0.03882   0.63227   0.31137   0.00000  Uiso   1.00
C386   C     0.89573   0.78758   0.18226   0.00000  Uiso   1.00
C387   C     0.83237   0.77162   0.14744   0.00000  Uiso   1.00
C388   C     0.83114   0.78088   0.07395   0.00000  Uiso   1.00
C389   C     0.93337   0.85488   0.28689   0.00000  Uiso   1.00
C390   C     0.90164   0.89551   0.34004   0.00000  Uiso   1.00
C391   C     0.93209   0.96145   0.35463   0.00000  Uiso   1.00
H392   H     0.06606   0.84511   0.16472   0.00000  Uiso   1.00
H393   H     0.14355   0.73811   0.20563   0.00000  Uiso   1.00
H394   H     0.00106   0.84008   0.04275   0.00000  Uiso   1.00
H395   H     0.07032   0.96395   0.23532   0.00000  Uiso   1.00
H396   H     0.20299   0.60874   0.26740   0.00000  Uiso   1.00
H397   H     0.90254   0.82377   0.92395   0.00000  Uiso   1.00
H398   H     0.04859   0.08497   0.33002   0.00000  Uiso   1.00
H399   H     0.86212   0.76235   0.29131   0.00000  Uiso   1.00
H400   H     0.92842   0.65081   0.33917   0.00000  Uiso   1.00
H401   H     0.78594   0.75278   0.17628   0.00000  Uiso   1.00
H402   H     0.85520   0.87665   0.36885   0.00000  Uiso   1.00
H403   H     0.02838   0.53788   0.37578   0.00000  Uiso   1.00
H404   H     0.72793   0.75291   0.03233   0.00000  Uiso   1.00
H405   H     0.87399   0.01412   0.43840   0.00000  Uiso   1.00
O406   O     0.16297   0.50142   0.35078   0.00000  Uiso   1.00
O407   O     0.76879   0.78354   0.90018   0.00000  Uiso   1.00
O408   O     0.96041   0.12623   0.43294   0.00000  Uiso   1.00
N409   N     0.15280   0.60738   0.28635   0.00000  Uiso   1.00
N410   N     0.87190   0.80840   0.96524   0.00000  Uiso   1.00
N411   N     0.00844   0.05262   0.34487   0.00000  Uiso   1.00
N412   N     0.05885   0.56925   0.34467   0.00000  Uiso   1.00
N413   N     0.77795   0.77028   0.02356   0.00000  Uiso   1.00
N414   N     0.91448   0.01449   0.40319   0.00000  Uiso   1.00
C415   C     0.98066   0.32615   0.30628   0.00000  Uiso   1.00
C416   C     0.96684   0.25654   0.26649   0.00000  Uiso   1.00
C417   C     0.90288   0.21925   0.26553   0.00000  Uiso   1.00
C418   C     0.90106   0.15667   0.22595   0.00000  Uiso   1.00
C419   C     0.87047   0.05228   0.16986   0.00000  Uiso   1.00
C420   C     0.04425   0.31194   0.35499   0.00000  Uiso   1.00
C421   C     0.04539   0.32123   0.42844   0.00000  Uiso   1.00
C422   C     0.10874   0.30528   0.46336   0.00000  Uiso   1.00
C423   C     0.19836   0.28694   0.54467   0.00000  Uiso   1.00
C424   C     0.00661   0.37923   0.25036   0.00000  Uiso   1.00
C425   C     0.97612   0.44513   0.23584   0.00000  Uiso   1.00
C426   C     0.00779   0.48585   0.18268   0.00000  Uiso   1.00
C427   C     0.03897   0.57199   0.10154   0.00000  Uiso   1.00
C428   C     0.09115   0.28131   0.23769   0.00000  Uiso   1.00
C429   C     0.02685   0.23219   0.22924   0.00000  Uiso   1.00
C430   C     0.02512   0.16965   0.18965   0.00000  Uiso   1.00
C431   C     0.96118   0.13227   0.18863   0.00000  Uiso   1.00
C432   C     0.10427   0.28758   0.31774   0.00000  Uiso   1.00
C433   C     0.16763   0.27162   0.35256   0.00000  Uiso   1.00
C434   C     0.16886   0.28088   0.42605   0.00000  Uiso   1.00
C435   C     0.06663   0.35488   0.21311   0.00000  Uiso   1.00
C436   C     0.09836   0.39551   0.15996   0.00000  Uiso   1.00
C437   C     0.06791   0.46145   0.14537   0.00000  Uiso   1.00
H438   H     0.93394   0.34511   0.33528   0.00000  Uiso   1.00
H439   H     0.85645   0.23811   0.29437   0.00000  Uiso   1.00
H440   H     0.99894   0.34008   0.45725   0.00000  Uiso   1.00
H441   H     0.92968   0.46395   0.26468   0.00000  Uiso   1.00
H442   H     0.79701   0.10874   0.23260   0.00000  Uiso   1.00
H443   H     0.09746   0.32377   0.57605   0.00000  Uiso   1.00
H444   H     0.95141   0.58497   0.16998   0.00000  Uiso   1.00
H445   H     0.13788   0.26235   0.20869   0.00000  Uiso   1.00
H446   H     0.07158   0.15081   0.16083   0.00000  Uiso   1.00
H447   H     0.21406   0.25278   0.32372   0.00000  Uiso   1.00
H448   H     0.14480   0.37665   0.13115   0.00000  Uiso   1.00
H449   H     0.97162   0.03788   0.12422   0.00000  Uiso   1.00
H450   H     0.27207   0.25291   0.46767   0.00000  Uiso   1.00
H451   H     0.12601   0.51412   0.06160   0.00000  Uiso   1.00
O452   O     0.83703   0.00142   0.14922   0.00000  Uiso   1.00
O453   O     0.23121   0.28354   0.59982   0.00000  Uiso   1.00
O454   O     0.03959   0.62623   0.06706   0.00000  Uiso   1.00
N455   N     0.84720   0.10738   0.21365   0.00000  Uiso   1.00
N456   N     0.12810   0.30840   0.53476   0.00000  Uiso   1.00
N457   N     0.99156   0.55262   0.15513   0.00000  Uiso   1.00
N458   N     0.94115   0.06925   0.15533   0.00000  Uiso   1.00
N459   N     0.22205   0.27028   0.47644   0.00000  Uiso   1.00
N460   N     0.08552   0.51449   0.09681   0.00000  Uiso   1.00
C461   C     0.51934   0.67385   0.80628   0.00000  Uiso   1.00
C462   C     0.53316   0.74346   0.76649   0.00000  Uiso   1.00
C463   C     0.59712   0.78075   0.76553   0.00000  Uiso   1.00
C464   C     0.59894   0.84333   0.72595   0.00000  Uiso   1.00
C465   C     0.62953   0.94772   0.66986   0.00000  Uiso   1.00
C466   C     0.45575   0.68806   0.85499   0.00000  Uiso   1.00
C467   C     0.45461   0.67877   0.92844   0.00000  Uiso   1.00
C468   C     0.39126   0.69472   0.96336   0.00000  Uiso   1.00
C469   C     0.30164   0.71306   0.04467   0.00000  Uiso   1.00
C470   C     0.49339   0.62077   0.75036   0.00000  Uiso   1.00
C471   C     0.52388   0.55487   0.73584   0.00000  Uiso   1.00
C472   C     0.49221   0.51415   0.68268   0.00000  Uiso   1.00
C473   C     0.46103   0.42801   0.60154   0.00000  Uiso   1.00
C474   C     0.40885   0.71869   0.73769   0.00000  Uiso   1.00
C475   C     0.47315   0.76781   0.72924   0.00000  Uiso   1.00
C476   C     0.47488   0.83035   0.68965   0.00000  Uiso   1.00
C477   C     0.53882   0.86773   0.68863   0.00000  Uiso   1.00
C478   C     0.39573   0.71242   0.81774   0.00000  Uiso   1.00
C479   C     0.33237   0.72838   0.85256   0.00000  Uiso   1.00
C480   C     0.33114   0.71912   0.92605   0.00000  Uiso   1.00
C481   C     0.43337   0.64512   0.71311   0.00000  Uiso   1.00
C482   C     0.40164   0.60449   0.65996   0.00000  Uiso   1.00
C483   C     0.43209   0.53855   0.64537   0.00000  Uiso   1.00
H484   H     0.56606   0.65489   0.83528   0.00000  Uiso   1.00
H485   H     0.64355   0.76189   0.79437   0.00000  Uiso   1.00
H486   H     0.50106   0.65992   0.95725   0.00000  Uiso   1.00
H487   H     0.57032   0.53605   0.76468   0.00000  Uiso   1.00
H488   H     0.70299   0.89126   0.73260   0.00000  Uiso   1.00
H489   H     0.40254   0.67623   0.07605   0.00000  Uiso   1.00
H490   H     0.54859   0.41503   0.66998   0.00000  Uiso   1.00
H491   H     0.36212   0.73765   0.70869   0.00000  Uiso   1.00
H492   H     0.42842   0.84919   0.66083   0.00000  Uiso   1.00
H493   H     0.28594   0.74722   0.82372   0.00000  Uiso   1.00
H494   H     0.35520   0.62335   0.63115   0.00000  Uiso   1.00
H495   H     0.52838   0.96212   0.62422   0.00000  Uiso   1.00
H496   H     0.22793   0.74709   0.96767   0.00000  Uiso   1.00
H497   H     0.37399   0.48588   0.56160   0.00000  Uiso   1.00
O498   O     0.66297   0.99858   0.64922   0.00000  Uiso   1.00
O499   O     0.26879   0.71646   0.09982   0.00000  Uiso   1.00
O500   O     0.46041   0.37377   0.56706   0.00000  Uiso   1.00
N501   N     0.65280   0.89262   0.71365   0.00000  Uiso   1.00
N502   N     0.37190   0.69160   0.03476   0.00000  Uiso   1.00
N503   N     0.50844   0.44738   0.65513   0.00000  Uiso   1.00
N504   N     0.55885   0.93075   0.65533   0.00000  Uiso   1.00
N505   N     0.27795   0.72972   0.97644   0.00000  Uiso   1.00
N506   N     0.41448   0.48551   0.59681   0.00000  Uiso   1.00
C507   C     0.48066   0.17385   0.69372   0.00000  Uiso   1.00
C508   C     0.46684   0.24346   0.73351   0.00000  Uiso   1.00
C509   C     0.40288   0.28075   0.73447   0.00000  Uiso   1.00
C510   C     0.40106   0.34333   0.77405   0.00000  Uiso   1.00
C511   C     0.37047   0.44772   0.83014   0.00000  Uiso   1.00
C512   C     0.54425   0.18806   0.64501   0.00000  Uiso   1.00
C513   C     0.54539   0.17877   0.57156   0.00000  Uiso   1.00
C514   C     0.60874   0.19472   0.53664   0.00000  Uiso   1.00
C515   C     0.69836   0.21306   0.45533   0.00000  Uiso   1.00
C516   C     0.50661   0.12077   0.74964   0.00000  Uiso   1.00
C517   C     0.47612   0.05487   0.76416   0.00000  Uiso   1.00
C518   C     0.50779   0.01415   0.81732   0.00000  Uiso   1.00
C519   C     0.53897   0.92801   0.89846   0.00000  Uiso   1.00
C520   C     0.59115   0.21869   0.76231   0.00000  Uiso   1.00
C521   C     0.52685   0.26781   0.77076   0.00000  Uiso   1.00
C522   C     0.52512   0.33035   0.81035   0.00000  Uiso   1.00
C523   C     0.46118   0.36773   0.81137   0.00000  Uiso   1.00
C524   C     0.60427   0.21242   0.68226   0.00000  Uiso   1.00
C525   C     0.66763   0.22838   0.64744   0.00000  Uiso   1.00
C526   C     0.66886   0.21912   0.57395   0.00000  Uiso   1.00
C527   C     0.56663   0.14512   0.78689   0.00000  Uiso   1.00
C528   C     0.59836   0.10449   0.84004   0.00000  Uiso   1.00
C529   C     0.56791   0.03855   0.85463   0.00000  Uiso   1.00
H530   H     0.43394   0.15489   0.66472   0.00000  Uiso   1.00
H531   H     0.35645   0.26189   0.70563   0.00000  Uiso   1.00
H532   H     0.49894   0.15992   0.54275   0.00000  Uiso   1.00
H533   H     0.42968   0.03605   0.73532   0.00000  Uiso   1.00
H534   H     0.29701   0.39126   0.76740   0.00000  Uiso   1.00
H535   H     0.59746   0.17623   0.42395   0.00000  Uiso   1.00
H536   H     0.45141   0.91503   0.83002   0.00000  Uiso   1.00
H537   H     0.63788   0.23765   0.79131   0.00000  Uiso   1.00
H538   H     0.57158   0.34919   0.83917   0.00000  Uiso   1.00
H539   H     0.71406   0.24722   0.67628   0.00000  Uiso   1.00
H540   H     0.64480   0.12335   0.86885   0.00000  Uiso   1.00
H541   H     0.47162   0.46212   0.87578   0.00000  Uiso   1.00
H542   H     0.77207   0.24709   0.53233   0.00000  Uiso   1.00
H543   H     0.62601   0.98588   0.93840   0.00000  Uiso   1.00
O544   O     0.33703   0.49858   0.85078   0.00000  Uiso   1.00
O545   O     0.73121   0.21646   0.40018   0.00000  Uiso   1.00
O546   O     0.53959   0.87377   0.93294   0.00000  Uiso   1.00
N547   N     0.34720   0.39262   0.78635   0.00000  Uiso   1.00
N548   N     0.62810   0.19160   0.46524   0.00000  Uiso   1.00
N549   N     0.49156   0.94738   0.84487   0.00000  Uiso   1.00
N550   N     0.44115   0.43075   0.84467   0.00000  Uiso   1.00
N551   N     0.72205   0.22972   0.52356   0.00000  Uiso   1.00
N552   N     0.58552   0.98551   0.90319   0.00000  Uiso   1.00
