data_job_01510
_audit_creation_date              2018-12-19
_audit_creation_method            'Materials Studio'
_symmetry_space_group_name_H-M    'P1'
_symmetry_Int_Tables_number       1
_symmetry_cell_setting            triclinic
loop_
_symmetry_equiv_pos_as_xyz
  x,y,z
_cell_length_a                    23.1129
_cell_length_b                    13.7452
_cell_length_c                    9.4621
_cell_angle_alpha                 90.0000
_cell_angle_beta                  90.0000
_cell_angle_gamma                 90.0000
loop_
_atom_site_label
_atom_site_type_symbol
_atom_site_fract_x
_atom_site_fract_y
_atom_site_fract_z
_atom_site_U_iso_or_equiv
_atom_site_adp_type
_atom_site_occupancy
C1     C     0.88414   0.16642   0.34903   0.00000  Uiso   1.00
C2     C     0.83546   0.23623   0.30968   0.00000  Uiso   1.00
C3     C     0.79025   0.21622   0.21764   0.00000  Uiso   1.00
C4     C     0.75008   0.28975   0.19555   0.00000  Uiso   1.00
C5     C     0.67375   0.38444   0.12412   0.00000  Uiso   1.00
C6     C     0.94036   0.21893   0.31299   0.00000  Uiso   1.00
C7     C     0.98335   0.18437   0.22374   0.00000  Uiso   1.00
C8     C     0.03147   0.24334   0.20445   0.00000  Uiso   1.00
C9     C     0.11803   0.31114   0.13824   0.00000  Uiso   1.00
C10    C     0.88281   0.15798   0.50968   0.00000  Uiso   1.00
C11    C     0.87743   0.07216   0.58583   0.00000  Uiso   1.00
C12    C     0.87712   0.07981   0.73215   0.00000  Uiso   1.00
C13    C     0.87431   0.05296   0.97133   0.00000  Uiso   1.00
C14    C     0.89318   0.33260   0.47347   0.00000  Uiso   1.00
C15    C     0.84037   0.32649   0.37728   0.00000  Uiso   1.00
C16    C     0.80025   0.40008   0.35532   0.00000  Uiso   1.00
C17    C     0.75499   0.38017   0.26327   0.00000  Uiso   1.00
C18    C     0.94527   0.30919   0.38058   0.00000  Uiso   1.00
C19    C     0.99334   0.36823   0.36142   0.00000  Uiso   1.00
C20    C     0.03639   0.33377   0.27217   0.00000  Uiso   1.00
C21    C     0.88771   0.24824   0.57728   0.00000  Uiso   1.00
C22    C     0.88742   0.25602   0.72351   0.00000  Uiso   1.00
C23    C     0.88203   0.17023   0.79986   0.00000  Uiso   1.00
H24    H     0.88032   0.09615   0.29641   0.00000  Uiso   1.00
H25    H     0.78647   0.14636   0.16534   0.00000  Uiso   1.00
H26    H     0.97954   0.11451   0.17146   0.00000  Uiso   1.00
H27    H     0.87363   0.00232   0.53349   0.00000  Uiso   1.00
H28    H     0.68460   0.24184   0.04981   0.00000  Uiso   1.00
H29    H     0.09169   0.17468   0.06274   0.00000  Uiso   1.00
H30    H     0.86837   0.93810   0.82615   0.00000  Uiso   1.00
H31    H     0.89700   0.40288   0.52610   0.00000  Uiso   1.00
H32    H     0.80406   0.46992   0.40764   0.00000  Uiso   1.00
H33    H     0.99713   0.43807   0.41375   0.00000  Uiso   1.00
H34    H     0.89122   0.32588   0.77578   0.00000  Uiso   1.00
H35    H     0.69887   0.50446   0.24646   0.00000  Uiso   1.00
H36    H     0.10597   0.43729   0.25940   0.00000  Uiso   1.00
H37    H     0.88264   0.20072   0.02280   0.00000  Uiso   1.00
O38    O     0.63031   0.41173   0.06603   0.00000  Uiso   1.00
O39    O     0.16441   0.32360   0.08302   0.00000  Uiso   1.00
O40    O     0.87140   0.01322   0.08458   0.00000  Uiso   1.00
N41    N     0.70070   0.29444   0.11237   0.00000  Uiso   1.00
N42    N     0.08131   0.23165   0.12444   0.00000  Uiso   1.00
N43    N     0.87254   0.01047   0.83816   0.00000  Uiso   1.00
N44    N     0.70839   0.43575   0.21819   0.00000  Uiso   1.00
N45    N     0.08900   0.37297   0.23026   0.00000  Uiso   1.00
N46    N     0.88022   0.15178   0.94398   0.00000  Uiso   1.00
C47    C     0.61586   0.83358   0.84903   0.00000  Uiso   1.00
C48    C     0.66454   0.76377   0.80968   0.00000  Uiso   1.00
C49    C     0.70975   0.78378   0.71764   0.00000  Uiso   1.00
C50    C     0.74992   0.71025   0.69555   0.00000  Uiso   1.00
C51    C     0.82625   0.61556   0.62412   0.00000  Uiso   1.00
C52    C     0.55964   0.78107   0.81299   0.00000  Uiso   1.00
C53    C     0.51665   0.81563   0.72374   0.00000  Uiso   1.00
C54    C     0.46853   0.75666   0.70445   0.00000  Uiso   1.00
C55    C     0.38197   0.68886   0.63824   0.00000  Uiso   1.00
C56    C     0.61719   0.84202   0.00968   0.00000  Uiso   1.00
C57    C     0.62257   0.92784   0.08583   0.00000  Uiso   1.00
C58    C     0.62288   0.92019   0.23215   0.00000  Uiso   1.00
C59    C     0.62569   0.94704   0.47133   0.00000  Uiso   1.00
C60    C     0.60682   0.66740   0.97347   0.00000  Uiso   1.00
C61    C     0.65963   0.67351   0.87728   0.00000  Uiso   1.00
C62    C     0.69975   0.59992   0.85532   0.00000  Uiso   1.00
C63    C     0.74501   0.61983   0.76327   0.00000  Uiso   1.00
C64    C     0.55473   0.69081   0.88058   0.00000  Uiso   1.00
C65    C     0.50666   0.63177   0.86142   0.00000  Uiso   1.00
C66    C     0.46361   0.66623   0.77217   0.00000  Uiso   1.00
C67    C     0.61229   0.75176   0.07728   0.00000  Uiso   1.00
C68    C     0.61258   0.74398   0.22351   0.00000  Uiso   1.00
C69    C     0.61797   0.82977   0.29986   0.00000  Uiso   1.00
H70    H     0.61968   0.90385   0.79641   0.00000  Uiso   1.00
H71    H     0.71353   0.85364   0.66534   0.00000  Uiso   1.00
H72    H     0.52046   0.88549   0.67146   0.00000  Uiso   1.00
H73    H     0.62637   0.99768   0.03349   0.00000  Uiso   1.00
H74    H     0.81540   0.75816   0.54981   0.00000  Uiso   1.00
H75    H     0.40831   0.82532   0.56274   0.00000  Uiso   1.00
H76    H     0.63163   0.06190   0.32615   0.00000  Uiso   1.00
H77    H     0.60300   0.59712   0.02610   0.00000  Uiso   1.00
H78    H     0.69594   0.53008   0.90764   0.00000  Uiso   1.00
H79    H     0.50287   0.56193   0.91375   0.00000  Uiso   1.00
H80    H     0.60878   0.67412   0.27578   0.00000  Uiso   1.00
H81    H     0.80113   0.49554   0.74646   0.00000  Uiso   1.00
H82    H     0.39403   0.56271   0.75940   0.00000  Uiso   1.00
H83    H     0.61736   0.79928   0.52280   0.00000  Uiso   1.00
O84    O     0.86969   0.58827   0.56603   0.00000  Uiso   1.00
O85    O     0.33559   0.67640   0.58302   0.00000  Uiso   1.00
O86    O     0.62860   0.98678   0.58458   0.00000  Uiso   1.00
N87    N     0.79930   0.70556   0.61237   0.00000  Uiso   1.00
N88    N     0.41869   0.76835   0.62444   0.00000  Uiso   1.00
N89    N     0.62746   0.98953   0.33816   0.00000  Uiso   1.00
N90    N     0.79161   0.56425   0.71819   0.00000  Uiso   1.00
N91    N     0.41100   0.62703   0.73026   0.00000  Uiso   1.00
N92    N     0.61978   0.84822   0.44398   0.00000  Uiso   1.00
C93    C     0.11586   0.66642   0.15097   0.00000  Uiso   1.00
C94    C     0.16454   0.73623   0.19032   0.00000  Uiso   1.00
C95    C     0.20975   0.71622   0.28236   0.00000  Uiso   1.00
C96    C     0.24992   0.78975   0.30445   0.00000  Uiso   1.00
C97    C     0.32625   0.88444   0.37588   0.00000  Uiso   1.00
C98    C     0.05964   0.71893   0.18701   0.00000  Uiso   1.00
C99    C     0.01665   0.68437   0.27626   0.00000  Uiso   1.00
C100   C     0.96853   0.74334   0.29555   0.00000  Uiso   1.00
C101   C     0.88197   0.81114   0.36176   0.00000  Uiso   1.00
C102   C     0.11719   0.65798   0.99032   0.00000  Uiso   1.00
C103   C     0.12257   0.57216   0.91417   0.00000  Uiso   1.00
C104   C     0.12288   0.57981   0.76785   0.00000  Uiso   1.00
C105   C     0.12569   0.55296   0.52867   0.00000  Uiso   1.00
C106   C     0.10682   0.83260   0.02653   0.00000  Uiso   1.00
C107   C     0.15963   0.82649   0.12272   0.00000  Uiso   1.00
C108   C     0.19975   0.90008   0.14468   0.00000  Uiso   1.00
C109   C     0.24501   0.88017   0.23673   0.00000  Uiso   1.00
C110   C     0.05473   0.80919   0.11942   0.00000  Uiso   1.00
C111   C     0.00666   0.86823   0.13858   0.00000  Uiso   1.00
C112   C     0.96361   0.83377   0.22783   0.00000  Uiso   1.00
C113   C     0.11229   0.74824   0.92272   0.00000  Uiso   1.00
C114   C     0.11258   0.75602   0.77649   0.00000  Uiso   1.00
C115   C     0.11797   0.67023   0.70014   0.00000  Uiso   1.00
H116   H     0.11968   0.59615   0.20359   0.00000  Uiso   1.00
H117   H     0.21353   0.64636   0.33466   0.00000  Uiso   1.00
H118   H     0.02046   0.61451   0.32854   0.00000  Uiso   1.00
H119   H     0.12637   0.50232   0.96651   0.00000  Uiso   1.00
H120   H     0.31540   0.74184   0.45019   0.00000  Uiso   1.00
H121   H     0.90831   0.67468   0.43726   0.00000  Uiso   1.00
H122   H     0.13163   0.43810   0.67385   0.00000  Uiso   1.00
H123   H     0.10300   0.90288   0.97390   0.00000  Uiso   1.00
H124   H     0.19594   0.96992   0.09236   0.00000  Uiso   1.00
H125   H     0.00287   0.93807   0.08625   0.00000  Uiso   1.00
H126   H     0.10878   0.82588   0.72422   0.00000  Uiso   1.00
H127   H     0.30113   0.00446   0.25354   0.00000  Uiso   1.00
H128   H     0.89403   0.93729   0.24060   0.00000  Uiso   1.00
H129   H     0.11736   0.70072   0.47720   0.00000  Uiso   1.00
O130   O     0.36969   0.91173   0.43397   0.00000  Uiso   1.00
O131   O     0.83559   0.82360   0.41698   0.00000  Uiso   1.00
O132   O     0.12860   0.51322   0.41542   0.00000  Uiso   1.00
N133   N     0.29930   0.79444   0.38763   0.00000  Uiso   1.00
N134   N     0.91869   0.73165   0.37556   0.00000  Uiso   1.00
N135   N     0.12746   0.51047   0.66184   0.00000  Uiso   1.00
N136   N     0.29161   0.93575   0.28181   0.00000  Uiso   1.00
N137   N     0.91100   0.87297   0.26974   0.00000  Uiso   1.00
N138   N     0.11978   0.65178   0.55602   0.00000  Uiso   1.00
C139   C     0.38414   0.33358   0.65097   0.00000  Uiso   1.00
C140   C     0.33546   0.26377   0.69032   0.00000  Uiso   1.00
C141   C     0.29025   0.28378   0.78236   0.00000  Uiso   1.00
C142   C     0.25008   0.21025   0.80445   0.00000  Uiso   1.00
C143   C     0.17375   0.11556   0.87588   0.00000  Uiso   1.00
C144   C     0.44036   0.28107   0.68701   0.00000  Uiso   1.00
C145   C     0.48335   0.31563   0.77626   0.00000  Uiso   1.00
C146   C     0.53147   0.25666   0.79555   0.00000  Uiso   1.00
C147   C     0.61803   0.18886   0.86176   0.00000  Uiso   1.00
C148   C     0.38281   0.34202   0.49032   0.00000  Uiso   1.00
C149   C     0.37743   0.42784   0.41417   0.00000  Uiso   1.00
C150   C     0.37712   0.42019   0.26785   0.00000  Uiso   1.00
C151   C     0.37431   0.44704   0.02867   0.00000  Uiso   1.00
C152   C     0.39318   0.16740   0.52653   0.00000  Uiso   1.00
C153   C     0.34037   0.17351   0.62272   0.00000  Uiso   1.00
C154   C     0.30025   0.09992   0.64468   0.00000  Uiso   1.00
C155   C     0.25499   0.11983   0.73673   0.00000  Uiso   1.00
C156   C     0.44527   0.19081   0.61942   0.00000  Uiso   1.00
C157   C     0.49334   0.13177   0.63858   0.00000  Uiso   1.00
C158   C     0.53639   0.16623   0.72783   0.00000  Uiso   1.00
C159   C     0.38771   0.25176   0.42272   0.00000  Uiso   1.00
C160   C     0.38742   0.24398   0.27649   0.00000  Uiso   1.00
C161   C     0.38203   0.32977   0.20014   0.00000  Uiso   1.00
H162   H     0.38032   0.40385   0.70359   0.00000  Uiso   1.00
H163   H     0.28647   0.35364   0.83466   0.00000  Uiso   1.00
H164   H     0.47954   0.38549   0.82854   0.00000  Uiso   1.00
H165   H     0.37363   0.49768   0.46651   0.00000  Uiso   1.00
H166   H     0.18460   0.25816   0.95019   0.00000  Uiso   1.00
H167   H     0.59169   0.32532   0.93726   0.00000  Uiso   1.00
H168   H     0.36837   0.56190   0.17385   0.00000  Uiso   1.00
H169   H     0.39700   0.09712   0.47390   0.00000  Uiso   1.00
H170   H     0.30406   0.03008   0.59236   0.00000  Uiso   1.00
H171   H     0.49713   0.06193   0.58625   0.00000  Uiso   1.00
H172   H     0.39122   0.17412   0.22422   0.00000  Uiso   1.00
H173   H     0.19887   0.99554   0.75354   0.00000  Uiso   1.00
H174   H     0.60597   0.06271   0.74060   0.00000  Uiso   1.00
H175   H     0.38264   0.29928   0.97720   0.00000  Uiso   1.00
O176   O     0.13031   0.08827   0.93397   0.00000  Uiso   1.00
O177   O     0.66441   0.17640   0.91698   0.00000  Uiso   1.00
O178   O     0.37140   0.48678   0.91542   0.00000  Uiso   1.00
N179   N     0.20070   0.20556   0.88763   0.00000  Uiso   1.00
N180   N     0.58131   0.26835   0.87556   0.00000  Uiso   1.00
N181   N     0.37254   0.48953   0.16184   0.00000  Uiso   1.00
N182   N     0.20839   0.06425   0.78181   0.00000  Uiso   1.00
N183   N     0.58900   0.12703   0.76974   0.00000  Uiso   1.00
N184   N     0.38022   0.34822   0.05602   0.00000  Uiso   1.00
