data_job_05846
_audit_creation_date              2018-12-19
_audit_creation_method            'Materials Studio'
_symmetry_space_group_name_H-M    'P1'
_symmetry_Int_Tables_number       1
_symmetry_cell_setting            triclinic
loop_
_symmetry_equiv_pos_as_xyz
  x,y,z
_cell_length_a                    11.8118
_cell_length_b                    20.0010
_cell_length_c                    31.7848
_cell_angle_alpha                 90.0000
_cell_angle_beta                  90.0000
_cell_angle_gamma                 90.0000
loop_
_atom_site_label
_atom_site_type_symbol
_atom_site_fract_x
_atom_site_fract_y
_atom_site_fract_z
_atom_site_U_iso_or_equiv
_atom_site_adp_type
_atom_site_occupancy
C1     C     0.06587   0.74056   0.16904   0.00000  Uiso   1.00
C2     C     0.94255   0.75316   0.15725   0.00000  Uiso   1.00
C3     C     0.87030   0.79811   0.17689   0.00000  Uiso   1.00
C4     C     0.76058   0.80227   0.16144   0.00000  Uiso   1.00
C5     C     0.57457   0.82781   0.14831   0.00000  Uiso   1.00
C6     C     0.07512   0.66585   0.17798   0.00000  Uiso   1.00
C7     C     0.11435   0.63740   0.21504   0.00000  Uiso   1.00
C8     C     0.11624   0.56806   0.21704   0.00000  Uiso   1.00
C9     C     0.13612   0.45805   0.23608   0.00000  Uiso   1.00
C10    C     0.13444   0.75295   0.12915   0.00000  Uiso   1.00
C11    C     0.22358   0.79771   0.12514   0.00000  Uiso   1.00
C12    C     0.27544   0.80169   0.08602   0.00000  Uiso   1.00
C13    C     0.38744   0.82690   0.02923   0.00000  Uiso   1.00
C14    C     0.99950   0.66802   0.10668   0.00000  Uiso   1.00
C15    C     0.90650   0.71376   0.12339   0.00000  Uiso   1.00
C16    C     0.79687   0.71785   0.10790   0.00000  Uiso   1.00
C17    C     0.72447   0.76280   0.12750   0.00000  Uiso   1.00
C18    C     0.03907   0.62645   0.14412   0.00000  Uiso   1.00
C19    C     0.04091   0.55714   0.14606   0.00000  Uiso   1.00
C20    C     0.08012   0.52859   0.18311   0.00000  Uiso   1.00
C21    C     0.09840   0.71355   0.09528   0.00000  Uiso   1.00
C22    C     0.15014   0.71745   0.05615   0.00000  Uiso   1.00
C23    C     0.23933   0.76221   0.05209   0.00000  Uiso   1.00
H24    H     0.09393   0.77123   0.19541   0.00000  Uiso   1.00
H25    H     0.89823   0.82859   0.20310   0.00000  Uiso   1.00
H26    H     0.14225   0.66790   0.24125   0.00000  Uiso   1.00
H27    H     0.25145   0.82819   0.15136   0.00000  Uiso   1.00
H28    H     0.66534   0.87479   0.19670   0.00000  Uiso   1.00
H29    H     0.17990   0.53597   0.27713   0.00000  Uiso   1.00
H30    H     0.41019   0.87397   0.08759   0.00000  Uiso   1.00
H31    H     0.97143   0.63734   0.08031   0.00000  Uiso   1.00
H32    H     0.76900   0.68736   0.08169   0.00000  Uiso   1.00
H33    H     0.01302   0.52667   0.11984   0.00000  Uiso   1.00
H34    H     0.12222   0.68696   0.02995   0.00000  Uiso   1.00
H35    H     0.56045   0.76016   0.09816   0.00000  Uiso   1.00
H36    H     0.07502   0.42134   0.17859   0.00000  Uiso   1.00
H37    H     0.30530   0.75933   0.98905   0.00000  Uiso   1.00
O38    O     0.48192   0.85277   0.15042   0.00000  Uiso   1.00
O39    O     0.15703   0.40826   0.25594   0.00000  Uiso   1.00
O40    O     0.45916   0.85170   0.00727   0.00000  Uiso   1.00
N41    N     0.66844   0.84095   0.17332   0.00000  Uiso   1.00
N42    N     0.14951   0.52418   0.24852   0.00000  Uiso   1.00
N43    N     0.36483   0.84017   0.07131   0.00000  Uiso   1.00
N44    N     0.61200   0.77927   0.12029   0.00000  Uiso   1.00
N45    N     0.09307   0.46250   0.19549   0.00000  Uiso   1.00
N46    N     0.30839   0.77848   0.01829   0.00000  Uiso   1.00
C47    C     0.43413   0.75944   0.66904   0.00000  Uiso   1.00
C48    C     0.55745   0.74684   0.65725   0.00000  Uiso   1.00
C49    C     0.62970   0.70189   0.67689   0.00000  Uiso   1.00
C50    C     0.73942   0.69773   0.66144   0.00000  Uiso   1.00
C51    C     0.92543   0.67219   0.64831   0.00000  Uiso   1.00
C52    C     0.42488   0.83415   0.67798   0.00000  Uiso   1.00
C53    C     0.38565   0.86260   0.71504   0.00000  Uiso   1.00
C54    C     0.38376   0.93194   0.71704   0.00000  Uiso   1.00
C55    C     0.36388   0.04195   0.73608   0.00000  Uiso   1.00
C56    C     0.36556   0.74705   0.62915   0.00000  Uiso   1.00
C57    C     0.27642   0.70229   0.62514   0.00000  Uiso   1.00
C58    C     0.22456   0.69831   0.58602   0.00000  Uiso   1.00
C59    C     0.11256   0.67310   0.52923   0.00000  Uiso   1.00
C60    C     0.50050   0.83198   0.60668   0.00000  Uiso   1.00
C61    C     0.59350   0.78624   0.62339   0.00000  Uiso   1.00
C62    C     0.70313   0.78215   0.60790   0.00000  Uiso   1.00
C63    C     0.77553   0.73720   0.62750   0.00000  Uiso   1.00
C64    C     0.46093   0.87355   0.64412   0.00000  Uiso   1.00
C65    C     0.45909   0.94286   0.64606   0.00000  Uiso   1.00
C66    C     0.41988   0.97141   0.68311   0.00000  Uiso   1.00
C67    C     0.40160   0.78645   0.59528   0.00000  Uiso   1.00
C68    C     0.34986   0.78255   0.55615   0.00000  Uiso   1.00
C69    C     0.26067   0.73779   0.55209   0.00000  Uiso   1.00
H70    H     0.40607   0.72877   0.69541   0.00000  Uiso   1.00
H71    H     0.60177   0.67141   0.70310   0.00000  Uiso   1.00
H72    H     0.35775   0.83210   0.74125   0.00000  Uiso   1.00
H73    H     0.24855   0.67181   0.65136   0.00000  Uiso   1.00
H74    H     0.83466   0.62521   0.69670   0.00000  Uiso   1.00
H75    H     0.32010   0.96403   0.77713   0.00000  Uiso   1.00
H76    H     0.08981   0.62603   0.58759   0.00000  Uiso   1.00
H77    H     0.52857   0.86266   0.58031   0.00000  Uiso   1.00
H78    H     0.73100   0.81264   0.58169   0.00000  Uiso   1.00
H79    H     0.48698   0.97333   0.61984   0.00000  Uiso   1.00
H80    H     0.37778   0.81304   0.52995   0.00000  Uiso   1.00
H81    H     0.93955   0.73984   0.59816   0.00000  Uiso   1.00
H82    H     0.42498   0.07866   0.67859   0.00000  Uiso   1.00
H83    H     0.19470   0.74067   0.48905   0.00000  Uiso   1.00
O84    O     0.01808   0.64723   0.65042   0.00000  Uiso   1.00
O85    O     0.34297   0.09174   0.75594   0.00000  Uiso   1.00
O86    O     0.04084   0.64830   0.50727   0.00000  Uiso   1.00
N87    N     0.83156   0.65905   0.67332   0.00000  Uiso   1.00
N88    N     0.35049   0.97582   0.74852   0.00000  Uiso   1.00
N89    N     0.13517   0.65983   0.57131   0.00000  Uiso   1.00
N90    N     0.88800   0.72073   0.62029   0.00000  Uiso   1.00
N91    N     0.40693   0.03750   0.69549   0.00000  Uiso   1.00
N92    N     0.19161   0.72152   0.51829   0.00000  Uiso   1.00
C93    C     0.93413   0.74056   0.33096   0.00000  Uiso   1.00
C94    C     0.05745   0.75316   0.34275   0.00000  Uiso   1.00
C95    C     0.12970   0.79811   0.32311   0.00000  Uiso   1.00
C96    C     0.23942   0.80227   0.33856   0.00000  Uiso   1.00
C97    C     0.42543   0.82781   0.35169   0.00000  Uiso   1.00
C98    C     0.92488   0.66585   0.32202   0.00000  Uiso   1.00
C99    C     0.88565   0.63740   0.28496   0.00000  Uiso   1.00
C100   C     0.88376   0.56806   0.28296   0.00000  Uiso   1.00
C101   C     0.86388   0.45805   0.26392   0.00000  Uiso   1.00
C102   C     0.86556   0.75295   0.37085   0.00000  Uiso   1.00
C103   C     0.77642   0.79771   0.37486   0.00000  Uiso   1.00
C104   C     0.72456   0.80169   0.41398   0.00000  Uiso   1.00
C105   C     0.61256   0.82690   0.47077   0.00000  Uiso   1.00
C106   C     0.00050   0.66802   0.39332   0.00000  Uiso   1.00
C107   C     0.09350   0.71376   0.37661   0.00000  Uiso   1.00
C108   C     0.20313   0.71785   0.39210   0.00000  Uiso   1.00
C109   C     0.27553   0.76280   0.37250   0.00000  Uiso   1.00
C110   C     0.96093   0.62645   0.35588   0.00000  Uiso   1.00
C111   C     0.95909   0.55714   0.35394   0.00000  Uiso   1.00
C112   C     0.91988   0.52859   0.31689   0.00000  Uiso   1.00
C113   C     0.90160   0.71355   0.40472   0.00000  Uiso   1.00
C114   C     0.84986   0.71745   0.44385   0.00000  Uiso   1.00
C115   C     0.76067   0.76221   0.44791   0.00000  Uiso   1.00
H116   H     0.90607   0.77123   0.30459   0.00000  Uiso   1.00
H117   H     0.10177   0.82859   0.29690   0.00000  Uiso   1.00
H118   H     0.85775   0.66790   0.25875   0.00000  Uiso   1.00
H119   H     0.74855   0.82819   0.34864   0.00000  Uiso   1.00
H120   H     0.33466   0.87479   0.30330   0.00000  Uiso   1.00
H121   H     0.82010   0.53597   0.22287   0.00000  Uiso   1.00
H122   H     0.58981   0.87397   0.41241   0.00000  Uiso   1.00
H123   H     0.02857   0.63734   0.41969   0.00000  Uiso   1.00
H124   H     0.23100   0.68736   0.41831   0.00000  Uiso   1.00
H125   H     0.98698   0.52667   0.38016   0.00000  Uiso   1.00
H126   H     0.87778   0.68696   0.47005   0.00000  Uiso   1.00
H127   H     0.43955   0.76016   0.40184   0.00000  Uiso   1.00
H128   H     0.92498   0.42134   0.32141   0.00000  Uiso   1.00
H129   H     0.69470   0.75933   0.51095   0.00000  Uiso   1.00
O130   O     0.51808   0.85277   0.34958   0.00000  Uiso   1.00
O131   O     0.84297   0.40826   0.24406   0.00000  Uiso   1.00
O132   O     0.54084   0.85170   0.49273   0.00000  Uiso   1.00
N133   N     0.33156   0.84095   0.32668   0.00000  Uiso   1.00
N134   N     0.85049   0.52418   0.25148   0.00000  Uiso   1.00
N135   N     0.63517   0.84017   0.42869   0.00000  Uiso   1.00
N136   N     0.38800   0.77927   0.37971   0.00000  Uiso   1.00
N137   N     0.90693   0.46250   0.30451   0.00000  Uiso   1.00
N138   N     0.69161   0.77848   0.48171   0.00000  Uiso   1.00
C139   C     0.56587   0.75944   0.83096   0.00000  Uiso   1.00
C140   C     0.44255   0.74684   0.84275   0.00000  Uiso   1.00
C141   C     0.37030   0.70189   0.82311   0.00000  Uiso   1.00
C142   C     0.26058   0.69773   0.83856   0.00000  Uiso   1.00
C143   C     0.07457   0.67219   0.85169   0.00000  Uiso   1.00
C144   C     0.57512   0.83415   0.82202   0.00000  Uiso   1.00
C145   C     0.61435   0.86260   0.78496   0.00000  Uiso   1.00
C146   C     0.61624   0.93194   0.78296   0.00000  Uiso   1.00
C147   C     0.63612   0.04195   0.76392   0.00000  Uiso   1.00
C148   C     0.63444   0.74705   0.87085   0.00000  Uiso   1.00
C149   C     0.72358   0.70229   0.87486   0.00000  Uiso   1.00
C150   C     0.77544   0.69831   0.91398   0.00000  Uiso   1.00
C151   C     0.88744   0.67310   0.97077   0.00000  Uiso   1.00
C152   C     0.49950   0.83198   0.89332   0.00000  Uiso   1.00
C153   C     0.40650   0.78624   0.87661   0.00000  Uiso   1.00
C154   C     0.29687   0.78215   0.89210   0.00000  Uiso   1.00
C155   C     0.22447   0.73720   0.87250   0.00000  Uiso   1.00
C156   C     0.53907   0.87355   0.85588   0.00000  Uiso   1.00
C157   C     0.54091   0.94286   0.85394   0.00000  Uiso   1.00
C158   C     0.58012   0.97141   0.81689   0.00000  Uiso   1.00
C159   C     0.59840   0.78645   0.90472   0.00000  Uiso   1.00
C160   C     0.65014   0.78255   0.94385   0.00000  Uiso   1.00
C161   C     0.73933   0.73779   0.94791   0.00000  Uiso   1.00
H162   H     0.59393   0.72877   0.80459   0.00000  Uiso   1.00
H163   H     0.39823   0.67141   0.79690   0.00000  Uiso   1.00
H164   H     0.64225   0.83210   0.75875   0.00000  Uiso   1.00
H165   H     0.75145   0.67181   0.84864   0.00000  Uiso   1.00
H166   H     0.16534   0.62521   0.80330   0.00000  Uiso   1.00
H167   H     0.67990   0.96403   0.72287   0.00000  Uiso   1.00
H168   H     0.91019   0.62603   0.91241   0.00000  Uiso   1.00
H169   H     0.47143   0.86266   0.91969   0.00000  Uiso   1.00
H170   H     0.26900   0.81264   0.91831   0.00000  Uiso   1.00
H171   H     0.51302   0.97333   0.88016   0.00000  Uiso   1.00
H172   H     0.62222   0.81304   0.97005   0.00000  Uiso   1.00
H173   H     0.06045   0.73984   0.90184   0.00000  Uiso   1.00
H174   H     0.57502   0.07866   0.82141   0.00000  Uiso   1.00
H175   H     0.80530   0.74067   0.01095   0.00000  Uiso   1.00
O176   O     0.98192   0.64723   0.84958   0.00000  Uiso   1.00
O177   O     0.65703   0.09174   0.74406   0.00000  Uiso   1.00
O178   O     0.95916   0.64830   0.99273   0.00000  Uiso   1.00
N179   N     0.16844   0.65905   0.82668   0.00000  Uiso   1.00
N180   N     0.64951   0.97582   0.75148   0.00000  Uiso   1.00
N181   N     0.86483   0.65983   0.92869   0.00000  Uiso   1.00
N182   N     0.11200   0.72073   0.87971   0.00000  Uiso   1.00
N183   N     0.59307   0.03750   0.80451   0.00000  Uiso   1.00
N184   N     0.80839   0.72152   0.98171   0.00000  Uiso   1.00
C185   C     0.93413   0.25944   0.83096   0.00000  Uiso   1.00
C186   C     0.05745   0.24684   0.84275   0.00000  Uiso   1.00
C187   C     0.12970   0.20189   0.82311   0.00000  Uiso   1.00
C188   C     0.23942   0.19773   0.83856   0.00000  Uiso   1.00
C189   C     0.42543   0.17219   0.85169   0.00000  Uiso   1.00
C190   C     0.92488   0.33415   0.82202   0.00000  Uiso   1.00
C191   C     0.88565   0.36260   0.78496   0.00000  Uiso   1.00
C192   C     0.88376   0.43194   0.78296   0.00000  Uiso   1.00
C193   C     0.86388   0.54195   0.76392   0.00000  Uiso   1.00
C194   C     0.86556   0.24705   0.87085   0.00000  Uiso   1.00
C195   C     0.77642   0.20229   0.87486   0.00000  Uiso   1.00
C196   C     0.72456   0.19831   0.91398   0.00000  Uiso   1.00
C197   C     0.61256   0.17310   0.97077   0.00000  Uiso   1.00
C198   C     0.00050   0.33198   0.89332   0.00000  Uiso   1.00
C199   C     0.09350   0.28624   0.87661   0.00000  Uiso   1.00
C200   C     0.20313   0.28215   0.89210   0.00000  Uiso   1.00
C201   C     0.27553   0.23720   0.87250   0.00000  Uiso   1.00
C202   C     0.96093   0.37355   0.85588   0.00000  Uiso   1.00
C203   C     0.95909   0.44286   0.85394   0.00000  Uiso   1.00
C204   C     0.91988   0.47141   0.81689   0.00000  Uiso   1.00
C205   C     0.90160   0.28645   0.90472   0.00000  Uiso   1.00
C206   C     0.84986   0.28255   0.94385   0.00000  Uiso   1.00
C207   C     0.76067   0.23779   0.94791   0.00000  Uiso   1.00
H208   H     0.90607   0.22877   0.80459   0.00000  Uiso   1.00
H209   H     0.10177   0.17141   0.79690   0.00000  Uiso   1.00
H210   H     0.85775   0.33210   0.75875   0.00000  Uiso   1.00
H211   H     0.74855   0.17181   0.84864   0.00000  Uiso   1.00
H212   H     0.33466   0.12521   0.80330   0.00000  Uiso   1.00
H213   H     0.82010   0.46403   0.72287   0.00000  Uiso   1.00
H214   H     0.58981   0.12603   0.91241   0.00000  Uiso   1.00
H215   H     0.02857   0.36266   0.91969   0.00000  Uiso   1.00
H216   H     0.23100   0.31264   0.91831   0.00000  Uiso   1.00
H217   H     0.98698   0.47333   0.88016   0.00000  Uiso   1.00
H218   H     0.87778   0.31304   0.97005   0.00000  Uiso   1.00
H219   H     0.43955   0.23984   0.90184   0.00000  Uiso   1.00
H220   H     0.92498   0.57866   0.82141   0.00000  Uiso   1.00
H221   H     0.69470   0.24067   0.01095   0.00000  Uiso   1.00
O222   O     0.51808   0.14723   0.84958   0.00000  Uiso   1.00
O223   O     0.84297   0.59174   0.74406   0.00000  Uiso   1.00
O224   O     0.54084   0.14830   0.99273   0.00000  Uiso   1.00
N225   N     0.33156   0.15905   0.82668   0.00000  Uiso   1.00
N226   N     0.85049   0.47582   0.75148   0.00000  Uiso   1.00
N227   N     0.63517   0.15983   0.92869   0.00000  Uiso   1.00
N228   N     0.38800   0.22073   0.87971   0.00000  Uiso   1.00
N229   N     0.90693   0.53750   0.80451   0.00000  Uiso   1.00
N230   N     0.69161   0.22152   0.98171   0.00000  Uiso   1.00
C231   C     0.56587   0.24056   0.33096   0.00000  Uiso   1.00
C232   C     0.44255   0.25316   0.34275   0.00000  Uiso   1.00
C233   C     0.37030   0.29811   0.32311   0.00000  Uiso   1.00
C234   C     0.26058   0.30227   0.33856   0.00000  Uiso   1.00
C235   C     0.07457   0.32781   0.35169   0.00000  Uiso   1.00
C236   C     0.57512   0.16585   0.32202   0.00000  Uiso   1.00
C237   C     0.61435   0.13740   0.28496   0.00000  Uiso   1.00
C238   C     0.61624   0.06806   0.28296   0.00000  Uiso   1.00
C239   C     0.63612   0.95805   0.26392   0.00000  Uiso   1.00
C240   C     0.63444   0.25295   0.37085   0.00000  Uiso   1.00
C241   C     0.72358   0.29771   0.37486   0.00000  Uiso   1.00
C242   C     0.77544   0.30169   0.41398   0.00000  Uiso   1.00
C243   C     0.88744   0.32690   0.47077   0.00000  Uiso   1.00
C244   C     0.49950   0.16802   0.39332   0.00000  Uiso   1.00
C245   C     0.40650   0.21376   0.37661   0.00000  Uiso   1.00
C246   C     0.29687   0.21785   0.39210   0.00000  Uiso   1.00
C247   C     0.22447   0.26280   0.37250   0.00000  Uiso   1.00
C248   C     0.53907   0.12645   0.35588   0.00000  Uiso   1.00
C249   C     0.54091   0.05714   0.35394   0.00000  Uiso   1.00
C250   C     0.58012   0.02859   0.31689   0.00000  Uiso   1.00
C251   C     0.59840   0.21355   0.40472   0.00000  Uiso   1.00
C252   C     0.65014   0.21745   0.44385   0.00000  Uiso   1.00
C253   C     0.73933   0.26221   0.44791   0.00000  Uiso   1.00
H254   H     0.59393   0.27123   0.30459   0.00000  Uiso   1.00
H255   H     0.39823   0.32859   0.29690   0.00000  Uiso   1.00
H256   H     0.64225   0.16790   0.25875   0.00000  Uiso   1.00
H257   H     0.75145   0.32819   0.34864   0.00000  Uiso   1.00
H258   H     0.16534   0.37479   0.30330   0.00000  Uiso   1.00
H259   H     0.67990   0.03597   0.22287   0.00000  Uiso   1.00
H260   H     0.91019   0.37397   0.41241   0.00000  Uiso   1.00
H261   H     0.47143   0.13734   0.41969   0.00000  Uiso   1.00
H262   H     0.26900   0.18736   0.41831   0.00000  Uiso   1.00
H263   H     0.51302   0.02667   0.38016   0.00000  Uiso   1.00
H264   H     0.62222   0.18696   0.47005   0.00000  Uiso   1.00
H265   H     0.06045   0.26016   0.40184   0.00000  Uiso   1.00
H266   H     0.57502   0.92134   0.32141   0.00000  Uiso   1.00
H267   H     0.80530   0.25933   0.51095   0.00000  Uiso   1.00
O268   O     0.98192   0.35277   0.34958   0.00000  Uiso   1.00
O269   O     0.65703   0.90826   0.24406   0.00000  Uiso   1.00
O270   O     0.95916   0.35170   0.49273   0.00000  Uiso   1.00
N271   N     0.16844   0.34095   0.32668   0.00000  Uiso   1.00
N272   N     0.64951   0.02418   0.25148   0.00000  Uiso   1.00
N273   N     0.86483   0.34017   0.42869   0.00000  Uiso   1.00
N274   N     0.11200   0.27927   0.37971   0.00000  Uiso   1.00
N275   N     0.59307   0.96250   0.30451   0.00000  Uiso   1.00
N276   N     0.80839   0.27848   0.48171   0.00000  Uiso   1.00
C277   C     0.06587   0.25944   0.66904   0.00000  Uiso   1.00
C278   C     0.94255   0.24684   0.65725   0.00000  Uiso   1.00
C279   C     0.87030   0.20189   0.67689   0.00000  Uiso   1.00
C280   C     0.76058   0.19773   0.66144   0.00000  Uiso   1.00
C281   C     0.57457   0.17219   0.64831   0.00000  Uiso   1.00
C282   C     0.07512   0.33415   0.67798   0.00000  Uiso   1.00
C283   C     0.11435   0.36260   0.71504   0.00000  Uiso   1.00
C284   C     0.11624   0.43194   0.71704   0.00000  Uiso   1.00
C285   C     0.13612   0.54195   0.73608   0.00000  Uiso   1.00
C286   C     0.13444   0.24705   0.62915   0.00000  Uiso   1.00
C287   C     0.22358   0.20229   0.62514   0.00000  Uiso   1.00
C288   C     0.27544   0.19831   0.58602   0.00000  Uiso   1.00
C289   C     0.38744   0.17310   0.52923   0.00000  Uiso   1.00
C290   C     0.99950   0.33198   0.60668   0.00000  Uiso   1.00
C291   C     0.90650   0.28624   0.62339   0.00000  Uiso   1.00
C292   C     0.79687   0.28215   0.60790   0.00000  Uiso   1.00
C293   C     0.72447   0.23720   0.62750   0.00000  Uiso   1.00
C294   C     0.03907   0.37355   0.64412   0.00000  Uiso   1.00
C295   C     0.04091   0.44286   0.64606   0.00000  Uiso   1.00
C296   C     0.08012   0.47141   0.68311   0.00000  Uiso   1.00
C297   C     0.09840   0.28645   0.59528   0.00000  Uiso   1.00
C298   C     0.15014   0.28255   0.55615   0.00000  Uiso   1.00
C299   C     0.23933   0.23779   0.55209   0.00000  Uiso   1.00
H300   H     0.09393   0.22877   0.69541   0.00000  Uiso   1.00
H301   H     0.89823   0.17141   0.70310   0.00000  Uiso   1.00
H302   H     0.14225   0.33210   0.74125   0.00000  Uiso   1.00
H303   H     0.25145   0.17181   0.65136   0.00000  Uiso   1.00
H304   H     0.66534   0.12521   0.69670   0.00000  Uiso   1.00
H305   H     0.17990   0.46403   0.77713   0.00000  Uiso   1.00
H306   H     0.41019   0.12603   0.58759   0.00000  Uiso   1.00
H307   H     0.97143   0.36266   0.58031   0.00000  Uiso   1.00
H308   H     0.76900   0.31264   0.58169   0.00000  Uiso   1.00
H309   H     0.01302   0.47333   0.61984   0.00000  Uiso   1.00
H310   H     0.12222   0.31304   0.52995   0.00000  Uiso   1.00
H311   H     0.56045   0.23984   0.59816   0.00000  Uiso   1.00
H312   H     0.07502   0.57866   0.67859   0.00000  Uiso   1.00
H313   H     0.30530   0.24067   0.48905   0.00000  Uiso   1.00
O314   O     0.48192   0.14723   0.65042   0.00000  Uiso   1.00
O315   O     0.15703   0.59174   0.75594   0.00000  Uiso   1.00
O316   O     0.45916   0.14830   0.50727   0.00000  Uiso   1.00
N317   N     0.66844   0.15905   0.67332   0.00000  Uiso   1.00
N318   N     0.14951   0.47582   0.74852   0.00000  Uiso   1.00
N319   N     0.36483   0.15983   0.57131   0.00000  Uiso   1.00
N320   N     0.61200   0.22073   0.62029   0.00000  Uiso   1.00
N321   N     0.09307   0.53750   0.69549   0.00000  Uiso   1.00
N322   N     0.30839   0.22152   0.51829   0.00000  Uiso   1.00
C323   C     0.43413   0.24056   0.16904   0.00000  Uiso   1.00
C324   C     0.55745   0.25316   0.15725   0.00000  Uiso   1.00
C325   C     0.62970   0.29811   0.17689   0.00000  Uiso   1.00
C326   C     0.73942   0.30227   0.16144   0.00000  Uiso   1.00
C327   C     0.92543   0.32781   0.14831   0.00000  Uiso   1.00
C328   C     0.42488   0.16585   0.17798   0.00000  Uiso   1.00
C329   C     0.38565   0.13740   0.21504   0.00000  Uiso   1.00
C330   C     0.38376   0.06806   0.21704   0.00000  Uiso   1.00
C331   C     0.36388   0.95805   0.23608   0.00000  Uiso   1.00
C332   C     0.36556   0.25295   0.12915   0.00000  Uiso   1.00
C333   C     0.27642   0.29771   0.12514   0.00000  Uiso   1.00
C334   C     0.22456   0.30169   0.08602   0.00000  Uiso   1.00
C335   C     0.11256   0.32690   0.02923   0.00000  Uiso   1.00
C336   C     0.50050   0.16802   0.10668   0.00000  Uiso   1.00
C337   C     0.59350   0.21376   0.12339   0.00000  Uiso   1.00
C338   C     0.70313   0.21785   0.10790   0.00000  Uiso   1.00
C339   C     0.77553   0.26280   0.12750   0.00000  Uiso   1.00
C340   C     0.46093   0.12645   0.14412   0.00000  Uiso   1.00
C341   C     0.45909   0.05714   0.14606   0.00000  Uiso   1.00
C342   C     0.41988   0.02859   0.18311   0.00000  Uiso   1.00
C343   C     0.40160   0.21355   0.09528   0.00000  Uiso   1.00
C344   C     0.34986   0.21745   0.05615   0.00000  Uiso   1.00
C345   C     0.26067   0.26221   0.05209   0.00000  Uiso   1.00
H346   H     0.40607   0.27123   0.19541   0.00000  Uiso   1.00
H347   H     0.60177   0.32859   0.20310   0.00000  Uiso   1.00
H348   H     0.35775   0.16790   0.24125   0.00000  Uiso   1.00
H349   H     0.24855   0.32819   0.15136   0.00000  Uiso   1.00
H350   H     0.83466   0.37479   0.19670   0.00000  Uiso   1.00
H351   H     0.32010   0.03597   0.27713   0.00000  Uiso   1.00
H352   H     0.08981   0.37397   0.08759   0.00000  Uiso   1.00
H353   H     0.52857   0.13734   0.08031   0.00000  Uiso   1.00
H354   H     0.73100   0.18736   0.08169   0.00000  Uiso   1.00
H355   H     0.48698   0.02667   0.11984   0.00000  Uiso   1.00
H356   H     0.37778   0.18696   0.02995   0.00000  Uiso   1.00
H357   H     0.93955   0.26016   0.09816   0.00000  Uiso   1.00
H358   H     0.42498   0.92134   0.17859   0.00000  Uiso   1.00
H359   H     0.19470   0.25933   0.98905   0.00000  Uiso   1.00
O360   O     0.01808   0.35277   0.15042   0.00000  Uiso   1.00
O361   O     0.34297   0.90826   0.25594   0.00000  Uiso   1.00
O362   O     0.04084   0.35170   0.00727   0.00000  Uiso   1.00
N363   N     0.83156   0.34095   0.17332   0.00000  Uiso   1.00
N364   N     0.35049   0.02418   0.24852   0.00000  Uiso   1.00
N365   N     0.13517   0.34017   0.07131   0.00000  Uiso   1.00
N366   N     0.88800   0.27927   0.12029   0.00000  Uiso   1.00
N367   N     0.40693   0.96250   0.19549   0.00000  Uiso   1.00
N368   N     0.19161   0.27848   0.01829   0.00000  Uiso   1.00
