data_job_00595
_audit_creation_date              2018-12-19
_audit_creation_method            'Materials Studio'
_symmetry_space_group_name_H-M    'P1'
_symmetry_Int_Tables_number       1
_symmetry_cell_setting            triclinic
loop_
_symmetry_equiv_pos_as_xyz
  x,y,z
_cell_length_a                    16.3946
_cell_length_b                    17.4849
_cell_length_c                    15.5722
_cell_angle_alpha                 90.0000
_cell_angle_beta                  90.0000
_cell_angle_gamma                 90.0000
loop_
_atom_site_label
_atom_site_type_symbol
_atom_site_fract_x
_atom_site_fract_y
_atom_site_fract_z
_atom_site_U_iso_or_equiv
_atom_site_adp_type
_atom_site_occupancy
C1     C     0.77851   0.27649   0.49223   0.00000  Uiso   1.00
C2     C     0.83560   0.29800   0.56567   0.00000  Uiso   1.00
C3     C     0.92016   0.29500   0.56332   0.00000  Uiso   1.00
C4     C     0.96137   0.31705   0.63717   0.00000  Uiso   1.00
C5     C     0.05639   0.34673   0.74004   0.00000  Uiso   1.00
C6     C     0.72154   0.21528   0.52785   0.00000  Uiso   1.00
C7     C     0.71018   0.14275   0.49370   0.00000  Uiso   1.00
C8     C     0.65536   0.09517   0.53571   0.00000  Uiso   1.00
C9     C     0.57325   0.99647   0.57983   0.00000  Uiso   1.00
C10    C     0.72550   0.34666   0.47591   0.00000  Uiso   1.00
C11    C     0.71747   0.38457   0.39807   0.00000  Uiso   1.00
C12    C     0.66597   0.44760   0.39634   0.00000  Uiso   1.00
C13    C     0.59002   0.55287   0.35981   0.00000  Uiso   1.00
C14    C     0.70133   0.32098   0.62756   0.00000  Uiso   1.00
C15    C     0.79368   0.32216   0.63918   0.00000  Uiso   1.00
C16    C     0.83477   0.34422   0.71305   0.00000  Uiso   1.00
C17    C     0.91937   0.34126   0.71081   0.00000  Uiso   1.00
C18    C     0.67961   0.23945   0.60136   0.00000  Uiso   1.00
C19    C     0.62479   0.19197   0.64343   0.00000  Uiso   1.00
C20    C     0.61336   0.11938   0.60935   0.00000  Uiso   1.00
C21    C     0.68358   0.37083   0.54942   0.00000  Uiso   1.00
C22    C     0.63208   0.43380   0.54780   0.00000  Uiso   1.00
C23    C     0.62397   0.47181   0.46998   0.00000  Uiso   1.00
H24    H     0.81115   0.25767   0.43500   0.00000  Uiso   1.00
H25    H     0.95258   0.27629   0.50642   0.00000  Uiso   1.00
H26    H     0.74263   0.12407   0.43681   0.00000  Uiso   1.00
H27    H     0.74992   0.36586   0.34120   0.00000  Uiso   1.00
H28    H     0.09089   0.30756   0.61804   0.00000  Uiso   1.00
H29    H     0.64819   0.98660   0.47123   0.00000  Uiso   1.00
H30    H     0.66355   0.49646   0.26962   0.00000  Uiso   1.00
H31    H     0.66869   0.33979   0.68479   0.00000  Uiso   1.00
H32    H     0.80231   0.36292   0.76993   0.00000  Uiso   1.00
H33    H     0.59236   0.21069   0.70031   0.00000  Uiso   1.00
H34    H     0.59965   0.45248   0.60470   0.00000  Uiso   1.00
H35    H     0.96893   0.37787   0.83191   0.00000  Uiso   1.00
H36    H     0.52622   0.05691   0.68510   0.00000  Uiso   1.00
H37    H     0.54159   0.56677   0.48349   0.00000  Uiso   1.00
O38    O     0.12038   0.35642   0.77648   0.00000  Uiso   1.00
O39    O     0.53955   0.93534   0.58386   0.00000  Uiso   1.00
O40    O     0.55972   0.60427   0.31935   0.00000  Uiso   1.00
N41    N     0.04385   0.32095   0.65668   0.00000  Uiso   1.00
N42    N     0.62996   0.02086   0.51944   0.00000  Uiso   1.00
N43    N     0.64431   0.49753   0.33094   0.00000  Uiso   1.00
N44    N     0.97822   0.35878   0.77177   0.00000  Uiso   1.00
N45    N     0.56433   0.05870   0.63452   0.00000  Uiso   1.00
N46    N     0.57868   0.53537   0.44602   0.00000  Uiso   1.00
C47    C     0.72149   0.72351   0.49223   0.00000  Uiso   1.00
C48    C     0.66440   0.70200   0.56567   0.00000  Uiso   1.00
C49    C     0.57984   0.70500   0.56332   0.00000  Uiso   1.00
C50    C     0.53863   0.68295   0.63717   0.00000  Uiso   1.00
C51    C     0.44361   0.65327   0.74004   0.00000  Uiso   1.00
C52    C     0.77846   0.78472   0.52785   0.00000  Uiso   1.00
C53    C     0.78982   0.85725   0.49370   0.00000  Uiso   1.00
C54    C     0.84464   0.90483   0.53571   0.00000  Uiso   1.00
C55    C     0.92675   0.00353   0.57983   0.00000  Uiso   1.00
C56    C     0.77450   0.65334   0.47591   0.00000  Uiso   1.00
C57    C     0.78253   0.61543   0.39807   0.00000  Uiso   1.00
C58    C     0.83403   0.55240   0.39634   0.00000  Uiso   1.00
C59    C     0.90998   0.44713   0.35981   0.00000  Uiso   1.00
C60    C     0.79867   0.67902   0.62756   0.00000  Uiso   1.00
C61    C     0.70632   0.67784   0.63918   0.00000  Uiso   1.00
C62    C     0.66523   0.65578   0.71305   0.00000  Uiso   1.00
C63    C     0.58063   0.65874   0.71081   0.00000  Uiso   1.00
C64    C     0.82039   0.76055   0.60136   0.00000  Uiso   1.00
C65    C     0.87521   0.80803   0.64343   0.00000  Uiso   1.00
C66    C     0.88664   0.88062   0.60935   0.00000  Uiso   1.00
C67    C     0.81642   0.62917   0.54942   0.00000  Uiso   1.00
C68    C     0.86792   0.56620   0.54780   0.00000  Uiso   1.00
C69    C     0.87603   0.52819   0.46998   0.00000  Uiso   1.00
H70    H     0.68885   0.74233   0.43500   0.00000  Uiso   1.00
H71    H     0.54742   0.72371   0.50642   0.00000  Uiso   1.00
H72    H     0.75737   0.87593   0.43681   0.00000  Uiso   1.00
H73    H     0.75008   0.63414   0.34120   0.00000  Uiso   1.00
H74    H     0.40911   0.69244   0.61804   0.00000  Uiso   1.00
H75    H     0.85181   0.01340   0.47123   0.00000  Uiso   1.00
H76    H     0.83645   0.50354   0.26962   0.00000  Uiso   1.00
H77    H     0.83131   0.66021   0.68479   0.00000  Uiso   1.00
H78    H     0.69769   0.63708   0.76993   0.00000  Uiso   1.00
H79    H     0.90764   0.78931   0.70031   0.00000  Uiso   1.00
H80    H     0.90035   0.54752   0.60470   0.00000  Uiso   1.00
H81    H     0.53107   0.62213   0.83191   0.00000  Uiso   1.00
H82    H     0.97378   0.94309   0.68510   0.00000  Uiso   1.00
H83    H     0.95841   0.43323   0.48349   0.00000  Uiso   1.00
O84    O     0.37962   0.64358   0.77648   0.00000  Uiso   1.00
O85    O     0.96045   0.06466   0.58386   0.00000  Uiso   1.00
O86    O     0.94028   0.39573   0.31935   0.00000  Uiso   1.00
N87    N     0.45615   0.67905   0.65668   0.00000  Uiso   1.00
N88    N     0.87004   0.97914   0.51944   0.00000  Uiso   1.00
N89    N     0.85569   0.50247   0.33094   0.00000  Uiso   1.00
N90    N     0.52178   0.64122   0.77177   0.00000  Uiso   1.00
N91    N     0.93567   0.94130   0.63452   0.00000  Uiso   1.00
N92    N     0.92132   0.46463   0.44602   0.00000  Uiso   1.00
C93    C     0.72149   0.77649   0.00777   0.00000  Uiso   1.00
C94    C     0.66440   0.79800   0.93433   0.00000  Uiso   1.00
C95    C     0.57984   0.79500   0.93668   0.00000  Uiso   1.00
C96    C     0.53863   0.81705   0.86283   0.00000  Uiso   1.00
C97    C     0.44361   0.84673   0.75996   0.00000  Uiso   1.00
C98    C     0.77846   0.71528   0.97215   0.00000  Uiso   1.00
C99    C     0.78982   0.64275   0.00630   0.00000  Uiso   1.00
C100   C     0.84464   0.59517   0.96429   0.00000  Uiso   1.00
C101   C     0.92675   0.49647   0.92017   0.00000  Uiso   1.00
C102   C     0.77450   0.84666   0.02409   0.00000  Uiso   1.00
C103   C     0.78253   0.88457   0.10193   0.00000  Uiso   1.00
C104   C     0.83403   0.94760   0.10366   0.00000  Uiso   1.00
C105   C     0.90998   0.05287   0.14019   0.00000  Uiso   1.00
C106   C     0.79867   0.82098   0.87244   0.00000  Uiso   1.00
C107   C     0.70632   0.82216   0.86082   0.00000  Uiso   1.00
C108   C     0.66523   0.84422   0.78695   0.00000  Uiso   1.00
C109   C     0.58063   0.84126   0.78919   0.00000  Uiso   1.00
C110   C     0.82039   0.73945   0.89864   0.00000  Uiso   1.00
C111   C     0.87521   0.69197   0.85657   0.00000  Uiso   1.00
C112   C     0.88664   0.61938   0.89065   0.00000  Uiso   1.00
C113   C     0.81642   0.87083   0.95058   0.00000  Uiso   1.00
C114   C     0.86792   0.93380   0.95220   0.00000  Uiso   1.00
C115   C     0.87603   0.97181   0.03002   0.00000  Uiso   1.00
H116   H     0.68885   0.75767   0.06500   0.00000  Uiso   1.00
H117   H     0.54742   0.77629   0.99358   0.00000  Uiso   1.00
H118   H     0.75737   0.62407   0.06319   0.00000  Uiso   1.00
H119   H     0.75008   0.86586   0.15880   0.00000  Uiso   1.00
H120   H     0.40911   0.80756   0.88196   0.00000  Uiso   1.00
H121   H     0.85181   0.48660   0.02877   0.00000  Uiso   1.00
H122   H     0.83645   0.99646   0.23038   0.00000  Uiso   1.00
H123   H     0.83131   0.83979   0.81521   0.00000  Uiso   1.00
H124   H     0.69769   0.86292   0.73007   0.00000  Uiso   1.00
H125   H     0.90764   0.71069   0.79969   0.00000  Uiso   1.00
H126   H     0.90035   0.95248   0.89530   0.00000  Uiso   1.00
H127   H     0.53107   0.87787   0.66809   0.00000  Uiso   1.00
H128   H     0.97378   0.55691   0.81490   0.00000  Uiso   1.00
H129   H     0.95841   0.06677   0.01651   0.00000  Uiso   1.00
O130   O     0.37962   0.85642   0.72352   0.00000  Uiso   1.00
O131   O     0.96045   0.43534   0.91614   0.00000  Uiso   1.00
O132   O     0.94028   0.10427   0.18065   0.00000  Uiso   1.00
N133   N     0.45615   0.82095   0.84332   0.00000  Uiso   1.00
N134   N     0.87004   0.52086   0.98056   0.00000  Uiso   1.00
N135   N     0.85569   0.99753   0.16906   0.00000  Uiso   1.00
N136   N     0.52178   0.85878   0.72823   0.00000  Uiso   1.00
N137   N     0.93567   0.55870   0.86548   0.00000  Uiso   1.00
N138   N     0.92132   0.03537   0.05398   0.00000  Uiso   1.00
C139   C     0.77851   0.22351   0.00777   0.00000  Uiso   1.00
C140   C     0.83560   0.20200   0.93433   0.00000  Uiso   1.00
C141   C     0.92016   0.20500   0.93668   0.00000  Uiso   1.00
C142   C     0.96137   0.18295   0.86283   0.00000  Uiso   1.00
C143   C     0.05639   0.15327   0.75996   0.00000  Uiso   1.00
C144   C     0.72154   0.28472   0.97215   0.00000  Uiso   1.00
C145   C     0.71018   0.35725   0.00630   0.00000  Uiso   1.00
C146   C     0.65536   0.40483   0.96429   0.00000  Uiso   1.00
C147   C     0.57325   0.50353   0.92017   0.00000  Uiso   1.00
C148   C     0.72550   0.15334   0.02409   0.00000  Uiso   1.00
C149   C     0.71747   0.11543   0.10193   0.00000  Uiso   1.00
C150   C     0.66597   0.05240   0.10366   0.00000  Uiso   1.00
C151   C     0.59002   0.94713   0.14019   0.00000  Uiso   1.00
C152   C     0.70133   0.17902   0.87244   0.00000  Uiso   1.00
C153   C     0.79368   0.17784   0.86082   0.00000  Uiso   1.00
C154   C     0.83477   0.15578   0.78695   0.00000  Uiso   1.00
C155   C     0.91937   0.15874   0.78919   0.00000  Uiso   1.00
C156   C     0.67961   0.26055   0.89864   0.00000  Uiso   1.00
C157   C     0.62479   0.30803   0.85657   0.00000  Uiso   1.00
C158   C     0.61336   0.38062   0.89065   0.00000  Uiso   1.00
C159   C     0.68358   0.12917   0.95058   0.00000  Uiso   1.00
C160   C     0.63208   0.06620   0.95220   0.00000  Uiso   1.00
C161   C     0.62397   0.02819   0.03002   0.00000  Uiso   1.00
H162   H     0.81115   0.24233   0.06500   0.00000  Uiso   1.00
H163   H     0.95258   0.22371   0.99358   0.00000  Uiso   1.00
H164   H     0.74263   0.37593   0.06319   0.00000  Uiso   1.00
H165   H     0.74992   0.13414   0.15880   0.00000  Uiso   1.00
H166   H     0.09089   0.19244   0.88196   0.00000  Uiso   1.00
H167   H     0.64819   0.51340   0.02877   0.00000  Uiso   1.00
H168   H     0.66355   0.00354   0.23038   0.00000  Uiso   1.00
H169   H     0.66869   0.16021   0.81521   0.00000  Uiso   1.00
H170   H     0.80231   0.13708   0.73007   0.00000  Uiso   1.00
H171   H     0.59236   0.28931   0.79969   0.00000  Uiso   1.00
H172   H     0.59965   0.04752   0.89530   0.00000  Uiso   1.00
H173   H     0.96893   0.12213   0.66809   0.00000  Uiso   1.00
H174   H     0.52622   0.44309   0.81490   0.00000  Uiso   1.00
H175   H     0.54159   0.93323   0.01651   0.00000  Uiso   1.00
O176   O     0.12038   0.14358   0.72352   0.00000  Uiso   1.00
O177   O     0.53955   0.56466   0.91614   0.00000  Uiso   1.00
O178   O     0.55972   0.89573   0.18065   0.00000  Uiso   1.00
N179   N     0.04385   0.17905   0.84332   0.00000  Uiso   1.00
N180   N     0.62996   0.47914   0.98056   0.00000  Uiso   1.00
N181   N     0.64431   0.00247   0.16906   0.00000  Uiso   1.00
N182   N     0.97822   0.14122   0.72823   0.00000  Uiso   1.00
N183   N     0.56433   0.44130   0.86548   0.00000  Uiso   1.00
N184   N     0.57868   0.96463   0.05398   0.00000  Uiso   1.00
C185   C     0.22149   0.72351   0.50777   0.00000  Uiso   1.00
C186   C     0.16440   0.70200   0.43433   0.00000  Uiso   1.00
C187   C     0.07984   0.70500   0.43668   0.00000  Uiso   1.00
C188   C     0.03863   0.68295   0.36283   0.00000  Uiso   1.00
C189   C     0.94361   0.65327   0.25996   0.00000  Uiso   1.00
C190   C     0.27846   0.78472   0.47215   0.00000  Uiso   1.00
C191   C     0.28982   0.85725   0.50630   0.00000  Uiso   1.00
C192   C     0.34464   0.90483   0.46429   0.00000  Uiso   1.00
C193   C     0.42675   0.00353   0.42017   0.00000  Uiso   1.00
C194   C     0.27450   0.65334   0.52409   0.00000  Uiso   1.00
C195   C     0.28253   0.61543   0.60193   0.00000  Uiso   1.00
C196   C     0.33403   0.55240   0.60366   0.00000  Uiso   1.00
C197   C     0.40998   0.44713   0.64019   0.00000  Uiso   1.00
C198   C     0.29867   0.67902   0.37244   0.00000  Uiso   1.00
C199   C     0.20632   0.67784   0.36082   0.00000  Uiso   1.00
C200   C     0.16523   0.65578   0.28695   0.00000  Uiso   1.00
C201   C     0.08063   0.65874   0.28919   0.00000  Uiso   1.00
C202   C     0.32039   0.76055   0.39864   0.00000  Uiso   1.00
C203   C     0.37521   0.80803   0.35657   0.00000  Uiso   1.00
C204   C     0.38664   0.88062   0.39065   0.00000  Uiso   1.00
C205   C     0.31642   0.62917   0.45058   0.00000  Uiso   1.00
C206   C     0.36792   0.56620   0.45220   0.00000  Uiso   1.00
C207   C     0.37603   0.52819   0.53002   0.00000  Uiso   1.00
H208   H     0.18885   0.74233   0.56500   0.00000  Uiso   1.00
H209   H     0.04742   0.72371   0.49358   0.00000  Uiso   1.00
H210   H     0.25737   0.87593   0.56319   0.00000  Uiso   1.00
H211   H     0.25008   0.63414   0.65880   0.00000  Uiso   1.00
H212   H     0.90911   0.69244   0.38196   0.00000  Uiso   1.00
H213   H     0.35181   0.01340   0.52877   0.00000  Uiso   1.00
H214   H     0.33645   0.50354   0.73038   0.00000  Uiso   1.00
H215   H     0.33131   0.66021   0.31521   0.00000  Uiso   1.00
H216   H     0.19769   0.63708   0.23007   0.00000  Uiso   1.00
H217   H     0.40764   0.78931   0.29969   0.00000  Uiso   1.00
H218   H     0.40035   0.54752   0.39530   0.00000  Uiso   1.00
H219   H     0.03107   0.62213   0.16809   0.00000  Uiso   1.00
H220   H     0.47378   0.94309   0.31490   0.00000  Uiso   1.00
H221   H     0.45841   0.43323   0.51651   0.00000  Uiso   1.00
O222   O     0.87962   0.64358   0.22352   0.00000  Uiso   1.00
O223   O     0.46045   0.06466   0.41614   0.00000  Uiso   1.00
O224   O     0.44028   0.39573   0.68065   0.00000  Uiso   1.00
N225   N     0.95615   0.67905   0.34332   0.00000  Uiso   1.00
N226   N     0.37004   0.97914   0.48056   0.00000  Uiso   1.00
N227   N     0.35569   0.50247   0.66906   0.00000  Uiso   1.00
N228   N     0.02178   0.64122   0.22823   0.00000  Uiso   1.00
N229   N     0.43567   0.94130   0.36548   0.00000  Uiso   1.00
N230   N     0.42132   0.46463   0.55398   0.00000  Uiso   1.00
C231   C     0.27851   0.27649   0.50777   0.00000  Uiso   1.00
C232   C     0.33560   0.29800   0.43433   0.00000  Uiso   1.00
C233   C     0.42016   0.29500   0.43668   0.00000  Uiso   1.00
C234   C     0.46137   0.31705   0.36283   0.00000  Uiso   1.00
C235   C     0.55639   0.34673   0.25996   0.00000  Uiso   1.00
C236   C     0.22154   0.21528   0.47215   0.00000  Uiso   1.00
C237   C     0.21018   0.14275   0.50630   0.00000  Uiso   1.00
C238   C     0.15536   0.09517   0.46429   0.00000  Uiso   1.00
C239   C     0.07325   0.99647   0.42017   0.00000  Uiso   1.00
C240   C     0.22550   0.34666   0.52409   0.00000  Uiso   1.00
C241   C     0.21747   0.38457   0.60193   0.00000  Uiso   1.00
C242   C     0.16597   0.44760   0.60366   0.00000  Uiso   1.00
C243   C     0.09002   0.55287   0.64019   0.00000  Uiso   1.00
C244   C     0.20133   0.32098   0.37244   0.00000  Uiso   1.00
C245   C     0.29368   0.32216   0.36082   0.00000  Uiso   1.00
C246   C     0.33477   0.34422   0.28695   0.00000  Uiso   1.00
C247   C     0.41937   0.34126   0.28919   0.00000  Uiso   1.00
C248   C     0.17961   0.23945   0.39864   0.00000  Uiso   1.00
C249   C     0.12479   0.19197   0.35657   0.00000  Uiso   1.00
C250   C     0.11336   0.11938   0.39065   0.00000  Uiso   1.00
C251   C     0.18358   0.37083   0.45058   0.00000  Uiso   1.00
C252   C     0.13208   0.43380   0.45220   0.00000  Uiso   1.00
C253   C     0.12397   0.47181   0.53002   0.00000  Uiso   1.00
H254   H     0.31115   0.25767   0.56500   0.00000  Uiso   1.00
H255   H     0.45258   0.27629   0.49358   0.00000  Uiso   1.00
H256   H     0.24263   0.12407   0.56319   0.00000  Uiso   1.00
H257   H     0.24992   0.36586   0.65880   0.00000  Uiso   1.00
H258   H     0.59089   0.30756   0.38196   0.00000  Uiso   1.00
H259   H     0.14819   0.98660   0.52877   0.00000  Uiso   1.00
H260   H     0.16355   0.49646   0.73038   0.00000  Uiso   1.00
H261   H     0.16869   0.33979   0.31521   0.00000  Uiso   1.00
H262   H     0.30231   0.36292   0.23007   0.00000  Uiso   1.00
H263   H     0.09236   0.21069   0.29969   0.00000  Uiso   1.00
H264   H     0.09965   0.45248   0.39530   0.00000  Uiso   1.00
H265   H     0.46893   0.37787   0.16809   0.00000  Uiso   1.00
H266   H     0.02622   0.05691   0.31490   0.00000  Uiso   1.00
H267   H     0.04159   0.56677   0.51651   0.00000  Uiso   1.00
O268   O     0.62038   0.35642   0.22352   0.00000  Uiso   1.00
O269   O     0.03955   0.93534   0.41614   0.00000  Uiso   1.00
O270   O     0.05972   0.60427   0.68065   0.00000  Uiso   1.00
N271   N     0.54385   0.32095   0.34332   0.00000  Uiso   1.00
N272   N     0.12996   0.02086   0.48056   0.00000  Uiso   1.00
N273   N     0.14431   0.49753   0.66906   0.00000  Uiso   1.00
N274   N     0.47822   0.35878   0.22823   0.00000  Uiso   1.00
N275   N     0.06433   0.05870   0.36548   0.00000  Uiso   1.00
N276   N     0.07868   0.53537   0.55398   0.00000  Uiso   1.00
C277   C     0.27851   0.22351   0.99223   0.00000  Uiso   1.00
C278   C     0.33560   0.20200   0.06567   0.00000  Uiso   1.00
C279   C     0.42016   0.20500   0.06332   0.00000  Uiso   1.00
C280   C     0.46137   0.18295   0.13717   0.00000  Uiso   1.00
C281   C     0.55639   0.15327   0.24004   0.00000  Uiso   1.00
C282   C     0.22154   0.28472   0.02785   0.00000  Uiso   1.00
C283   C     0.21018   0.35725   0.99370   0.00000  Uiso   1.00
C284   C     0.15536   0.40483   0.03571   0.00000  Uiso   1.00
C285   C     0.07325   0.50353   0.07983   0.00000  Uiso   1.00
C286   C     0.22550   0.15334   0.97591   0.00000  Uiso   1.00
C287   C     0.21747   0.11543   0.89807   0.00000  Uiso   1.00
C288   C     0.16597   0.05240   0.89634   0.00000  Uiso   1.00
C289   C     0.09002   0.94713   0.85981   0.00000  Uiso   1.00
C290   C     0.20133   0.17902   0.12756   0.00000  Uiso   1.00
C291   C     0.29368   0.17784   0.13918   0.00000  Uiso   1.00
C292   C     0.33477   0.15578   0.21305   0.00000  Uiso   1.00
C293   C     0.41937   0.15874   0.21081   0.00000  Uiso   1.00
C294   C     0.17961   0.26055   0.10136   0.00000  Uiso   1.00
C295   C     0.12479   0.30803   0.14343   0.00000  Uiso   1.00
C296   C     0.11336   0.38062   0.10935   0.00000  Uiso   1.00
C297   C     0.18358   0.12917   0.04942   0.00000  Uiso   1.00
C298   C     0.13208   0.06620   0.04780   0.00000  Uiso   1.00
C299   C     0.12397   0.02819   0.96998   0.00000  Uiso   1.00
H300   H     0.31115   0.24233   0.93500   0.00000  Uiso   1.00
H301   H     0.45258   0.22371   0.00642   0.00000  Uiso   1.00
H302   H     0.24263   0.37593   0.93681   0.00000  Uiso   1.00
H303   H     0.24992   0.13414   0.84120   0.00000  Uiso   1.00
H304   H     0.59089   0.19244   0.11804   0.00000  Uiso   1.00
H305   H     0.14819   0.51340   0.97123   0.00000  Uiso   1.00
H306   H     0.16355   0.00354   0.76962   0.00000  Uiso   1.00
H307   H     0.16869   0.16021   0.18479   0.00000  Uiso   1.00
H308   H     0.30231   0.13708   0.26993   0.00000  Uiso   1.00
H309   H     0.09236   0.28931   0.20031   0.00000  Uiso   1.00
H310   H     0.09965   0.04752   0.10470   0.00000  Uiso   1.00
H311   H     0.46893   0.12213   0.33191   0.00000  Uiso   1.00
H312   H     0.02622   0.44309   0.18510   0.00000  Uiso   1.00
H313   H     0.04159   0.93323   0.98349   0.00000  Uiso   1.00
O314   O     0.62038   0.14358   0.27648   0.00000  Uiso   1.00
O315   O     0.03955   0.56466   0.08386   0.00000  Uiso   1.00
O316   O     0.05972   0.89573   0.81935   0.00000  Uiso   1.00
N317   N     0.54385   0.17905   0.15668   0.00000  Uiso   1.00
N318   N     0.12996   0.47914   0.01944   0.00000  Uiso   1.00
N319   N     0.14431   0.00247   0.83094   0.00000  Uiso   1.00
N320   N     0.47822   0.14122   0.27177   0.00000  Uiso   1.00
N321   N     0.06433   0.44130   0.13452   0.00000  Uiso   1.00
N322   N     0.07868   0.96463   0.94602   0.00000  Uiso   1.00
C323   C     0.22149   0.77649   0.99223   0.00000  Uiso   1.00
C324   C     0.16440   0.79800   0.06567   0.00000  Uiso   1.00
C325   C     0.07984   0.79500   0.06332   0.00000  Uiso   1.00
C326   C     0.03863   0.81705   0.13717   0.00000  Uiso   1.00
C327   C     0.94361   0.84673   0.24004   0.00000  Uiso   1.00
C328   C     0.27846   0.71528   0.02785   0.00000  Uiso   1.00
C329   C     0.28982   0.64275   0.99370   0.00000  Uiso   1.00
C330   C     0.34464   0.59517   0.03571   0.00000  Uiso   1.00
C331   C     0.42675   0.49647   0.07983   0.00000  Uiso   1.00
C332   C     0.27450   0.84666   0.97591   0.00000  Uiso   1.00
C333   C     0.28253   0.88457   0.89807   0.00000  Uiso   1.00
C334   C     0.33403   0.94760   0.89634   0.00000  Uiso   1.00
C335   C     0.40998   0.05287   0.85981   0.00000  Uiso   1.00
C336   C     0.29867   0.82098   0.12756   0.00000  Uiso   1.00
C337   C     0.20632   0.82216   0.13918   0.00000  Uiso   1.00
C338   C     0.16523   0.84422   0.21305   0.00000  Uiso   1.00
C339   C     0.08063   0.84126   0.21081   0.00000  Uiso   1.00
C340   C     0.32039   0.73945   0.10136   0.00000  Uiso   1.00
C341   C     0.37521   0.69197   0.14343   0.00000  Uiso   1.00
C342   C     0.38664   0.61938   0.10935   0.00000  Uiso   1.00
C343   C     0.31642   0.87083   0.04942   0.00000  Uiso   1.00
C344   C     0.36792   0.93380   0.04780   0.00000  Uiso   1.00
C345   C     0.37603   0.97181   0.96998   0.00000  Uiso   1.00
H346   H     0.18885   0.75767   0.93500   0.00000  Uiso   1.00
H347   H     0.04742   0.77629   0.00642   0.00000  Uiso   1.00
H348   H     0.25737   0.62407   0.93681   0.00000  Uiso   1.00
H349   H     0.25008   0.86586   0.84120   0.00000  Uiso   1.00
H350   H     0.90911   0.80756   0.11804   0.00000  Uiso   1.00
H351   H     0.35181   0.48660   0.97123   0.00000  Uiso   1.00
H352   H     0.33645   0.99646   0.76962   0.00000  Uiso   1.00
H353   H     0.33131   0.83979   0.18479   0.00000  Uiso   1.00
H354   H     0.19769   0.86292   0.26993   0.00000  Uiso   1.00
H355   H     0.40764   0.71069   0.20031   0.00000  Uiso   1.00
H356   H     0.40035   0.95248   0.10470   0.00000  Uiso   1.00
H357   H     0.03107   0.87787   0.33191   0.00000  Uiso   1.00
H358   H     0.47378   0.55691   0.18510   0.00000  Uiso   1.00
H359   H     0.45841   0.06677   0.98349   0.00000  Uiso   1.00
O360   O     0.87962   0.85642   0.27648   0.00000  Uiso   1.00
O361   O     0.46045   0.43534   0.08386   0.00000  Uiso   1.00
O362   O     0.44028   0.10427   0.81935   0.00000  Uiso   1.00
N363   N     0.95615   0.82095   0.15668   0.00000  Uiso   1.00
N364   N     0.37004   0.52086   0.01944   0.00000  Uiso   1.00
N365   N     0.35569   0.99753   0.83094   0.00000  Uiso   1.00
N366   N     0.02178   0.85878   0.27177   0.00000  Uiso   1.00
N367   N     0.43567   0.55870   0.13452   0.00000  Uiso   1.00
N368   N     0.42132   0.03537   0.94602   0.00000  Uiso   1.00
