data_job_04693
_audit_creation_date              2018-12-19
_audit_creation_method            'Materials Studio'
_symmetry_space_group_name_H-M    'P1'
_symmetry_Int_Tables_number       1
_symmetry_cell_setting            triclinic
loop_
_symmetry_equiv_pos_as_xyz
  x,y,z
_cell_length_a                    12.4756
_cell_length_b                    14.3758
_cell_length_c                    27.3122
_cell_angle_alpha                 88.8106
_cell_angle_beta                  80.2299
_cell_angle_gamma                 91.0255
loop_
_atom_site_label
_atom_site_type_symbol
_atom_site_fract_x
_atom_site_fract_y
_atom_site_fract_z
_atom_site_U_iso_or_equiv
_atom_site_adp_type
_atom_site_occupancy
C1     C     0.49095   0.20935   0.09221   0.00000  Uiso   1.00
C2     C     0.39961   0.26508   0.12136   0.00000  Uiso   1.00
C3     C     0.31199   0.30142   0.10270   0.00000  Uiso   1.00
C4     C     0.23713   0.35032   0.13533   0.00000  Uiso   1.00
C5     C     0.09344   0.43506   0.17306   0.00000  Uiso   1.00
C6     C     0.59652   0.26089   0.09686   0.00000  Uiso   1.00
C7     C     0.67447   0.29369   0.05760   0.00000  Uiso   1.00
C8     C     0.76538   0.33906   0.06961   0.00000  Uiso   1.00
C9     C     0.92743   0.41722   0.06930   0.00000  Uiso   1.00
C10    C     0.49240   0.11733   0.12085   0.00000  Uiso   1.00
C11    C     0.48283   0.02942   0.10177   0.00000  Uiso   1.00
C12    C     0.48610   0.95391   0.13397   0.00000  Uiso   1.00
C13    C     0.48649   0.80917   0.17091   0.00000  Uiso   1.00
C14    C     0.51382   0.23157   0.18333   0.00000  Uiso   1.00
C15    C     0.41204   0.27715   0.17085   0.00000  Uiso   1.00
C16    C     0.33729   0.32601   0.20351   0.00000  Uiso   1.00
C17    C     0.24957   0.36241   0.18491   0.00000  Uiso   1.00
C18    C     0.60895   0.27296   0.14635   0.00000  Uiso   1.00
C19    C     0.69977   0.31828   0.15841   0.00000  Uiso   1.00
C20    C     0.77782   0.35115   0.11919   0.00000  Uiso   1.00
C21    C     0.50482   0.12939   0.17034   0.00000  Uiso   1.00
C22    C     0.50812   0.05401   0.20258   0.00000  Uiso   1.00
C23    C     0.49855   0.96600   0.18355   0.00000  Uiso   1.00
H24    H     0.48129   0.19996   0.05367   0.00000  Uiso   1.00
H25    H     0.30241   0.29208   0.06440   0.00000  Uiso   1.00
H26    H     0.66483   0.28434   0.01931   0.00000  Uiso   1.00
H27    H     0.47322   0.02011   0.06347   0.00000  Uiso   1.00
H28    H     0.10959   0.39955   0.09811   0.00000  Uiso   1.00
H29    H     0.87380   0.38321   0.00303   0.00000  Uiso   1.00
H30    H     0.46974   0.82603   0.09615   0.00000  Uiso   1.00
H31    H     0.52350   0.24097   0.22186   0.00000  Uiso   1.00
H32    H     0.34692   0.33533   0.24181   0.00000  Uiso   1.00
H33    H     0.70935   0.32760   0.19672   0.00000  Uiso   1.00
H34    H     0.51774   0.06337   0.24088   0.00000  Uiso   1.00
H35    H     0.14572   0.43467   0.24210   0.00000  Uiso   1.00
H36    H     0.90994   0.41832   0.14702   0.00000  Uiso   1.00
H37    H     0.50588   0.86114   0.24014   0.00000  Uiso   1.00
O38    O     0.01076   0.47847   0.18019   0.00000  Uiso   1.00
O39    O     0.01338   0.45701   0.05545   0.00000  Uiso   1.00
O40    O     0.48326   0.72601   0.17762   0.00000  Uiso   1.00
N41    N     0.14231   0.39485   0.12926   0.00000  Uiso   1.00
N42    N     0.85680   0.37958   0.04037   0.00000  Uiso   1.00
N43    N     0.47907   0.85866   0.12742   0.00000  Uiso   1.00
N44    N     0.16175   0.41374   0.20674   0.00000  Uiso   1.00
N45    N     0.87624   0.39848   0.11785   0.00000  Uiso   1.00
N46    N     0.49851   0.87756   0.20491   0.00000  Uiso   1.00
C47    C     0.38841   0.33905   0.42296   0.00000  Uiso   1.00
C48    C     0.31522   0.27174   0.40059   0.00000  Uiso   1.00
C49    C     0.21277   0.23973   0.42319   0.00000  Uiso   1.00
C50    C     0.15884   0.17844   0.39659   0.00000  Uiso   1.00
C51    C     0.03808   0.07819   0.36909   0.00000  Uiso   1.00
C52    C     0.49558   0.28949   0.42263   0.00000  Uiso   1.00
C53    C     0.54477   0.27241   0.46375   0.00000  Uiso   1.00
C54    C     0.64267   0.22608   0.45570   0.00000  Uiso   1.00
C55    C     0.80196   0.15344   0.46240   0.00000  Uiso   1.00
C56    C     0.41364   0.42033   0.38578   0.00000  Uiso   1.00
C57    C     0.39397   0.51327   0.39592   0.00000  Uiso   1.00
C58    C     0.42291   0.57710   0.35684   0.00000  Uiso   1.00
C59    C     0.45498   0.70761   0.30633   0.00000  Uiso   1.00
C60    C     0.47482   0.28715   0.33555   0.00000  Uiso   1.00
C61    C     0.36216   0.24355   0.35311   0.00000  Uiso   1.00
C62    C     0.30837   0.18231   0.32648   0.00000  Uiso   1.00
C63    C     0.20585   0.15021   0.34903   0.00000  Uiso   1.00
C64    C     0.54251   0.26130   0.37515   0.00000  Uiso   1.00
C65    C     0.64037   0.21499   0.36704   0.00000  Uiso   1.00
C66    C     0.68969   0.19784   0.40814   0.00000  Uiso   1.00
C67    C     0.46058   0.39214   0.33830   0.00000  Uiso   1.00
C68    C     0.48956   0.45584   0.29921   0.00000  Uiso   1.00
C69    C     0.46993   0.54886   0.30928   0.00000  Uiso   1.00
H70    H     0.35187   0.36099   0.45993   0.00000  Uiso   1.00
H71    H     0.17648   0.26155   0.45993   0.00000  Uiso   1.00
H72    H     0.50843   0.29424   0.50048   0.00000  Uiso   1.00
H73    H     0.35765   0.53506   0.43266   0.00000  Uiso   1.00
H74    H     0.00273   0.13885   0.43900   0.00000  Uiso   1.00
H75    H     0.70269   0.20780   0.52451   0.00000  Uiso   1.00
H76    H     0.38474   0.71561   0.38149   0.00000  Uiso   1.00
H77    H     0.51136   0.26520   0.29859   0.00000  Uiso   1.00
H78    H     0.34471   0.16050   0.28974   0.00000  Uiso   1.00
H79    H     0.67667   0.19319   0.33029   0.00000  Uiso   1.00
H80    H     0.52588   0.43400   0.26247   0.00000  Uiso   1.00
H81    H     0.13928   0.05683   0.30087   0.00000  Uiso   1.00
H82    H     0.83925   0.12579   0.38638   0.00000  Uiso   1.00
H83    H     0.52129   0.63359   0.24336   0.00000  Uiso   1.00
O84    O     0.95852   0.03067   0.36703   0.00000  Uiso   1.00
O85    O     0.87685   0.12116   0.47921   0.00000  Uiso   1.00
O86    O     0.45969   0.78738   0.29158   0.00000  Uiso   1.00
N87    N     0.05773   0.13393   0.40770   0.00000  Uiso   1.00
N88    N     0.71214   0.19838   0.48765   0.00000  Uiso   1.00
N89    N     0.41491   0.67315   0.35394   0.00000  Uiso   1.00
N90    N     0.13121   0.08979   0.33338   0.00000  Uiso   1.00
N91    N     0.78562   0.15425   0.41332   0.00000  Uiso   1.00
N92    N     0.48839   0.62901   0.27961   0.00000  Uiso   1.00
C93    C     0.92842   0.69936   0.40519   0.00000  Uiso   1.00
C94    C     0.02066   0.75887   0.37573   0.00000  Uiso   1.00
C95    C     0.10851   0.79632   0.39427   0.00000  Uiso   1.00
C96    C     0.18422   0.84880   0.36135   0.00000  Uiso   1.00
C97    C     0.32921   0.93905   0.32317   0.00000  Uiso   1.00
C98    C     0.82358   0.74863   0.39996   0.00000  Uiso   1.00
C99    C     0.74573   0.77745   0.43885   0.00000  Uiso   1.00
C100   C     0.65553   0.82130   0.42633   0.00000  Uiso   1.00
C101   C     0.49452   0.89558   0.42575   0.00000  Uiso   1.00
C102   C     0.92610   0.60881   0.37725   0.00000  Uiso   1.00
C103   C     0.93442   0.52007   0.39705   0.00000  Uiso   1.00
C104   C     0.93051   0.44619   0.36541   0.00000  Uiso   1.00
C105   C     0.92867   0.30339   0.32957   0.00000  Uiso   1.00
C106   C     0.90665   0.72596   0.31378   0.00000  Uiso   1.00
C107   C     0.00882   0.77332   0.32608   0.00000  Uiso   1.00
C108   C     0.08442   0.82575   0.29313   0.00000  Uiso   1.00
C109   C     0.17238   0.86327   0.31161   0.00000  Uiso   1.00
C110   C     0.81175   0.76308   0.35031   0.00000  Uiso   1.00
C111   C     0.72164   0.80688   0.33772   0.00000  Uiso   1.00
C112   C     0.64368   0.83577   0.37659   0.00000  Uiso   1.00
C113   C     0.91427   0.62326   0.32760   0.00000  Uiso   1.00
C114   C     0.91033   0.54950   0.29592   0.00000  Uiso   1.00
C115   C     0.91865   0.46067   0.31567   0.00000  Uiso   1.00
H116   H     0.93762   0.68811   0.44385   0.00000  Uiso   1.00
H117   H     0.11763   0.78513   0.43270   0.00000  Uiso   1.00
H118   H     0.75490   0.76626   0.47727   0.00000  Uiso   1.00
H119   H     0.94357   0.50892   0.43548   0.00000  Uiso   1.00
H120   H     0.31197   0.89910   0.39844   0.00000  Uiso   1.00
H121   H     0.54712   0.85927   0.49243   0.00000  Uiso   1.00
H122   H     0.94495   0.31661   0.40430   0.00000  Uiso   1.00
H123   H     0.89743   0.73720   0.27512   0.00000  Uiso   1.00
H124   H     0.07525   0.83692   0.25471   0.00000  Uiso   1.00
H125   H     0.71251   0.81804   0.29929   0.00000  Uiso   1.00
H126   H     0.90118   0.56071   0.25750   0.00000  Uiso   1.00
H127   H     0.27757   0.94113   0.25398   0.00000  Uiso   1.00
H128   H     0.51271   0.90130   0.34798   0.00000  Uiso   1.00
H129   H     0.91055   0.35865   0.25984   0.00000  Uiso   1.00
O130   O     0.41245   0.98485   0.31583   0.00000  Uiso   1.00
O131   O     0.40898   0.93258   0.43915   0.00000  Uiso   1.00
O132   O     0.93093   0.22063   0.32352   0.00000  Uiso   1.00
N133   N     0.27948   0.89529   0.36724   0.00000  Uiso   1.00
N134   N     0.56440   0.85806   0.45512   0.00000  Uiso   1.00
N135   N     0.93631   0.35073   0.37273   0.00000  Uiso   1.00
N136   N     0.26097   0.91791   0.28950   0.00000  Uiso   1.00
N137   N     0.54588   0.88068   0.37739   0.00000  Uiso   1.00
N138   N     0.91780   0.37335   0.29500   0.00000  Uiso   1.00
C139   C     0.01616   0.85557   0.07556   0.00000  Uiso   1.00
C140   C     0.08805   0.78713   0.09761   0.00000  Uiso   1.00
C141   C     0.19032   0.75959   0.07505   0.00000  Uiso   1.00
C142   C     0.24299   0.69633   0.10131   0.00000  Uiso   1.00
C143   C     0.36189   0.59525   0.12837   0.00000  Uiso   1.00
C144   C     0.90845   0.80400   0.07515   0.00000  Uiso   1.00
C145   C     0.85972   0.79066   0.03370   0.00000  Uiso   1.00
C146   C     0.76119   0.74161   0.04106   0.00000  Uiso   1.00
C147   C     0.60122   0.66679   0.03325   0.00000  Uiso   1.00
C148   C     0.99144   0.93215   0.11338   0.00000  Uiso   1.00
C149   C     0.01247   0.02657   0.10408   0.00000  Uiso   1.00
C150   C     0.98379   0.08543   0.14362   0.00000  Uiso   1.00
C151   C     0.95268   0.20958   0.19517   0.00000  Uiso   1.00
C152   C     0.92782   0.79220   0.16232   0.00000  Uiso   1.00
C153   C     0.04006   0.75270   0.14473   0.00000  Uiso   1.00
C154   C     0.09259   0.68947   0.17104   0.00000  Uiso   1.00
C155   C     0.19493   0.66184   0.14852   0.00000  Uiso   1.00
C156   C     0.86046   0.76958   0.12227   0.00000  Uiso   1.00
C157   C     0.76198   0.72054   0.12969   0.00000  Uiso   1.00
C158   C     0.71312   0.70713   0.08827   0.00000  Uiso   1.00
C159   C     0.94346   0.89773   0.16050   0.00000  Uiso   1.00
C160   C     0.91474   0.95645   0.20007   0.00000  Uiso   1.00
C161   C     0.93572   0.05094   0.19083   0.00000  Uiso   1.00
H162   H     0.05351   0.88237   0.03887   0.00000  Uiso   1.00
H163   H     0.22742   0.78624   0.03858   0.00000  Uiso   1.00
H164   H     0.89686   0.81731   0.99724   0.00000  Uiso   1.00
H165   H     0.04960   0.05318   0.06760   0.00000  Uiso   1.00
H166   H     0.39906   0.66445   0.05903   0.00000  Uiso   1.00
H167   H     0.70204   0.73000   0.97186   0.00000  Uiso   1.00
H168   H     0.02411   0.22739   0.12024   0.00000  Uiso   1.00
H169   H     0.89046   0.76540   0.19901   0.00000  Uiso   1.00
H170   H     0.05544   0.66285   0.20750   0.00000  Uiso   1.00
H171   H     0.72487   0.69392   0.16616   0.00000  Uiso   1.00
H172   H     0.87761   0.92979   0.23653   0.00000  Uiso   1.00
H173   H     0.25947   0.56429   0.19613   0.00000  Uiso   1.00
H174   H     0.56244   0.62985   0.10897   0.00000  Uiso   1.00
H175   H     0.88451   0.12724   0.25735   0.00000  Uiso   1.00
O176   O     0.44072   0.54899   0.13027   0.00000  Uiso   1.00
O177   O     0.52624   0.63502   0.01592   0.00000  Uiso   1.00
O178   O     0.94879   0.28757   0.21059   0.00000  Uiso   1.00
N179   N     0.34358   0.65496   0.09013   0.00000  Uiso   1.00
N180   N     0.69191   0.71624   0.00864   0.00000  Uiso   1.00
N181   N     0.99299   0.18126   0.14736   0.00000  Uiso   1.00
N182   N     0.26847   0.60107   0.16391   0.00000  Uiso   1.00
N183   N     0.61680   0.66235   0.08241   0.00000  Uiso   1.00
N184   N     0.91788   0.12737   0.22113   0.00000  Uiso   1.00
C185   C     0.43940   0.64616   0.90206   0.00000  Uiso   1.00
C186   C     0.53037   0.58909   0.87361   0.00000  Uiso   1.00
C187   C     0.61783   0.55347   0.89267   0.00000  Uiso   1.00
C188   C     0.69235   0.50310   0.86066   0.00000  Uiso   1.00
C189   C     0.83549   0.41660   0.82399   0.00000  Uiso   1.00
C190   C     0.33352   0.59449   0.89807   0.00000  Uiso   1.00
C191   C     0.25548   0.56343   0.93771   0.00000  Uiso   1.00
C192   C     0.16428   0.51761   0.92629   0.00000  Uiso   1.00
C193   C     0.00178   0.43956   0.92759   0.00000  Uiso   1.00
C194   C     0.43841   0.73699   0.87231   0.00000  Uiso   1.00
C195   C     0.44852   0.82573   0.89029   0.00000  Uiso   1.00
C196   C     0.44560   0.89989   0.85718   0.00000  Uiso   1.00
C197   C     0.44594   0.04308   0.81849   0.00000  Uiso   1.00
C198   C     0.41621   0.62004   0.81130   0.00000  Uiso   1.00
C199   C     0.51777   0.57491   0.82431   0.00000  Uiso   1.00
C200   C     0.59217   0.52457   0.79226   0.00000  Uiso   1.00
C201   C     0.67973   0.48889   0.81128   0.00000  Uiso   1.00
C202   C     0.32092   0.58031   0.84877   0.00000  Uiso   1.00
C203   C     0.22982   0.53453   0.83729   0.00000  Uiso   1.00
C204   C     0.15166   0.50339   0.87690   0.00000  Uiso   1.00
C205   C     0.42581   0.72280   0.82301   0.00000  Uiso   1.00
C206   C     0.42286   0.79683   0.78987   0.00000  Uiso   1.00
C207   C     0.43298   0.88567   0.80780   0.00000  Uiso   1.00
H208   H     0.44920   0.65720   0.94044   0.00000  Uiso   1.00
H209   H     0.62755   0.56446   0.93083   0.00000  Uiso   1.00
H210   H     0.26525   0.57442   0.97585   0.00000  Uiso   1.00
H211   H     0.45827   0.83669   0.92844   0.00000  Uiso   1.00
H212   H     0.81970   0.45535   0.89844   0.00000  Uiso   1.00
H213   H     0.05575   0.47639   0.99337   0.00000  Uiso   1.00
H214   H     0.46276   0.02942   0.89339   0.00000  Uiso   1.00
H215   H     0.40639   0.60900   0.77292   0.00000  Uiso   1.00
H216   H     0.58240   0.51361   0.75411   0.00000  Uiso   1.00
H217   H     0.22009   0.52357   0.79914   0.00000  Uiso   1.00
H218   H     0.41311   0.78583   0.75173   0.00000  Uiso   1.00
H219   H     0.78305   0.41407   0.75501   0.00000  Uiso   1.00
H220   H     0.01909   0.43511   0.84995   0.00000  Uiso   1.00
H221   H     0.42611   0.98814   0.74997   0.00000  Uiso   1.00
O222   O     0.91791   0.37280   0.81738   0.00000  Uiso   1.00
O223   O     0.91563   0.40042   0.94193   0.00000  Uiso   1.00
O224   O     0.44963   0.12598   0.81076   0.00000  Uiso   1.00
N225   N     0.78693   0.45874   0.86726   0.00000  Uiso   1.00
N226   N     0.07269   0.47840   0.95602   0.00000  Uiso   1.00
N227   N     0.45319   0.99544   0.86255   0.00000  Uiso   1.00
N228   N     0.76721   0.43653   0.79008   0.00000  Uiso   1.00
N229   N     0.05297   0.45619   0.87884   0.00000  Uiso   1.00
N230   N     0.43347   0.97323   0.78537   0.00000  Uiso   1.00
C231   C     0.56744   0.53150   0.57617   0.00000  Uiso   1.00
C232   C     0.64165   0.59394   0.60088   0.00000  Uiso   1.00
C233   C     0.74578   0.62449   0.57988   0.00000  Uiso   1.00
C234   C     0.80042   0.68118   0.60850   0.00000  Uiso   1.00
C235   C     0.92291   0.77434   0.63957   0.00000  Uiso   1.00
C236   C     0.46256   0.58466   0.57677   0.00000  Uiso   1.00
C237   C     0.41611   0.60740   0.53550   0.00000  Uiso   1.00
C238   C     0.31999   0.65627   0.54384   0.00000  Uiso   1.00
C239   C     0.16439   0.73497   0.53748   0.00000  Uiso   1.00
C240   C     0.53771   0.44768   0.61129   0.00000  Uiso   1.00
C241   C     0.55442   0.35523   0.59905   0.00000  Uiso   1.00
C242   C     0.52154   0.28877   0.63645   0.00000  Uiso   1.00
C243   C     0.48262   0.15478   0.68370   0.00000  Uiso   1.00
C244   C     0.47930   0.57785   0.66435   0.00000  Uiso   1.00
C245   C     0.59377   0.61911   0.64877   0.00000  Uiso   1.00
C246   C     0.64827   0.67577   0.67744   0.00000  Uiso   1.00
C247   C     0.75247   0.70640   0.65649   0.00000  Uiso   1.00
C248   C     0.41468   0.60984   0.62466   0.00000  Uiso   1.00
C249   C     0.31860   0.65868   0.63306   0.00000  Uiso   1.00
C250   C     0.27203   0.68149   0.59182   0.00000  Uiso   1.00
C251   C     0.48983   0.47285   0.65919   0.00000  Uiso   1.00
C252   C     0.45691   0.40652   0.69662   0.00000  Uiso   1.00
C253   C     0.47357   0.31399   0.68444   0.00000  Uiso   1.00
H254   H     0.60470   0.51190   0.53888   0.00000  Uiso   1.00
H255   H     0.78280   0.60500   0.54281   0.00000  Uiso   1.00
H256   H     0.45317   0.58790   0.49844   0.00000  Uiso   1.00
H257   H     0.59147   0.33578   0.56198   0.00000  Uiso   1.00
H258   H     0.95912   0.71934   0.56828   0.00000  Uiso   1.00
H259   H     0.26407   0.68326   0.47473   0.00000  Uiso   1.00
H260   H     0.55568   0.15161   0.60872   0.00000  Uiso   1.00
H261   H     0.44202   0.59745   0.70164   0.00000  Uiso   1.00
H262   H     0.61120   0.69524   0.71450   0.00000  Uiso   1.00
H263   H     0.28157   0.67815   0.67013   0.00000  Uiso   1.00
H264   H     0.41986   0.42602   0.73368   0.00000  Uiso   1.00
H265   H     0.81984   0.79259   0.70763   0.00000  Uiso   1.00
H266   H     0.12479   0.75651   0.61408   0.00000  Uiso   1.00
H267   H     0.41640   0.22486   0.74807   0.00000  Uiso   1.00
O268   O     0.00369   0.81877   0.64347   0.00000  Uiso   1.00
O269   O     0.09181   0.77143   0.52074   0.00000  Uiso   1.00
O270   O     0.47440   0.07391   0.69653   0.00000  Uiso   1.00
N271   N     0.90314   0.72314   0.59931   0.00000  Uiso   1.00
N272   N     0.25331   0.68943   0.51185   0.00000  Uiso   1.00
N273   N     0.52592   0.19237   0.63712   0.00000  Uiso   1.00
N274   N     0.82819   0.76256   0.67430   0.00000  Uiso   1.00
N275   N     0.17837   0.72884   0.58683   0.00000  Uiso   1.00
N276   N     0.45097   0.23179   0.71210   0.00000  Uiso   1.00
C277   C     0.99998   0.12905   0.58609   0.00000  Uiso   1.00
C278   C     0.90485   0.07359   0.61611   0.00000  Uiso   1.00
C279   C     0.81481   0.03944   0.59802   0.00000  Uiso   1.00
C280   C     0.73662   0.99039   0.63142   0.00000  Uiso   1.00
C281   C     0.58717   0.90641   0.67048   0.00000  Uiso   1.00
C282   C     0.10197   0.07564   0.59155   0.00000  Uiso   1.00
C283   C     0.17767   0.04323   0.55280   0.00000  Uiso   1.00
C284   C     0.26543   0.99592   0.56553   0.00000  Uiso   1.00
C285   C     0.42206   0.91519   0.56644   0.00000  Uiso   1.00
C286   C     0.00769   0.21984   0.61330   0.00000  Uiso   1.00
C287   C     0.00415   0.30868   0.59284   0.00000  Uiso   1.00
C288   C     0.01254   0.38278   0.62387   0.00000  Uiso   1.00
C289   C     0.02279   0.52594   0.65856   0.00000  Uiso   1.00
C290   C     0.02123   0.10268   0.67758   0.00000  Uiso   1.00
C291   C     0.91640   0.05927   0.66581   0.00000  Uiso   1.00
C292   C     0.83831   0.01026   0.69925   0.00000  Uiso   1.00
C293   C     0.74817   0.97605   0.68121   0.00000  Uiso   1.00
C294   C     0.11352   0.06132   0.64124   0.00000  Uiso   1.00
C295   C     0.20118   0.01405   0.65403   0.00000  Uiso   1.00
C296   C     0.27699   0.98157   0.61531   0.00000  Uiso   1.00
C297   C     0.01923   0.20552   0.66300   0.00000  Uiso   1.00
C298   C     0.02765   0.27950   0.69407   0.00000  Uiso   1.00
C299   C     0.02411   0.36843   0.67366   0.00000  Uiso   1.00
H300   H     0.99100   0.14020   0.54740   0.00000  Uiso   1.00
H301   H     0.80591   0.05053   0.55956   0.00000  Uiso   1.00
H302   H     0.16873   0.05433   0.51435   0.00000  Uiso   1.00
H303   H     0.99522   0.31974   0.55438   0.00000  Uiso   1.00
H304   H     0.60581   0.94477   0.59495   0.00000  Uiso   1.00
H305   H     0.37084   0.95281   0.49962   0.00000  Uiso   1.00
H306   H     0.00497   0.51247   0.58403   0.00000  Uiso   1.00
H307   H     0.03022   0.09153   0.71628   0.00000  Uiso   1.00
H308   H     0.84727   0.99919   0.73770   0.00000  Uiso   1.00
H309   H     0.21009   0.00299   0.69249   0.00000  Uiso   1.00
H310   H     0.03658   0.26839   0.73252   0.00000  Uiso   1.00
H311   H     0.63938   0.90309   0.73954   0.00000  Uiso   1.00
H312   H     0.40442   0.91114   0.64421   0.00000  Uiso   1.00
H313   H     0.03854   0.47080   0.72862   0.00000  Uiso   1.00
O314   O     0.50156   0.86404   0.67829   0.00000  Uiso   1.00
O315   O     0.50526   0.87460   0.55322   0.00000  Uiso   1.00
O316   O     0.02523   0.60887   0.66397   0.00000  Uiso   1.00
N317   N     0.63881   0.94765   0.62604   0.00000  Uiso   1.00
N318   N     0.35406   0.95515   0.53691   0.00000  Uiso   1.00
N319   N     0.01203   0.47839   0.61583   0.00000  Uiso   1.00
N320   N     0.65687   0.92522   0.70384   0.00000  Uiso   1.00
N321   N     0.37212   0.93273   0.61472   0.00000  Uiso   1.00
N322   N     0.03009   0.45597   0.69363   0.00000  Uiso   1.00
C323   C     0.91771   0.98542   0.91468   0.00000  Uiso   1.00
C324   C     0.84598   0.05500   0.89335   0.00000  Uiso   1.00
C325   C     0.74385   0.08225   0.91625   0.00000  Uiso   1.00
C326   C     0.69131   0.14670   0.89065   0.00000  Uiso   1.00
C327   C     0.57265   0.24931   0.86466   0.00000  Uiso   1.00
C328   C     0.02562   0.03639   0.91550   0.00000  Uiso   1.00
C329   C     0.07453   0.04798   0.95704   0.00000  Uiso   1.00
C330   C     0.17321   0.09676   0.95008   0.00000  Uiso   1.00
C331   C     0.33349   0.17043   0.95849   0.00000  Uiso   1.00
C332   C     0.94206   0.91011   0.87610   0.00000  Uiso   1.00
C333   C     0.92074   0.81551   0.88450   0.00000  Uiso   1.00
C334   C     0.94910   0.75796   0.84436   0.00000  Uiso   1.00
C335   C     0.97964   0.63556   0.79159   0.00000  Uiso   1.00
C336   C     0.00602   0.05142   0.82846   0.00000  Uiso   1.00
C337   C     0.89395   0.09085   0.84652   0.00000  Uiso   1.00
C338   C     0.84155   0.15526   0.82087   0.00000  Uiso   1.00
C339   C     0.73935   0.18260   0.84373   0.00000  Uiso   1.00
C340   C     0.07358   0.07224   0.86868   0.00000  Uiso   1.00
C341   C     0.17223   0.12100   0.86166   0.00000  Uiso   1.00
C342   C     0.22127   0.13267   0.90317   0.00000  Uiso   1.00
C343   C     0.99002   0.94595   0.82927   0.00000  Uiso   1.00
C344   C     0.01844   0.88853   0.78911   0.00000  Uiso   1.00
C345   C     0.99716   0.79387   0.79745   0.00000  Uiso   1.00
H346   H     0.88037   0.95752   0.95113   0.00000  Uiso   1.00
H347   H     0.70676   0.05450   0.95249   0.00000  Uiso   1.00
H348   H     0.03739   0.02023   0.99327   0.00000  Uiso   1.00
H349   H     0.88362   0.78780   0.92074   0.00000  Uiso   1.00
H350   H     0.53544   0.17786   0.93336   0.00000  Uiso   1.00
H351   H     0.23262   0.10557   0.01934   0.00000  Uiso   1.00
H352   H     0.90837   0.61544   0.86640   0.00000  Uiso   1.00
H353   H     0.04337   0.07932   0.79200   0.00000  Uiso   1.00
H354   H     0.87869   0.18299   0.78463   0.00000  Uiso   1.00
H355   H     0.20932   0.14872   0.82541   0.00000  Uiso   1.00
H356   H     0.05555   0.91629   0.75288   0.00000  Uiso   1.00
H357   H     0.67499   0.28215   0.79712   0.00000  Uiso   1.00
H358   H     0.37217   0.20986   0.88310   0.00000  Uiso   1.00
H359   H     0.04792   0.71974   0.73016   0.00000  Uiso   1.00
O360   O     0.49396   0.29602   0.86327   0.00000  Uiso   1.00
O361   O     0.40864   0.20117   0.97607   0.00000  Uiso   1.00
O362   O     0.98322   0.55814   0.77541   0.00000  Uiso   1.00
N363   N     0.59087   0.18816   0.90230   0.00000  Uiso   1.00
N364   N     0.24269   0.12059   0.98269   0.00000  Uiso   1.00
N365   N     0.93956   0.66236   0.83971   0.00000  Uiso   1.00
N366   N     0.66596   0.24428   0.82899   0.00000  Uiso   1.00
N367   N     0.31777   0.17671   0.90938   0.00000  Uiso   1.00
N368   N     0.01465   0.71848   0.76640   0.00000  Uiso   1.00
