data_job_05186
_audit_creation_date              2018-12-19
_audit_creation_method            'Materials Studio'
_symmetry_space_group_name_H-M    'P1'
_symmetry_Int_Tables_number       1
_symmetry_cell_setting            triclinic
loop_
_symmetry_equiv_pos_as_xyz
  x,y,z
_cell_length_a                    12.2891
_cell_length_b                    23.1607
_cell_length_c                    21.2765
_cell_angle_alpha                 90.0000
_cell_angle_beta                  90.0000
_cell_angle_gamma                 90.0000
loop_
_atom_site_label
_atom_site_type_symbol
_atom_site_fract_x
_atom_site_fract_y
_atom_site_fract_z
_atom_site_U_iso_or_equiv
_atom_site_adp_type
_atom_site_occupancy
C1     C     0.35529   0.83177   0.11582   0.00000  Uiso   1.00
C2     C     0.31843   0.83098   0.04739   0.00000  Uiso   1.00
C3     C     0.21140   0.82863   0.02675   0.00000  Uiso   1.00
C4     C     0.19462   0.82827   0.96223   0.00000  Uiso   1.00
C5     C     0.12413   0.82672   0.86241   0.00000  Uiso   1.00
C6     C     0.43283   0.78083   0.12332   0.00000  Uiso   1.00
C7     C     0.42197   0.73631   0.16653   0.00000  Uiso   1.00
C8     C     0.50150   0.69374   0.16593   0.00000  Uiso   1.00
C9     C     0.60865   0.61435   0.18402   0.00000  Uiso   1.00
C10    C     0.42465   0.88592   0.12336   0.00000  Uiso   1.00
C11    C     0.40694   0.92977   0.16662   0.00000  Uiso   1.00
C12    C     0.47960   0.97568   0.16606   0.00000  Uiso   1.00
C13    C     0.57404   0.05947   0.18422   0.00000  Uiso   1.00
C14    C     0.51584   0.83531   0.03790   0.00000  Uiso   1.00
C15    C     0.40564   0.83290   0.00507   0.00000  Uiso   1.00
C16    C     0.38903   0.83255   0.94055   0.00000  Uiso   1.00
C17    C     0.28198   0.83020   0.91983   0.00000  Uiso   1.00
C18    C     0.52003   0.78275   0.08100   0.00000  Uiso   1.00
C19    C     0.59960   0.74023   0.08033   0.00000  Uiso   1.00
C20    C     0.58887   0.69567   0.12353   0.00000  Uiso   1.00
C21    C     0.51185   0.88785   0.08104   0.00000  Uiso   1.00
C22    C     0.58456   0.93369   0.08041   0.00000  Uiso   1.00
C23    C     0.56696   0.97760   0.12366   0.00000  Uiso   1.00
H24    H     0.28741   0.83027   0.14877   0.00000  Uiso   1.00
H25    H     0.14393   0.82714   0.05952   0.00000  Uiso   1.00
H26    H     0.35449   0.73484   0.19928   0.00000  Uiso   1.00
H27    H     0.33945   0.92827   0.19936   0.00000  Uiso   1.00
H28    H     0.02333   0.82449   0.94191   0.00000  Uiso   1.00
H29    H     0.46730   0.62989   0.23662   0.00000  Uiso   1.00
H30    H     0.43559   0.03777   0.23679   0.00000  Uiso   1.00
H31    H     0.58374   0.83681   0.00495   0.00000  Uiso   1.00
H32    H     0.45653   0.83404   0.90781   0.00000  Uiso   1.00
H33    H     0.66708   0.74174   0.04757   0.00000  Uiso   1.00
H34    H     0.65204   0.93517   0.04766   0.00000  Uiso   1.00
H35    H     0.27704   0.83009   0.81878   0.00000  Uiso   1.00
H36    H     0.72102   0.63548   0.11349   0.00000  Uiso   1.00
H37    H     0.68930   0.04337   0.11366   0.00000  Uiso   1.00
O38    O     0.06115   0.82533   0.81904   0.00000  Uiso   1.00
O39    O     0.64364   0.57002   0.20569   0.00000  Uiso   1.00
O40    O     0.60203   0.10516   0.20592   0.00000  Uiso   1.00
N41    N     0.10050   0.82620   0.92626   0.00000  Uiso   1.00
N42    N     0.51558   0.64425   0.20179   0.00000  Uiso   1.00
N43    N     0.48595   0.02558   0.20196   0.00000  Uiso   1.00
N44    N     0.23702   0.82921   0.86001   0.00000  Uiso   1.00
N45    N     0.65210   0.64726   0.13553   0.00000  Uiso   1.00
N46    N     0.62247   0.02860   0.13571   0.00000  Uiso   1.00
C47    C     0.14471   0.66823   0.11582   0.00000  Uiso   1.00
C48    C     0.18157   0.66902   0.04739   0.00000  Uiso   1.00
C49    C     0.28860   0.67137   0.02675   0.00000  Uiso   1.00
C50    C     0.30538   0.67173   0.96223   0.00000  Uiso   1.00
C51    C     0.37587   0.67328   0.86241   0.00000  Uiso   1.00
C52    C     0.06717   0.71917   0.12332   0.00000  Uiso   1.00
C53    C     0.07803   0.76369   0.16653   0.00000  Uiso   1.00
C54    C     0.99850   0.80626   0.16593   0.00000  Uiso   1.00
C55    C     0.89135   0.88565   0.18402   0.00000  Uiso   1.00
C56    C     0.07535   0.61408   0.12336   0.00000  Uiso   1.00
C57    C     0.09306   0.57023   0.16662   0.00000  Uiso   1.00
C58    C     0.02040   0.52432   0.16606   0.00000  Uiso   1.00
C59    C     0.92596   0.44053   0.18422   0.00000  Uiso   1.00
C60    C     0.98416   0.66469   0.03790   0.00000  Uiso   1.00
C61    C     0.09436   0.66710   0.00507   0.00000  Uiso   1.00
C62    C     0.11097   0.66745   0.94055   0.00000  Uiso   1.00
C63    C     0.21802   0.66980   0.91983   0.00000  Uiso   1.00
C64    C     0.97997   0.71725   0.08100   0.00000  Uiso   1.00
C65    C     0.90040   0.75977   0.08033   0.00000  Uiso   1.00
C66    C     0.91113   0.80433   0.12353   0.00000  Uiso   1.00
C67    C     0.98815   0.61215   0.08104   0.00000  Uiso   1.00
C68    C     0.91544   0.56631   0.08041   0.00000  Uiso   1.00
C69    C     0.93304   0.52240   0.12366   0.00000  Uiso   1.00
H70    H     0.21259   0.66973   0.14877   0.00000  Uiso   1.00
H71    H     0.35607   0.67286   0.05952   0.00000  Uiso   1.00
H72    H     0.14551   0.76516   0.19928   0.00000  Uiso   1.00
H73    H     0.16055   0.57173   0.19936   0.00000  Uiso   1.00
H74    H     0.47667   0.67551   0.94191   0.00000  Uiso   1.00
H75    H     0.03270   0.87011   0.23662   0.00000  Uiso   1.00
H76    H     0.06441   0.46223   0.23679   0.00000  Uiso   1.00
H77    H     0.91626   0.66319   0.00495   0.00000  Uiso   1.00
H78    H     0.04347   0.66596   0.90781   0.00000  Uiso   1.00
H79    H     0.83292   0.75826   0.04757   0.00000  Uiso   1.00
H80    H     0.84796   0.56483   0.04766   0.00000  Uiso   1.00
H81    H     0.22296   0.66991   0.81878   0.00000  Uiso   1.00
H82    H     0.77898   0.86452   0.11349   0.00000  Uiso   1.00
H83    H     0.81070   0.45663   0.11366   0.00000  Uiso   1.00
O84    O     0.43885   0.67467   0.81904   0.00000  Uiso   1.00
O85    O     0.85636   0.92998   0.20569   0.00000  Uiso   1.00
O86    O     0.89797   0.39484   0.20592   0.00000  Uiso   1.00
N87    N     0.39950   0.67380   0.92626   0.00000  Uiso   1.00
N88    N     0.98442   0.85575   0.20179   0.00000  Uiso   1.00
N89    N     0.01405   0.47442   0.20196   0.00000  Uiso   1.00
N90    N     0.26298   0.67079   0.86001   0.00000  Uiso   1.00
N91    N     0.84790   0.85274   0.13553   0.00000  Uiso   1.00
N92    N     0.87753   0.47140   0.13571   0.00000  Uiso   1.00
C93    C     0.64471   0.33177   0.38418   0.00000  Uiso   1.00
C94    C     0.68157   0.33098   0.45261   0.00000  Uiso   1.00
C95    C     0.78860   0.32863   0.47325   0.00000  Uiso   1.00
C96    C     0.80538   0.32827   0.53777   0.00000  Uiso   1.00
C97    C     0.87587   0.32672   0.63759   0.00000  Uiso   1.00
C98    C     0.56717   0.28083   0.37668   0.00000  Uiso   1.00
C99    C     0.57803   0.23631   0.33347   0.00000  Uiso   1.00
C100   C     0.49850   0.19374   0.33407   0.00000  Uiso   1.00
C101   C     0.39135   0.11435   0.31598   0.00000  Uiso   1.00
C102   C     0.57535   0.38592   0.37664   0.00000  Uiso   1.00
C103   C     0.59306   0.42977   0.33338   0.00000  Uiso   1.00
C104   C     0.52040   0.47568   0.33394   0.00000  Uiso   1.00
C105   C     0.42596   0.55947   0.31578   0.00000  Uiso   1.00
C106   C     0.48416   0.33531   0.46210   0.00000  Uiso   1.00
C107   C     0.59436   0.33290   0.49493   0.00000  Uiso   1.00
C108   C     0.61097   0.33255   0.55945   0.00000  Uiso   1.00
C109   C     0.71802   0.33020   0.58017   0.00000  Uiso   1.00
C110   C     0.47997   0.28275   0.41900   0.00000  Uiso   1.00
C111   C     0.40040   0.24023   0.41967   0.00000  Uiso   1.00
C112   C     0.41113   0.19567   0.37647   0.00000  Uiso   1.00
C113   C     0.48815   0.38785   0.41896   0.00000  Uiso   1.00
C114   C     0.41544   0.43369   0.41959   0.00000  Uiso   1.00
C115   C     0.43304   0.47760   0.37634   0.00000  Uiso   1.00
H116   H     0.71259   0.33027   0.35123   0.00000  Uiso   1.00
H117   H     0.85607   0.32714   0.44048   0.00000  Uiso   1.00
H118   H     0.64551   0.23484   0.30072   0.00000  Uiso   1.00
H119   H     0.66055   0.42827   0.30064   0.00000  Uiso   1.00
H120   H     0.97667   0.32449   0.55809   0.00000  Uiso   1.00
H121   H     0.53270   0.12989   0.26338   0.00000  Uiso   1.00
H122   H     0.56441   0.53777   0.26321   0.00000  Uiso   1.00
H123   H     0.41626   0.33681   0.49505   0.00000  Uiso   1.00
H124   H     0.54347   0.33404   0.59219   0.00000  Uiso   1.00
H125   H     0.33292   0.24174   0.45243   0.00000  Uiso   1.00
H126   H     0.34796   0.43517   0.45234   0.00000  Uiso   1.00
H127   H     0.72296   0.33009   0.68122   0.00000  Uiso   1.00
H128   H     0.27898   0.13548   0.38651   0.00000  Uiso   1.00
H129   H     0.31070   0.54337   0.38634   0.00000  Uiso   1.00
O130   O     0.93885   0.32533   0.68096   0.00000  Uiso   1.00
O131   O     0.35636   0.07002   0.29431   0.00000  Uiso   1.00
O132   O     0.39797   0.60516   0.29408   0.00000  Uiso   1.00
N133   N     0.89950   0.32620   0.57374   0.00000  Uiso   1.00
N134   N     0.48442   0.14425   0.29821   0.00000  Uiso   1.00
N135   N     0.51405   0.52558   0.29804   0.00000  Uiso   1.00
N136   N     0.76298   0.32921   0.63999   0.00000  Uiso   1.00
N137   N     0.34790   0.14726   0.36447   0.00000  Uiso   1.00
N138   N     0.37753   0.52860   0.36429   0.00000  Uiso   1.00
C139   C     0.85529   0.16823   0.38418   0.00000  Uiso   1.00
C140   C     0.81843   0.16902   0.45261   0.00000  Uiso   1.00
C141   C     0.71140   0.17137   0.47325   0.00000  Uiso   1.00
C142   C     0.69462   0.17173   0.53777   0.00000  Uiso   1.00
C143   C     0.62413   0.17328   0.63759   0.00000  Uiso   1.00
C144   C     0.93283   0.21917   0.37668   0.00000  Uiso   1.00
C145   C     0.92197   0.26369   0.33347   0.00000  Uiso   1.00
C146   C     0.00150   0.30626   0.33407   0.00000  Uiso   1.00
C147   C     0.10865   0.38565   0.31598   0.00000  Uiso   1.00
C148   C     0.92465   0.11408   0.37664   0.00000  Uiso   1.00
C149   C     0.90694   0.07023   0.33338   0.00000  Uiso   1.00
C150   C     0.97960   0.02432   0.33394   0.00000  Uiso   1.00
C151   C     0.07404   0.94053   0.31578   0.00000  Uiso   1.00
C152   C     0.01584   0.16469   0.46210   0.00000  Uiso   1.00
C153   C     0.90564   0.16710   0.49493   0.00000  Uiso   1.00
C154   C     0.88903   0.16745   0.55945   0.00000  Uiso   1.00
C155   C     0.78198   0.16980   0.58017   0.00000  Uiso   1.00
C156   C     0.02003   0.21725   0.41900   0.00000  Uiso   1.00
C157   C     0.09960   0.25977   0.41967   0.00000  Uiso   1.00
C158   C     0.08887   0.30433   0.37647   0.00000  Uiso   1.00
C159   C     0.01185   0.11215   0.41896   0.00000  Uiso   1.00
C160   C     0.08456   0.06631   0.41959   0.00000  Uiso   1.00
C161   C     0.06696   0.02240   0.37634   0.00000  Uiso   1.00
H162   H     0.78741   0.16973   0.35123   0.00000  Uiso   1.00
H163   H     0.64393   0.17286   0.44048   0.00000  Uiso   1.00
H164   H     0.85449   0.26516   0.30072   0.00000  Uiso   1.00
H165   H     0.83945   0.07173   0.30064   0.00000  Uiso   1.00
H166   H     0.52333   0.17551   0.55809   0.00000  Uiso   1.00
H167   H     0.96730   0.37011   0.26338   0.00000  Uiso   1.00
H168   H     0.93559   0.96223   0.26321   0.00000  Uiso   1.00
H169   H     0.08374   0.16319   0.49505   0.00000  Uiso   1.00
H170   H     0.95653   0.16596   0.59219   0.00000  Uiso   1.00
H171   H     0.16708   0.25826   0.45243   0.00000  Uiso   1.00
H172   H     0.15204   0.06483   0.45234   0.00000  Uiso   1.00
H173   H     0.77704   0.16991   0.68122   0.00000  Uiso   1.00
H174   H     0.22102   0.36452   0.38651   0.00000  Uiso   1.00
H175   H     0.18930   0.95663   0.38634   0.00000  Uiso   1.00
O176   O     0.56115   0.17467   0.68096   0.00000  Uiso   1.00
O177   O     0.14364   0.42998   0.29431   0.00000  Uiso   1.00
O178   O     0.10203   0.89484   0.29408   0.00000  Uiso   1.00
N179   N     0.60050   0.17380   0.57374   0.00000  Uiso   1.00
N180   N     0.01558   0.35575   0.29821   0.00000  Uiso   1.00
N181   N     0.98595   0.97442   0.29804   0.00000  Uiso   1.00
N182   N     0.73702   0.17079   0.63999   0.00000  Uiso   1.00
N183   N     0.15210   0.35274   0.36447   0.00000  Uiso   1.00
N184   N     0.12247   0.97140   0.36429   0.00000  Uiso   1.00
C185   C     0.64471   0.16823   0.88418   0.00000  Uiso   1.00
C186   C     0.68157   0.16902   0.95261   0.00000  Uiso   1.00
C187   C     0.78860   0.17137   0.97325   0.00000  Uiso   1.00
C188   C     0.80538   0.17173   0.03777   0.00000  Uiso   1.00
C189   C     0.87587   0.17328   0.13759   0.00000  Uiso   1.00
C190   C     0.56717   0.21917   0.87668   0.00000  Uiso   1.00
C191   C     0.57803   0.26369   0.83347   0.00000  Uiso   1.00
C192   C     0.49850   0.30626   0.83407   0.00000  Uiso   1.00
C193   C     0.39135   0.38565   0.81598   0.00000  Uiso   1.00
C194   C     0.57535   0.11408   0.87664   0.00000  Uiso   1.00
C195   C     0.59306   0.07023   0.83338   0.00000  Uiso   1.00
C196   C     0.52040   0.02432   0.83394   0.00000  Uiso   1.00
C197   C     0.42596   0.94053   0.81578   0.00000  Uiso   1.00
C198   C     0.48416   0.16469   0.96210   0.00000  Uiso   1.00
C199   C     0.59436   0.16710   0.99493   0.00000  Uiso   1.00
C200   C     0.61097   0.16745   0.05945   0.00000  Uiso   1.00
C201   C     0.71802   0.16980   0.08017   0.00000  Uiso   1.00
C202   C     0.47997   0.21725   0.91900   0.00000  Uiso   1.00
C203   C     0.40040   0.25977   0.91967   0.00000  Uiso   1.00
C204   C     0.41113   0.30433   0.87647   0.00000  Uiso   1.00
C205   C     0.48815   0.11215   0.91896   0.00000  Uiso   1.00
C206   C     0.41544   0.06631   0.91959   0.00000  Uiso   1.00
C207   C     0.43304   0.02240   0.87634   0.00000  Uiso   1.00
H208   H     0.71259   0.16973   0.85123   0.00000  Uiso   1.00
H209   H     0.85607   0.17286   0.94048   0.00000  Uiso   1.00
H210   H     0.64551   0.26516   0.80072   0.00000  Uiso   1.00
H211   H     0.66055   0.07173   0.80064   0.00000  Uiso   1.00
H212   H     0.97667   0.17551   0.05809   0.00000  Uiso   1.00
H213   H     0.53270   0.37011   0.76338   0.00000  Uiso   1.00
H214   H     0.56441   0.96223   0.76321   0.00000  Uiso   1.00
H215   H     0.41626   0.16319   0.99505   0.00000  Uiso   1.00
H216   H     0.54347   0.16596   0.09219   0.00000  Uiso   1.00
H217   H     0.33292   0.25826   0.95243   0.00000  Uiso   1.00
H218   H     0.34796   0.06483   0.95234   0.00000  Uiso   1.00
H219   H     0.72296   0.16991   0.18122   0.00000  Uiso   1.00
H220   H     0.27898   0.36452   0.88651   0.00000  Uiso   1.00
H221   H     0.31070   0.95663   0.88634   0.00000  Uiso   1.00
O222   O     0.93885   0.17467   0.18096   0.00000  Uiso   1.00
O223   O     0.35636   0.42998   0.79431   0.00000  Uiso   1.00
O224   O     0.39797   0.89484   0.79408   0.00000  Uiso   1.00
N225   N     0.89950   0.17380   0.07374   0.00000  Uiso   1.00
N226   N     0.48442   0.35575   0.79821   0.00000  Uiso   1.00
N227   N     0.51405   0.97442   0.79804   0.00000  Uiso   1.00
N228   N     0.76298   0.17079   0.13999   0.00000  Uiso   1.00
N229   N     0.34790   0.35274   0.86447   0.00000  Uiso   1.00
N230   N     0.37753   0.97140   0.86429   0.00000  Uiso   1.00
C231   C     0.85529   0.33177   0.88418   0.00000  Uiso   1.00
C232   C     0.81843   0.33098   0.95261   0.00000  Uiso   1.00
C233   C     0.71140   0.32863   0.97325   0.00000  Uiso   1.00
C234   C     0.69462   0.32827   0.03777   0.00000  Uiso   1.00
C235   C     0.62413   0.32672   0.13759   0.00000  Uiso   1.00
C236   C     0.93283   0.28083   0.87668   0.00000  Uiso   1.00
C237   C     0.92197   0.23631   0.83347   0.00000  Uiso   1.00
C238   C     0.00150   0.19374   0.83407   0.00000  Uiso   1.00
C239   C     0.10865   0.11435   0.81598   0.00000  Uiso   1.00
C240   C     0.92465   0.38592   0.87664   0.00000  Uiso   1.00
C241   C     0.90694   0.42977   0.83338   0.00000  Uiso   1.00
C242   C     0.97960   0.47568   0.83394   0.00000  Uiso   1.00
C243   C     0.07404   0.55947   0.81578   0.00000  Uiso   1.00
C244   C     0.01584   0.33531   0.96210   0.00000  Uiso   1.00
C245   C     0.90564   0.33290   0.99493   0.00000  Uiso   1.00
C246   C     0.88903   0.33255   0.05945   0.00000  Uiso   1.00
C247   C     0.78198   0.33020   0.08017   0.00000  Uiso   1.00
C248   C     0.02003   0.28275   0.91900   0.00000  Uiso   1.00
C249   C     0.09960   0.24023   0.91967   0.00000  Uiso   1.00
C250   C     0.08887   0.19567   0.87647   0.00000  Uiso   1.00
C251   C     0.01185   0.38785   0.91896   0.00000  Uiso   1.00
C252   C     0.08456   0.43369   0.91959   0.00000  Uiso   1.00
C253   C     0.06696   0.47760   0.87634   0.00000  Uiso   1.00
H254   H     0.78741   0.33027   0.85123   0.00000  Uiso   1.00
H255   H     0.64393   0.32714   0.94048   0.00000  Uiso   1.00
H256   H     0.85449   0.23484   0.80072   0.00000  Uiso   1.00
H257   H     0.83945   0.42827   0.80064   0.00000  Uiso   1.00
H258   H     0.52333   0.32449   0.05809   0.00000  Uiso   1.00
H259   H     0.96730   0.12989   0.76338   0.00000  Uiso   1.00
H260   H     0.93559   0.53777   0.76321   0.00000  Uiso   1.00
H261   H     0.08374   0.33681   0.99505   0.00000  Uiso   1.00
H262   H     0.95653   0.33404   0.09219   0.00000  Uiso   1.00
H263   H     0.16708   0.24174   0.95243   0.00000  Uiso   1.00
H264   H     0.15204   0.43517   0.95234   0.00000  Uiso   1.00
H265   H     0.77704   0.33009   0.18122   0.00000  Uiso   1.00
H266   H     0.22102   0.13548   0.88651   0.00000  Uiso   1.00
H267   H     0.18930   0.54337   0.88634   0.00000  Uiso   1.00
O268   O     0.56115   0.32533   0.18096   0.00000  Uiso   1.00
O269   O     0.14364   0.07002   0.79431   0.00000  Uiso   1.00
O270   O     0.10203   0.60516   0.79408   0.00000  Uiso   1.00
N271   N     0.60050   0.32620   0.07374   0.00000  Uiso   1.00
N272   N     0.01558   0.14425   0.79821   0.00000  Uiso   1.00
N273   N     0.98595   0.52558   0.79804   0.00000  Uiso   1.00
N274   N     0.73702   0.32921   0.13999   0.00000  Uiso   1.00
N275   N     0.15210   0.14726   0.86447   0.00000  Uiso   1.00
N276   N     0.12247   0.52860   0.86429   0.00000  Uiso   1.00
C277   C     0.35529   0.66823   0.61582   0.00000  Uiso   1.00
C278   C     0.31843   0.66902   0.54739   0.00000  Uiso   1.00
C279   C     0.21140   0.67137   0.52675   0.00000  Uiso   1.00
C280   C     0.19462   0.67173   0.46223   0.00000  Uiso   1.00
C281   C     0.12413   0.67328   0.36241   0.00000  Uiso   1.00
C282   C     0.43283   0.71917   0.62332   0.00000  Uiso   1.00
C283   C     0.42197   0.76369   0.66653   0.00000  Uiso   1.00
C284   C     0.50150   0.80626   0.66593   0.00000  Uiso   1.00
C285   C     0.60865   0.88565   0.68402   0.00000  Uiso   1.00
C286   C     0.42465   0.61408   0.62336   0.00000  Uiso   1.00
C287   C     0.40694   0.57023   0.66662   0.00000  Uiso   1.00
C288   C     0.47960   0.52432   0.66606   0.00000  Uiso   1.00
C289   C     0.57404   0.44053   0.68422   0.00000  Uiso   1.00
C290   C     0.51584   0.66469   0.53790   0.00000  Uiso   1.00
C291   C     0.40564   0.66710   0.50507   0.00000  Uiso   1.00
C292   C     0.38903   0.66745   0.44055   0.00000  Uiso   1.00
C293   C     0.28198   0.66980   0.41983   0.00000  Uiso   1.00
C294   C     0.52003   0.71725   0.58100   0.00000  Uiso   1.00
C295   C     0.59960   0.75977   0.58033   0.00000  Uiso   1.00
C296   C     0.58887   0.80433   0.62353   0.00000  Uiso   1.00
C297   C     0.51185   0.61215   0.58104   0.00000  Uiso   1.00
C298   C     0.58456   0.56631   0.58041   0.00000  Uiso   1.00
C299   C     0.56696   0.52240   0.62366   0.00000  Uiso   1.00
H300   H     0.28741   0.66973   0.64877   0.00000  Uiso   1.00
H301   H     0.14393   0.67286   0.55952   0.00000  Uiso   1.00
H302   H     0.35449   0.76516   0.69928   0.00000  Uiso   1.00
H303   H     0.33945   0.57173   0.69936   0.00000  Uiso   1.00
H304   H     0.02333   0.67551   0.44191   0.00000  Uiso   1.00
H305   H     0.46730   0.87011   0.73662   0.00000  Uiso   1.00
H306   H     0.43559   0.46223   0.73679   0.00000  Uiso   1.00
H307   H     0.58374   0.66319   0.50495   0.00000  Uiso   1.00
H308   H     0.45653   0.66596   0.40781   0.00000  Uiso   1.00
H309   H     0.66708   0.75826   0.54757   0.00000  Uiso   1.00
H310   H     0.65204   0.56483   0.54766   0.00000  Uiso   1.00
H311   H     0.27704   0.66991   0.31878   0.00000  Uiso   1.00
H312   H     0.72102   0.86452   0.61349   0.00000  Uiso   1.00
H313   H     0.68930   0.45663   0.61366   0.00000  Uiso   1.00
O314   O     0.06115   0.67467   0.31904   0.00000  Uiso   1.00
O315   O     0.64364   0.92998   0.70569   0.00000  Uiso   1.00
O316   O     0.60203   0.39484   0.70592   0.00000  Uiso   1.00
N317   N     0.10050   0.67380   0.42626   0.00000  Uiso   1.00
N318   N     0.51558   0.85575   0.70179   0.00000  Uiso   1.00
N319   N     0.48595   0.47442   0.70196   0.00000  Uiso   1.00
N320   N     0.23702   0.67079   0.36001   0.00000  Uiso   1.00
N321   N     0.65210   0.85274   0.63553   0.00000  Uiso   1.00
N322   N     0.62247   0.47140   0.63571   0.00000  Uiso   1.00
C323   C     0.14471   0.83177   0.61582   0.00000  Uiso   1.00
C324   C     0.18157   0.83098   0.54739   0.00000  Uiso   1.00
C325   C     0.28860   0.82863   0.52675   0.00000  Uiso   1.00
C326   C     0.30538   0.82827   0.46223   0.00000  Uiso   1.00
C327   C     0.37587   0.82672   0.36241   0.00000  Uiso   1.00
C328   C     0.06717   0.78083   0.62332   0.00000  Uiso   1.00
C329   C     0.07803   0.73631   0.66653   0.00000  Uiso   1.00
C330   C     0.99850   0.69374   0.66593   0.00000  Uiso   1.00
C331   C     0.89135   0.61435   0.68402   0.00000  Uiso   1.00
C332   C     0.07535   0.88592   0.62336   0.00000  Uiso   1.00
C333   C     0.09306   0.92977   0.66662   0.00000  Uiso   1.00
C334   C     0.02040   0.97568   0.66606   0.00000  Uiso   1.00
C335   C     0.92596   0.05947   0.68422   0.00000  Uiso   1.00
C336   C     0.98416   0.83531   0.53790   0.00000  Uiso   1.00
C337   C     0.09436   0.83290   0.50507   0.00000  Uiso   1.00
C338   C     0.11097   0.83255   0.44055   0.00000  Uiso   1.00
C339   C     0.21802   0.83020   0.41983   0.00000  Uiso   1.00
C340   C     0.97997   0.78275   0.58100   0.00000  Uiso   1.00
C341   C     0.90040   0.74023   0.58033   0.00000  Uiso   1.00
C342   C     0.91113   0.69567   0.62353   0.00000  Uiso   1.00
C343   C     0.98815   0.88785   0.58104   0.00000  Uiso   1.00
C344   C     0.91544   0.93369   0.58041   0.00000  Uiso   1.00
C345   C     0.93304   0.97760   0.62366   0.00000  Uiso   1.00
H346   H     0.21259   0.83027   0.64877   0.00000  Uiso   1.00
H347   H     0.35607   0.82714   0.55952   0.00000  Uiso   1.00
H348   H     0.14551   0.73484   0.69928   0.00000  Uiso   1.00
H349   H     0.16055   0.92827   0.69936   0.00000  Uiso   1.00
H350   H     0.47667   0.82449   0.44191   0.00000  Uiso   1.00
H351   H     0.03270   0.62989   0.73662   0.00000  Uiso   1.00
H352   H     0.06441   0.03777   0.73679   0.00000  Uiso   1.00
H353   H     0.91626   0.83681   0.50495   0.00000  Uiso   1.00
H354   H     0.04347   0.83404   0.40781   0.00000  Uiso   1.00
H355   H     0.83292   0.74174   0.54757   0.00000  Uiso   1.00
H356   H     0.84796   0.93517   0.54766   0.00000  Uiso   1.00
H357   H     0.22296   0.83009   0.31878   0.00000  Uiso   1.00
H358   H     0.77898   0.63548   0.61349   0.00000  Uiso   1.00
H359   H     0.81070   0.04337   0.61366   0.00000  Uiso   1.00
O360   O     0.43885   0.82533   0.31904   0.00000  Uiso   1.00
O361   O     0.85636   0.57002   0.70569   0.00000  Uiso   1.00
O362   O     0.89797   0.10516   0.70592   0.00000  Uiso   1.00
N363   N     0.39950   0.82620   0.42626   0.00000  Uiso   1.00
N364   N     0.98442   0.64425   0.70179   0.00000  Uiso   1.00
N365   N     0.01405   0.02558   0.70196   0.00000  Uiso   1.00
N366   N     0.26298   0.82921   0.36001   0.00000  Uiso   1.00
N367   N     0.84790   0.64726   0.63553   0.00000  Uiso   1.00
N368   N     0.87753   0.02860   0.63571   0.00000  Uiso   1.00
