data_job_02025
_audit_creation_date              2018-12-19
_audit_creation_method            'Materials Studio'
_symmetry_space_group_name_H-M    'P1'
_symmetry_Int_Tables_number       1
_symmetry_cell_setting            triclinic
loop_
_symmetry_equiv_pos_as_xyz
  x,y,z
_cell_length_a                    10.1604
_cell_length_b                    7.3436
_cell_length_c                    37.9095
_cell_angle_alpha                 90.0000
_cell_angle_beta                  84.6919
_cell_angle_gamma                 90.0000
loop_
_atom_site_label
_atom_site_type_symbol
_atom_site_fract_x
_atom_site_fract_y
_atom_site_fract_z
_atom_site_U_iso_or_equiv
_atom_site_adp_type
_atom_site_occupancy
C1     C     0.55916   0.58042   0.14336   0.00000  Uiso   1.00
C2     C     0.44387   0.71329   0.14921   0.00000  Uiso   1.00
C3     C     0.31144   0.67056   0.14773   0.00000  Uiso   1.00
C4     C     0.22104   0.81138   0.15386   0.00000  Uiso   1.00
C5     C     0.03583   0.99076   0.16181   0.00000  Uiso   1.00
C6     C     0.65231   0.66073   0.11351   0.00000  Uiso   1.00
C7     C     0.69515   0.57379   0.08202   0.00000  Uiso   1.00
C8     C     0.78022   0.67037   0.05809   0.00000  Uiso   1.00
C9     C     0.91870   0.76810   0.01064   0.00000  Uiso   1.00
C10    C     0.63266   0.59071   0.17659   0.00000  Uiso   1.00
C11    C     0.65901   0.44489   0.19814   0.00000  Uiso   1.00
C12    C     0.72757   0.48250   0.22732   0.00000  Uiso   1.00
C13    C     0.83553   0.47151   0.27781   0.00000  Uiso   1.00
C14    C     0.63409   0.90650   0.15686   0.00000  Uiso   1.00
C15    C     0.48457   0.89040   0.15654   0.00000  Uiso   1.00
C16    C     0.39434   0.03132   0.16267   0.00000  Uiso   1.00
C17    C     0.26180   0.98880   0.16121   0.00000  Uiso   1.00
C18    C     0.69301   0.83784   0.12084   0.00000  Uiso   1.00
C19    C     0.77804   0.93455   0.09696   0.00000  Uiso   1.00
C20    C     0.82099   0.84780   0.06544   0.00000  Uiso   1.00
C21    C     0.67335   0.76782   0.18393   0.00000  Uiso   1.00
C22    C     0.74190   0.80565   0.21308   0.00000  Uiso   1.00
C23    C     0.76834   0.65992   0.23467   0.00000  Uiso   1.00
H24    H     0.52748   0.44254   0.13764   0.00000  Uiso   1.00
H25    H     0.27999   0.53348   0.14205   0.00000  Uiso   1.00
H26    H     0.66365   0.43673   0.07635   0.00000  Uiso   1.00
H27    H     0.62750   0.30785   0.19246   0.00000  Uiso   1.00
H28    H     0.02355   0.71243   0.15016   0.00000  Uiso   1.00
H29    H     0.83254   0.50840   0.01164   0.00000  Uiso   1.00
H30    H     0.75633   0.23662   0.25646   0.00000  Uiso   1.00
H31    H     0.66578   0.04439   0.16257   0.00000  Uiso   1.00
H32    H     0.42586   0.16836   0.16835   0.00000  Uiso   1.00
H33    H     0.80952   0.07161   0.10265   0.00000  Uiso   1.00
H34    H     0.77338   0.94273   0.21875   0.00000  Uiso   1.00
H35    H     0.14195   0.22773   0.17150   0.00000  Uiso   1.00
H36    H     0.95095   0.02369   0.03298   0.00000  Uiso   1.00
H37    H     0.87473   0.75192   0.27780   0.00000  Uiso   1.00
O38    O     0.92243   0.04079   0.16417   0.00000  Uiso   1.00
O39    O     0.98382   0.77309   0.98243   0.00000  Uiso   1.00
O40    O     0.88382   0.41653   0.30364   0.00000  Uiso   1.00
N41    N     0.08434   0.81669   0.15440   0.00000  Uiso   1.00
N42    N     0.84068   0.62594   0.02488   0.00000  Uiso   1.00
N43    N     0.76946   0.37184   0.25377   0.00000  Uiso   1.00
N44    N     0.14804   0.09396   0.16588   0.00000  Uiso   1.00
N45    N     0.90439   0.90321   0.03637   0.00000  Uiso   1.00
N46    N     0.83317   0.64911   0.26525   0.00000  Uiso   1.00
C47    C     0.44084   0.58042   0.35664   0.00000  Uiso   1.00
C48    C     0.55613   0.71329   0.35079   0.00000  Uiso   1.00
C49    C     0.68856   0.67056   0.35227   0.00000  Uiso   1.00
C50    C     0.77896   0.81138   0.34614   0.00000  Uiso   1.00
C51    C     0.96417   0.99076   0.33819   0.00000  Uiso   1.00
C52    C     0.34769   0.66073   0.38649   0.00000  Uiso   1.00
C53    C     0.30485   0.57379   0.41798   0.00000  Uiso   1.00
C54    C     0.21978   0.67037   0.44191   0.00000  Uiso   1.00
C55    C     0.08130   0.76810   0.48936   0.00000  Uiso   1.00
C56    C     0.36734   0.59071   0.32341   0.00000  Uiso   1.00
C57    C     0.34099   0.44489   0.30186   0.00000  Uiso   1.00
C58    C     0.27243   0.48250   0.27268   0.00000  Uiso   1.00
C59    C     0.16447   0.47151   0.22219   0.00000  Uiso   1.00
C60    C     0.36591   0.90650   0.34314   0.00000  Uiso   1.00
C61    C     0.51543   0.89040   0.34346   0.00000  Uiso   1.00
C62    C     0.60566   0.03132   0.33733   0.00000  Uiso   1.00
C63    C     0.73820   0.98880   0.33879   0.00000  Uiso   1.00
C64    C     0.30699   0.83784   0.37916   0.00000  Uiso   1.00
C65    C     0.22196   0.93455   0.40304   0.00000  Uiso   1.00
C66    C     0.17901   0.84780   0.43456   0.00000  Uiso   1.00
C67    C     0.32665   0.76782   0.31607   0.00000  Uiso   1.00
C68    C     0.25810   0.80565   0.28692   0.00000  Uiso   1.00
C69    C     0.23166   0.65992   0.26533   0.00000  Uiso   1.00
H70    H     0.47252   0.44254   0.36236   0.00000  Uiso   1.00
H71    H     0.72001   0.53348   0.35795   0.00000  Uiso   1.00
H72    H     0.33635   0.43673   0.42365   0.00000  Uiso   1.00
H73    H     0.37250   0.30785   0.30754   0.00000  Uiso   1.00
H74    H     0.97645   0.71243   0.34984   0.00000  Uiso   1.00
H75    H     0.16746   0.50840   0.48836   0.00000  Uiso   1.00
H76    H     0.24367   0.23662   0.24354   0.00000  Uiso   1.00
H77    H     0.33422   0.04439   0.33743   0.00000  Uiso   1.00
H78    H     0.57414   0.16836   0.33165   0.00000  Uiso   1.00
H79    H     0.19048   0.07161   0.39735   0.00000  Uiso   1.00
H80    H     0.22662   0.94273   0.28125   0.00000  Uiso   1.00
H81    H     0.85805   0.22773   0.32850   0.00000  Uiso   1.00
H82    H     0.04905   0.02369   0.46702   0.00000  Uiso   1.00
H83    H     0.12527   0.75192   0.22220   0.00000  Uiso   1.00
O84    O     0.07757   0.04079   0.33583   0.00000  Uiso   1.00
O85    O     0.01618   0.77309   0.51757   0.00000  Uiso   1.00
O86    O     0.11618   0.41653   0.19636   0.00000  Uiso   1.00
N87    N     0.91566   0.81669   0.34560   0.00000  Uiso   1.00
N88    N     0.15932   0.62594   0.47512   0.00000  Uiso   1.00
N89    N     0.23054   0.37184   0.24623   0.00000  Uiso   1.00
N90    N     0.85196   0.09396   0.33412   0.00000  Uiso   1.00
N91    N     0.09561   0.90321   0.46363   0.00000  Uiso   1.00
N92    N     0.16683   0.64911   0.23475   0.00000  Uiso   1.00
C93    C     0.44084   0.41958   0.85664   0.00000  Uiso   1.00
C94    C     0.55613   0.28671   0.85079   0.00000  Uiso   1.00
C95    C     0.68856   0.32944   0.85227   0.00000  Uiso   1.00
C96    C     0.77896   0.18862   0.84614   0.00000  Uiso   1.00
C97    C     0.96417   0.00924   0.83819   0.00000  Uiso   1.00
C98    C     0.34769   0.33927   0.88649   0.00000  Uiso   1.00
C99    C     0.30485   0.42621   0.91798   0.00000  Uiso   1.00
C100   C     0.21978   0.32963   0.94191   0.00000  Uiso   1.00
C101   C     0.08130   0.23190   0.98936   0.00000  Uiso   1.00
C102   C     0.36734   0.40929   0.82341   0.00000  Uiso   1.00
C103   C     0.34099   0.55511   0.80186   0.00000  Uiso   1.00
C104   C     0.27243   0.51750   0.77268   0.00000  Uiso   1.00
C105   C     0.16447   0.52849   0.72219   0.00000  Uiso   1.00
C106   C     0.36591   0.09350   0.84314   0.00000  Uiso   1.00
C107   C     0.51543   0.10960   0.84346   0.00000  Uiso   1.00
C108   C     0.60566   0.96868   0.83733   0.00000  Uiso   1.00
C109   C     0.73820   0.01120   0.83879   0.00000  Uiso   1.00
C110   C     0.30699   0.16216   0.87916   0.00000  Uiso   1.00
C111   C     0.22196   0.06545   0.90304   0.00000  Uiso   1.00
C112   C     0.17901   0.15220   0.93456   0.00000  Uiso   1.00
C113   C     0.32665   0.23218   0.81607   0.00000  Uiso   1.00
C114   C     0.25810   0.19435   0.78692   0.00000  Uiso   1.00
C115   C     0.23166   0.34008   0.76533   0.00000  Uiso   1.00
H116   H     0.47252   0.55746   0.86236   0.00000  Uiso   1.00
H117   H     0.72001   0.46652   0.85795   0.00000  Uiso   1.00
H118   H     0.33635   0.56327   0.92365   0.00000  Uiso   1.00
H119   H     0.37250   0.69215   0.80754   0.00000  Uiso   1.00
H120   H     0.97645   0.28757   0.84984   0.00000  Uiso   1.00
H121   H     0.16746   0.49160   0.98836   0.00000  Uiso   1.00
H122   H     0.24367   0.76338   0.74354   0.00000  Uiso   1.00
H123   H     0.33422   0.95561   0.83743   0.00000  Uiso   1.00
H124   H     0.57414   0.83164   0.83165   0.00000  Uiso   1.00
H125   H     0.19048   0.92839   0.89735   0.00000  Uiso   1.00
H126   H     0.22662   0.05727   0.78125   0.00000  Uiso   1.00
H127   H     0.85805   0.77227   0.82850   0.00000  Uiso   1.00
H128   H     0.04905   0.97631   0.96702   0.00000  Uiso   1.00
H129   H     0.12527   0.24808   0.72220   0.00000  Uiso   1.00
O130   O     0.07757   0.95921   0.83583   0.00000  Uiso   1.00
O131   O     0.01618   0.22691   0.01757   0.00000  Uiso   1.00
O132   O     0.11618   0.58347   0.69636   0.00000  Uiso   1.00
N133   N     0.91566   0.18331   0.84560   0.00000  Uiso   1.00
N134   N     0.15932   0.37406   0.97512   0.00000  Uiso   1.00
N135   N     0.23054   0.62816   0.74623   0.00000  Uiso   1.00
N136   N     0.85196   0.90604   0.83412   0.00000  Uiso   1.00
N137   N     0.09561   0.09679   0.96363   0.00000  Uiso   1.00
N138   N     0.16683   0.35089   0.73475   0.00000  Uiso   1.00
C139   C     0.55916   0.41958   0.64336   0.00000  Uiso   1.00
C140   C     0.44387   0.28671   0.64921   0.00000  Uiso   1.00
C141   C     0.31144   0.32944   0.64773   0.00000  Uiso   1.00
C142   C     0.22104   0.18862   0.65386   0.00000  Uiso   1.00
C143   C     0.03583   0.00924   0.66181   0.00000  Uiso   1.00
C144   C     0.65231   0.33927   0.61351   0.00000  Uiso   1.00
C145   C     0.69515   0.42621   0.58202   0.00000  Uiso   1.00
C146   C     0.78022   0.32963   0.55809   0.00000  Uiso   1.00
C147   C     0.91870   0.23190   0.51064   0.00000  Uiso   1.00
C148   C     0.63266   0.40929   0.67659   0.00000  Uiso   1.00
C149   C     0.65901   0.55511   0.69814   0.00000  Uiso   1.00
C150   C     0.72757   0.51750   0.72732   0.00000  Uiso   1.00
C151   C     0.83553   0.52849   0.77781   0.00000  Uiso   1.00
C152   C     0.63409   0.09350   0.65686   0.00000  Uiso   1.00
C153   C     0.48457   0.10960   0.65654   0.00000  Uiso   1.00
C154   C     0.39434   0.96868   0.66267   0.00000  Uiso   1.00
C155   C     0.26180   0.01120   0.66121   0.00000  Uiso   1.00
C156   C     0.69301   0.16216   0.62084   0.00000  Uiso   1.00
C157   C     0.77804   0.06545   0.59696   0.00000  Uiso   1.00
C158   C     0.82099   0.15220   0.56544   0.00000  Uiso   1.00
C159   C     0.67335   0.23218   0.68393   0.00000  Uiso   1.00
C160   C     0.74190   0.19435   0.71308   0.00000  Uiso   1.00
C161   C     0.76834   0.34008   0.73467   0.00000  Uiso   1.00
H162   H     0.52748   0.55746   0.63764   0.00000  Uiso   1.00
H163   H     0.27999   0.46652   0.64205   0.00000  Uiso   1.00
H164   H     0.66365   0.56327   0.57635   0.00000  Uiso   1.00
H165   H     0.62750   0.69215   0.69246   0.00000  Uiso   1.00
H166   H     0.02355   0.28757   0.65016   0.00000  Uiso   1.00
H167   H     0.83254   0.49160   0.51164   0.00000  Uiso   1.00
H168   H     0.75633   0.76338   0.75646   0.00000  Uiso   1.00
H169   H     0.66578   0.95561   0.66257   0.00000  Uiso   1.00
H170   H     0.42586   0.83164   0.66835   0.00000  Uiso   1.00
H171   H     0.80952   0.92839   0.60265   0.00000  Uiso   1.00
H172   H     0.77338   0.05727   0.71875   0.00000  Uiso   1.00
H173   H     0.14195   0.77227   0.67150   0.00000  Uiso   1.00
H174   H     0.95095   0.97631   0.53298   0.00000  Uiso   1.00
H175   H     0.87473   0.24808   0.77780   0.00000  Uiso   1.00
O176   O     0.92243   0.95921   0.66417   0.00000  Uiso   1.00
O177   O     0.98382   0.22691   0.48243   0.00000  Uiso   1.00
O178   O     0.88382   0.58347   0.80364   0.00000  Uiso   1.00
N179   N     0.08434   0.18331   0.65440   0.00000  Uiso   1.00
N180   N     0.84068   0.37406   0.52488   0.00000  Uiso   1.00
N181   N     0.76946   0.62816   0.75377   0.00000  Uiso   1.00
N182   N     0.14804   0.90604   0.66588   0.00000  Uiso   1.00
N183   N     0.90439   0.09679   0.53637   0.00000  Uiso   1.00
N184   N     0.83317   0.35089   0.76525   0.00000  Uiso   1.00
