data_job_06249
_audit_creation_date              2018-12-19
_audit_creation_method            'Materials Studio'
_symmetry_space_group_name_H-M    'P1'
_symmetry_Int_Tables_number       1
_symmetry_cell_setting            triclinic
loop_
_symmetry_equiv_pos_as_xyz
  x,y,z
_cell_length_a                    21.6053
_cell_length_b                    21.9894
_cell_length_c                    22.1192
_cell_angle_alpha                 70.1165
_cell_angle_beta                  108.2350
_cell_angle_gamma                 70.6500
loop_
_atom_site_label
_atom_site_type_symbol
_atom_site_fract_x
_atom_site_fract_y
_atom_site_fract_z
_atom_site_U_iso_or_equiv
_atom_site_adp_type
_atom_site_occupancy
C1     C     0.60767   0.31116   0.90951   0.00000  Uiso   1.00
C2     C     0.61718   0.37428   0.86495   0.00000  Uiso   1.00
C3     C     0.62389   0.42764   0.88219   0.00000  Uiso   1.00
C4     C     0.63213   0.48074   0.83441   0.00000  Uiso   1.00
C5     C     0.64663   0.57882   0.77474   0.00000  Uiso   1.00
C6     C     0.53618   0.31898   0.85716   0.00000  Uiso   1.00
C7     C     0.47479   0.32583   0.86787   0.00000  Uiso   1.00
C8     C     0.41484   0.33236   0.81354   0.00000  Uiso   1.00
C9     C     0.30362   0.34453   0.74181   0.00000  Uiso   1.00
C10    C     0.67148   0.23982   0.92725   0.00000  Uiso   1.00
C11    C     0.72385   0.18010   0.99689   0.00000  Uiso   1.00
C12    C     0.77781   0.11997   0.00157   0.00000  Uiso   1.00
C13    C     0.87666   0.00923   0.03867   0.00000  Uiso   1.00
C14    C     0.61035   0.31056   0.79399   0.00000  Uiso   1.00
C15    C     0.61864   0.37396   0.80220   0.00000  Uiso   1.00
C16    C     0.62686   0.42698   0.75438   0.00000  Uiso   1.00
C17    C     0.63359   0.48041   0.77155   0.00000  Uiso   1.00
C18    C     0.53763   0.31865   0.79442   0.00000  Uiso   1.00
C19    C     0.47776   0.32517   0.74006   0.00000  Uiso   1.00
C20    C     0.41630   0.33203   0.75068   0.00000  Uiso   1.00
C21    C     0.67294   0.23949   0.86451   0.00000  Uiso   1.00
C22    C     0.72682   0.17944   0.86908   0.00000  Uiso   1.00
C23    C     0.77927   0.11964   0.93871   0.00000  Uiso   1.00
H24    H     0.60653   0.31141   0.95836   0.00000  Uiso   1.00
H25    H     0.62276   0.42788   0.93075   0.00000  Uiso   1.00
H26    H     0.47368   0.32607   0.91644   0.00000  Uiso   1.00
H27    H     0.72271   0.18037   0.04544   0.00000  Uiso   1.00
H28    H     0.64136   0.55687   0.87246   0.00000  Uiso   1.00
H29    H     0.32704   0.34219   0.84228   0.00000  Uiso   1.00
H30    H     0.85216   0.03494   0.11431   0.00000  Uiso   1.00
H31    H     0.61149   0.31031   0.74514   0.00000  Uiso   1.00
H32    H     0.62799   0.42671   0.70583   0.00000  Uiso   1.00
H33    H     0.47891   0.32491   0.69152   0.00000  Uiso   1.00
H34    H     0.72793   0.17921   0.82051   0.00000  Uiso   1.00
H35    H     0.64560   0.55593   0.68990   0.00000  Uiso   1.00
H36    H     0.33128   0.34124   0.65973   0.00000  Uiso   1.00
H37    H     0.85640   0.03400   0.93175   0.00000  Uiso   1.00
O38    O     0.65422   0.63301   0.75916   0.00000  Uiso   1.00
O39    O     0.24186   0.35134   0.71958   0.00000  Uiso   1.00
O40    O     0.93079   0.94824   0.07646   0.00000  Uiso   1.00
N41    N     0.64011   0.54067   0.83490   0.00000  Uiso   1.00
N42    N     0.34624   0.33996   0.80668   0.00000  Uiso   1.00
N43    N     0.83716   0.05270   0.06100   0.00000  Uiso   1.00
N44    N     0.64239   0.54016   0.73666   0.00000  Uiso   1.00
N45    N     0.34852   0.33945   0.70845   0.00000  Uiso   1.00
N46    N     0.83944   0.05219   0.96276   0.00000  Uiso   1.00
C47    C     0.30657   0.07991   0.21889   0.00000  Uiso   1.00
C48    C     0.37048   0.00842   0.23700   0.00000  Uiso   1.00
C49    C     0.42274   0.94890   0.30678   0.00000  Uiso   1.00
C50    C     0.47684   0.88861   0.31181   0.00000  Uiso   1.00
C51    C     0.57585   0.77773   0.34945   0.00000  Uiso   1.00
C52    C     0.31619   0.14287   0.17422   0.00000  Uiso   1.00
C53    C     0.32279   0.19641   0.19121   0.00000  Uiso   1.00
C54    C     0.33117   0.24932   0.14337   0.00000  Uiso   1.00
C55    C     0.34583   0.34721   0.08352   0.00000  Uiso   1.00
C56    C     0.23518   0.08758   0.16653   0.00000  Uiso   1.00
C57    C     0.17365   0.09465   0.17704   0.00000  Uiso   1.00
C58    C     0.11382   0.10101   0.12272   0.00000  Uiso   1.00
C59    C     0.00271   0.11305   0.05092   0.00000  Uiso   1.00
C60    C     0.30970   0.07867   0.10373   0.00000  Uiso   1.00
C61    C     0.37218   0.00775   0.17445   0.00000  Uiso   1.00
C62    C     0.42621   0.94753   0.17937   0.00000  Uiso   1.00
C63    C     0.47854   0.88794   0.24914   0.00000  Uiso   1.00
C64    C     0.31789   0.14220   0.11167   0.00000  Uiso   1.00
C65    C     0.32626   0.19504   0.06380   0.00000  Uiso   1.00
C66    C     0.33287   0.24864   0.08071   0.00000  Uiso   1.00
C67    C     0.23688   0.08691   0.10398   0.00000  Uiso   1.00
C68    C     0.17713   0.09327   0.04963   0.00000  Uiso   1.00
C69    C     0.11553   0.10034   0.06006   0.00000  Uiso   1.00
H70    H     0.30524   0.08043   0.26759   0.00000  Uiso   1.00
H71    H     0.42141   0.94945   0.35517   0.00000  Uiso   1.00
H72    H     0.32146   0.19692   0.23961   0.00000  Uiso   1.00
H73    H     0.17236   0.09517   0.22545   0.00000  Uiso   1.00
H74    H     0.55098   0.80394   0.42470   0.00000  Uiso   1.00
H75    H     0.34020   0.32577   0.18102   0.00000  Uiso   1.00
H76    H     0.02578   0.11120   0.15115   0.00000  Uiso   1.00
H77    H     0.31103   0.07814   0.05503   0.00000  Uiso   1.00
H78    H     0.42752   0.94703   0.13096   0.00000  Uiso   1.00
H79    H     0.32757   0.19450   0.01540   0.00000  Uiso   1.00
H80    H     0.17847   0.09275   0.00123   0.00000  Uiso   1.00
H81    H     0.55593   0.80198   0.24271   0.00000  Uiso   1.00
H82    H     0.34516   0.32381   0.99903   0.00000  Uiso   1.00
H83    H     0.03074   0.10924   0.96917   0.00000  Uiso   1.00
O84    O     0.63000   0.71676   0.38749   0.00000  Uiso   1.00
O85    O     0.35345   0.40139   0.06779   0.00000  Uiso   1.00
O86    O     0.94095   0.11987   0.02861   0.00000  Uiso   1.00
N87    N     0.53615   0.82147   0.37145   0.00000  Uiso   1.00
N88    N     0.33910   0.30934   0.14363   0.00000  Uiso   1.00
N89    N     0.04514   0.10875   0.11570   0.00000  Uiso   1.00
N90    N     0.53881   0.82041   0.27352   0.00000  Uiso   1.00
N91    N     0.34177   0.30828   0.04571   0.00000  Uiso   1.00
N92    N     0.04780   0.10770   0.01777   0.00000  Uiso   1.00
C93    C     0.07430   0.61293   0.29808   0.00000  Uiso   1.00
C94    C     0.00276   0.62064   0.24594   0.00000  Uiso   1.00
C95    C     0.94143   0.62761   0.25679   0.00000  Uiso   1.00
C96    C     0.88143   0.63400   0.20266   0.00000  Uiso   1.00
C97    C     0.77015   0.64602   0.13126   0.00000  Uiso   1.00
C98    C     0.13807   0.54148   0.31594   0.00000  Uiso   1.00
C99    C     0.19051   0.48190   0.38563   0.00000  Uiso   1.00
C100   C     0.24442   0.42166   0.39042   0.00000  Uiso   1.00
C101   C     0.34325   0.31081   0.42769   0.00000  Uiso   1.00
C102   C     0.08378   0.67593   0.25326   0.00000  Uiso   1.00
C103   C     0.09060   0.72940   0.27026   0.00000  Uiso   1.00
C104   C     0.09882   0.78234   0.22227   0.00000  Uiso   1.00
C105   C     0.11335   0.88025   0.16222   0.00000  Uiso   1.00
C106   C     0.07678   0.61188   0.18265   0.00000  Uiso   1.00
C107   C     0.00411   0.62007   0.18325   0.00000  Uiso   1.00
C108   C     0.94418   0.62645   0.12908   0.00000  Uiso   1.00
C109   C     0.88278   0.63343   0.13985   0.00000  Uiso   1.00
C110   C     0.13942   0.54091   0.25324   0.00000  Uiso   1.00
C111   C     0.19327   0.48074   0.25792   0.00000  Uiso   1.00
C112   C     0.24578   0.42108   0.32761   0.00000  Uiso   1.00
C113   C     0.08513   0.67536   0.19056   0.00000  Uiso   1.00
C114   C     0.09334   0.72823   0.14254   0.00000  Uiso   1.00
C115   C     0.10017   0.78177   0.15947   0.00000  Uiso   1.00
H116   H     0.07325   0.61337   0.34689   0.00000  Uiso   1.00
H117   H     0.94041   0.62804   0.30532   0.00000  Uiso   1.00
H118   H     0.18946   0.48236   0.43414   0.00000  Uiso   1.00
H119   H     0.08955   0.72982   0.31878   0.00000  Uiso   1.00
H120   H     0.79374   0.64404   0.23160   0.00000  Uiso   1.00
H121   H     0.31888   0.33687   0.50322   0.00000  Uiso   1.00
H122   H     0.10822   0.85868   0.25996   0.00000  Uiso   1.00
H123   H     0.07784   0.61143   0.13383   0.00000  Uiso   1.00
H124   H     0.94525   0.62600   0.08057   0.00000  Uiso   1.00
H125   H     0.19430   0.48032   0.20939   0.00000  Uiso   1.00
H126   H     0.09439   0.72778   0.09403   0.00000  Uiso   1.00
H127   H     0.79767   0.64237   0.04918   0.00000  Uiso   1.00
H128   H     0.32282   0.33521   0.32081   0.00000  Uiso   1.00
H129   H     0.11214   0.85702   0.07754   0.00000  Uiso   1.00
O130   O     0.70841   0.65280   0.10921   0.00000  Uiso   1.00
O131   O     0.39739   0.24982   0.46557   0.00000  Uiso   1.00
O132   O     0.12099   0.93442   0.14641   0.00000  Uiso   1.00
N133   N     0.81285   0.64166   0.19597   0.00000  Uiso   1.00
N134   N     0.30383   0.35447   0.44992   0.00000  Uiso   1.00
N135   N     0.10689   0.84231   0.22250   0.00000  Uiso   1.00
N136   N     0.81497   0.64077   0.09781   0.00000  Uiso   1.00
N137   N     0.30594   0.35358   0.35176   0.00000  Uiso   1.00
N138   N     0.10900   0.84142   0.12435   0.00000  Uiso   1.00
C139   C     0.39233   0.68884   0.09049   0.00000  Uiso   1.00
C140   C     0.38282   0.62572   0.13505   0.00000  Uiso   1.00
C141   C     0.37611   0.57236   0.11781   0.00000  Uiso   1.00
C142   C     0.36787   0.51927   0.16559   0.00000  Uiso   1.00
C143   C     0.35337   0.42119   0.22526   0.00000  Uiso   1.00
C144   C     0.46382   0.68102   0.14283   0.00000  Uiso   1.00
C145   C     0.52521   0.67417   0.13213   0.00000  Uiso   1.00
C146   C     0.58516   0.66764   0.18646   0.00000  Uiso   1.00
C147   C     0.69638   0.65547   0.25819   0.00000  Uiso   1.00
C148   C     0.32852   0.76018   0.07275   0.00000  Uiso   1.00
C149   C     0.27615   0.81990   0.00311   0.00000  Uiso   1.00
C150   C     0.22219   0.88003   0.99843   0.00000  Uiso   1.00
C151   C     0.12334   0.99077   0.96133   0.00000  Uiso   1.00
C152   C     0.38965   0.68944   0.20601   0.00000  Uiso   1.00
C153   C     0.38136   0.62604   0.19780   0.00000  Uiso   1.00
C154   C     0.37314   0.57302   0.24562   0.00000  Uiso   1.00
C155   C     0.36641   0.51959   0.22844   0.00000  Uiso   1.00
C156   C     0.46237   0.68135   0.20558   0.00000  Uiso   1.00
C157   C     0.52224   0.67483   0.25994   0.00000  Uiso   1.00
C158   C     0.58370   0.66797   0.24932   0.00000  Uiso   1.00
C159   C     0.32706   0.76051   0.13549   0.00000  Uiso   1.00
C160   C     0.27318   0.82056   0.13092   0.00000  Uiso   1.00
C161   C     0.22073   0.88036   0.06129   0.00000  Uiso   1.00
H162   H     0.39347   0.68859   0.04164   0.00000  Uiso   1.00
H163   H     0.37724   0.57212   0.06925   0.00000  Uiso   1.00
H164   H     0.52632   0.67393   0.08356   0.00000  Uiso   1.00
H165   H     0.27729   0.81963   0.95456   0.00000  Uiso   1.00
H166   H     0.35864   0.44313   0.12754   0.00000  Uiso   1.00
H167   H     0.67296   0.65781   0.15772   0.00000  Uiso   1.00
H168   H     0.14784   0.96506   0.88569   0.00000  Uiso   1.00
H169   H     0.38851   0.68969   0.25486   0.00000  Uiso   1.00
H170   H     0.37201   0.57329   0.29417   0.00000  Uiso   1.00
H171   H     0.52109   0.67509   0.30848   0.00000  Uiso   1.00
H172   H     0.27207   0.82079   0.17949   0.00000  Uiso   1.00
H173   H     0.35440   0.44407   0.31010   0.00000  Uiso   1.00
H174   H     0.66872   0.65876   0.34027   0.00000  Uiso   1.00
H175   H     0.14360   0.96600   0.06825   0.00000  Uiso   1.00
O176   O     0.34578   0.36699   0.24084   0.00000  Uiso   1.00
O177   O     0.75814   0.64866   0.28042   0.00000  Uiso   1.00
O178   O     0.06921   0.05176   0.92354   0.00000  Uiso   1.00
N179   N     0.35989   0.45933   0.16510   0.00000  Uiso   1.00
N180   N     0.65376   0.66004   0.19332   0.00000  Uiso   1.00
N181   N     0.16284   0.94730   0.93900   0.00000  Uiso   1.00
N182   N     0.35761   0.45984   0.26334   0.00000  Uiso   1.00
N183   N     0.65148   0.66055   0.29155   0.00000  Uiso   1.00
N184   N     0.16056   0.94781   0.03724   0.00000  Uiso   1.00
C185   C     0.69343   0.92010   0.78111   0.00000  Uiso   1.00
C186   C     0.62952   0.99158   0.76300   0.00000  Uiso   1.00
C187   C     0.57726   0.05110   0.69322   0.00000  Uiso   1.00
C188   C     0.52316   0.11139   0.68819   0.00000  Uiso   1.00
C189   C     0.42415   0.22227   0.65055   0.00000  Uiso   1.00
C190   C     0.68381   0.85713   0.82578   0.00000  Uiso   1.00
C191   C     0.67721   0.80359   0.80879   0.00000  Uiso   1.00
C192   C     0.66883   0.75068   0.85663   0.00000  Uiso   1.00
C193   C     0.65417   0.65279   0.91648   0.00000  Uiso   1.00
C194   C     0.76482   0.91242   0.83347   0.00000  Uiso   1.00
C195   C     0.82634   0.90535   0.82296   0.00000  Uiso   1.00
C196   C     0.88618   0.89899   0.87728   0.00000  Uiso   1.00
C197   C     0.99729   0.88695   0.94908   0.00000  Uiso   1.00
C198   C     0.69030   0.92133   0.89627   0.00000  Uiso   1.00
C199   C     0.62782   0.99225   0.82555   0.00000  Uiso   1.00
C200   C     0.57379   0.05247   0.82063   0.00000  Uiso   1.00
C201   C     0.52146   0.11206   0.75086   0.00000  Uiso   1.00
C202   C     0.68211   0.85780   0.88833   0.00000  Uiso   1.00
C203   C     0.67374   0.80496   0.93620   0.00000  Uiso   1.00
C204   C     0.66713   0.75136   0.91929   0.00000  Uiso   1.00
C205   C     0.76312   0.91309   0.89602   0.00000  Uiso   1.00
C206   C     0.82287   0.90673   0.95037   0.00000  Uiso   1.00
C207   C     0.88447   0.89966   0.93994   0.00000  Uiso   1.00
H208   H     0.69476   0.91957   0.73241   0.00000  Uiso   1.00
H209   H     0.57859   0.05055   0.64482   0.00000  Uiso   1.00
H210   H     0.67854   0.80308   0.76039   0.00000  Uiso   1.00
H211   H     0.82764   0.90483   0.77455   0.00000  Uiso   1.00
H212   H     0.44902   0.19606   0.57530   0.00000  Uiso   1.00
H213   H     0.65980   0.67423   0.81898   0.00000  Uiso   1.00
H214   H     0.97422   0.88880   0.84885   0.00000  Uiso   1.00
H215   H     0.68897   0.92186   0.94497   0.00000  Uiso   1.00
H216   H     0.57248   0.05297   0.86904   0.00000  Uiso   1.00
H217   H     0.67243   0.80550   0.98460   0.00000  Uiso   1.00
H218   H     0.82153   0.90725   0.99877   0.00000  Uiso   1.00
H219   H     0.44407   0.19802   0.75729   0.00000  Uiso   1.00
H220   H     0.65484   0.67619   0.00097   0.00000  Uiso   1.00
H221   H     0.96926   0.89076   0.03083   0.00000  Uiso   1.00
O222   O     0.37000   0.28324   0.61251   0.00000  Uiso   1.00
O223   O     0.64655   0.59861   0.93221   0.00000  Uiso   1.00
O224   O     0.05905   0.88013   0.97139   0.00000  Uiso   1.00
N225   N     0.46385   0.17853   0.62855   0.00000  Uiso   1.00
N226   N     0.66090   0.69066   0.85637   0.00000  Uiso   1.00
N227   N     0.95486   0.89125   0.88430   0.00000  Uiso   1.00
N228   N     0.46119   0.17959   0.72648   0.00000  Uiso   1.00
N229   N     0.65823   0.69172   0.95429   0.00000  Uiso   1.00
N230   N     0.95220   0.89230   0.98223   0.00000  Uiso   1.00
C231   C     0.92570   0.38707   0.70192   0.00000  Uiso   1.00
C232   C     0.99724   0.37936   0.75406   0.00000  Uiso   1.00
C233   C     0.05857   0.37239   0.74321   0.00000  Uiso   1.00
C234   C     0.11857   0.36600   0.79734   0.00000  Uiso   1.00
C235   C     0.22985   0.35398   0.86874   0.00000  Uiso   1.00
C236   C     0.86193   0.45852   0.68406   0.00000  Uiso   1.00
C237   C     0.80949   0.51810   0.61437   0.00000  Uiso   1.00
C238   C     0.75558   0.57834   0.60958   0.00000  Uiso   1.00
C239   C     0.65675   0.68919   0.57231   0.00000  Uiso   1.00
C240   C     0.91622   0.32407   0.74674   0.00000  Uiso   1.00
C241   C     0.90940   0.27060   0.72974   0.00000  Uiso   1.00
C242   C     0.90118   0.21766   0.77773   0.00000  Uiso   1.00
C243   C     0.88665   0.11975   0.83778   0.00000  Uiso   1.00
C244   C     0.92321   0.38812   0.81735   0.00000  Uiso   1.00
C245   C     0.99589   0.37993   0.81675   0.00000  Uiso   1.00
C246   C     0.05582   0.37355   0.87092   0.00000  Uiso   1.00
C247   C     0.11722   0.36657   0.86015   0.00000  Uiso   1.00
C248   C     0.86058   0.45909   0.74676   0.00000  Uiso   1.00
C249   C     0.80673   0.51926   0.74208   0.00000  Uiso   1.00
C250   C     0.75422   0.57892   0.67239   0.00000  Uiso   1.00
C251   C     0.91487   0.32464   0.80944   0.00000  Uiso   1.00
C252   C     0.90666   0.27177   0.85746   0.00000  Uiso   1.00
C253   C     0.89983   0.21823   0.84053   0.00000  Uiso   1.00
H254   H     0.92675   0.38663   0.65311   0.00000  Uiso   1.00
H255   H     0.05959   0.37196   0.69468   0.00000  Uiso   1.00
H256   H     0.81054   0.51764   0.56586   0.00000  Uiso   1.00
H257   H     0.91045   0.27018   0.68122   0.00000  Uiso   1.00
H258   H     0.20626   0.35597   0.76840   0.00000  Uiso   1.00
H259   H     0.68111   0.66313   0.49678   0.00000  Uiso   1.00
H260   H     0.89178   0.14132   0.74004   0.00000  Uiso   1.00
H261   H     0.92216   0.38857   0.86617   0.00000  Uiso   1.00
H262   H     0.05475   0.37400   0.91943   0.00000  Uiso   1.00
H263   H     0.80570   0.51968   0.79061   0.00000  Uiso   1.00
H264   H     0.90561   0.27222   0.90597   0.00000  Uiso   1.00
H265   H     0.20233   0.35763   0.95082   0.00000  Uiso   1.00
H266   H     0.67718   0.66479   0.67919   0.00000  Uiso   1.00
H267   H     0.88786   0.14298   0.92246   0.00000  Uiso   1.00
O268   O     0.29159   0.34720   0.89079   0.00000  Uiso   1.00
O269   O     0.60261   0.75018   0.53443   0.00000  Uiso   1.00
O270   O     0.87901   0.06558   0.85359   0.00000  Uiso   1.00
N271   N     0.18715   0.35834   0.80403   0.00000  Uiso   1.00
N272   N     0.69617   0.64553   0.55008   0.00000  Uiso   1.00
N273   N     0.89311   0.15769   0.77750   0.00000  Uiso   1.00
N274   N     0.18503   0.35923   0.90219   0.00000  Uiso   1.00
N275   N     0.69406   0.64642   0.64824   0.00000  Uiso   1.00
N276   N     0.89100   0.15858   0.87565   0.00000  Uiso   1.00
