data_job_00696
_audit_creation_date              2018-12-19
_audit_creation_method            'Materials Studio'
_symmetry_space_group_name_H-M    'P1'
_symmetry_Int_Tables_number       1
_symmetry_cell_setting            triclinic
loop_
_symmetry_equiv_pos_as_xyz
  x,y,z
_cell_length_a                    12.3830
_cell_length_b                    9.8113
_cell_length_c                    22.4214
_cell_angle_alpha                 90.0000
_cell_angle_beta                  104.3040
_cell_angle_gamma                 90.0000
loop_
_atom_site_label
_atom_site_type_symbol
_atom_site_fract_x
_atom_site_fract_y
_atom_site_fract_z
_atom_site_U_iso_or_equiv
_atom_site_adp_type
_atom_site_occupancy
C1     C     0.28638   0.32464   0.64239   0.00000  Uiso   1.00
C2     C     0.38379   0.34153   0.61263   0.00000  Uiso   1.00
C3     C     0.45152   0.45569   0.61723   0.00000  Uiso   1.00
C4     C     0.53617   0.45118   0.58661   0.00000  Uiso   1.00
C5     C     0.68492   0.49487   0.54554   0.00000  Uiso   1.00
C6     C     0.18505   0.29181   0.59011   0.00000  Uiso   1.00
C7     C     0.08568   0.36417   0.57578   0.00000  Uiso   1.00
C8     C     0.00302   0.31779   0.52621   0.00000  Uiso   1.00
C9     C     0.84319   0.28423   0.45021   0.00000  Uiso   1.00
C10    C     0.31079   0.19597   0.68156   0.00000  Uiso   1.00
C11    C     0.31710   0.18773   0.74412   0.00000  Uiso   1.00
C12    C     0.34028   0.06064   0.77154   0.00000  Uiso   1.00
C13    C     0.37568   0.87828   0.83753   0.00000  Uiso   1.00
C14    C     0.31629   0.11361   0.57984   0.00000  Uiso   1.00
C15    C     0.40003   0.22690   0.57865   0.00000  Uiso   1.00
C16    C     0.48461   0.22221   0.54803   0.00000  Uiso   1.00
C17    C     0.55245   0.33635   0.55258   0.00000  Uiso   1.00
C18    C     0.20129   0.17719   0.55614   0.00000  Uiso   1.00
C19    C     0.11877   0.13069   0.50658   0.00000  Uiso   1.00
C20    C     0.01929   0.20296   0.49217   0.00000  Uiso   1.00
C21    C     0.32703   0.08134   0.64759   0.00000  Uiso   1.00
C22    C     0.35020   0.95425   0.67492   0.00000  Uiso   1.00
C23    C     0.35655   0.94581   0.73751   0.00000  Uiso   1.00
H24    H     0.27373   0.41388   0.66884   0.00000  Uiso   1.00
H25    H     0.43891   0.54439   0.64352   0.00000  Uiso   1.00
H26    H     0.07313   0.45286   0.60208   0.00000  Uiso   1.00
H27    H     0.30453   0.27645   0.77040   0.00000  Uiso   1.00
H28    H     0.62919   0.63855   0.60045   0.00000  Uiso   1.00
H29    H     0.85790   0.44553   0.51309   0.00000  Uiso   1.00
H30    H     0.34584   0.07354   0.86801   0.00000  Uiso   1.00
H31    H     0.32893   0.02436   0.55339   0.00000  Uiso   1.00
H32    H     0.49716   0.13349   0.52174   0.00000  Uiso   1.00
H33    H     0.13136   0.04197   0.48030   0.00000  Uiso   1.00
H34    H     0.36276   0.86556   0.64861   0.00000  Uiso   1.00
H35    H     0.67646   0.30505   0.50160   0.00000  Uiso   1.00
H36    H     0.90516   0.11204   0.41425   0.00000  Uiso   1.00
H37    H     0.39311   0.74004   0.76917   0.00000  Uiso   1.00
O38    O     0.76247   0.55064   0.53227   0.00000  Uiso   1.00
O39    O     0.75055   0.29740   0.41767   0.00000  Uiso   1.00
O40    O     0.39073   0.80935   0.88332   0.00000  Uiso   1.00
N41    N     0.61725   0.54507   0.58154   0.00000  Uiso   1.00
N42    N     0.89613   0.36463   0.49986   0.00000  Uiso   1.00
N43    N     0.35229   0.01684   0.83168   0.00000  Uiso   1.00
N44    N     0.64268   0.36562   0.52835   0.00000  Uiso   1.00
N45    N     0.92157   0.18518   0.44667   0.00000  Uiso   1.00
N46    N     0.37772   0.83739   0.77849   0.00000  Uiso   1.00
C47    C     0.71362   0.32464   0.85761   0.00000  Uiso   1.00
C48    C     0.61621   0.34153   0.88737   0.00000  Uiso   1.00
C49    C     0.54848   0.45569   0.88277   0.00000  Uiso   1.00
C50    C     0.46383   0.45118   0.91339   0.00000  Uiso   1.00
C51    C     0.31508   0.49487   0.95446   0.00000  Uiso   1.00
C52    C     0.81495   0.29181   0.90989   0.00000  Uiso   1.00
C53    C     0.91432   0.36417   0.92422   0.00000  Uiso   1.00
C54    C     0.99698   0.31779   0.97379   0.00000  Uiso   1.00
C55    C     0.15681   0.28423   0.04979   0.00000  Uiso   1.00
C56    C     0.68921   0.19597   0.81844   0.00000  Uiso   1.00
C57    C     0.68290   0.18773   0.75588   0.00000  Uiso   1.00
C58    C     0.65972   0.06064   0.72846   0.00000  Uiso   1.00
C59    C     0.62432   0.87828   0.66247   0.00000  Uiso   1.00
C60    C     0.68371   0.11361   0.92016   0.00000  Uiso   1.00
C61    C     0.59997   0.22690   0.92135   0.00000  Uiso   1.00
C62    C     0.51539   0.22221   0.95197   0.00000  Uiso   1.00
C63    C     0.44755   0.33635   0.94742   0.00000  Uiso   1.00
C64    C     0.79871   0.17719   0.94386   0.00000  Uiso   1.00
C65    C     0.88123   0.13069   0.99342   0.00000  Uiso   1.00
C66    C     0.98071   0.20296   0.00783   0.00000  Uiso   1.00
C67    C     0.67297   0.08134   0.85241   0.00000  Uiso   1.00
C68    C     0.64980   0.95425   0.82508   0.00000  Uiso   1.00
C69    C     0.64345   0.94581   0.76249   0.00000  Uiso   1.00
H70    H     0.72627   0.41388   0.83116   0.00000  Uiso   1.00
H71    H     0.56109   0.54439   0.85648   0.00000  Uiso   1.00
H72    H     0.92687   0.45286   0.89792   0.00000  Uiso   1.00
H73    H     0.69547   0.27645   0.72960   0.00000  Uiso   1.00
H74    H     0.37081   0.63855   0.89955   0.00000  Uiso   1.00
H75    H     0.14210   0.44553   0.98691   0.00000  Uiso   1.00
H76    H     0.65416   0.07354   0.63199   0.00000  Uiso   1.00
H77    H     0.67107   0.02436   0.94661   0.00000  Uiso   1.00
H78    H     0.50284   0.13349   0.97826   0.00000  Uiso   1.00
H79    H     0.86864   0.04197   0.01970   0.00000  Uiso   1.00
H80    H     0.63724   0.86556   0.85139   0.00000  Uiso   1.00
H81    H     0.32354   0.30505   0.99840   0.00000  Uiso   1.00
H82    H     0.09484   0.11204   0.08575   0.00000  Uiso   1.00
H83    H     0.60689   0.74004   0.73083   0.00000  Uiso   1.00
O84    O     0.23753   0.55064   0.96773   0.00000  Uiso   1.00
O85    O     0.24945   0.29740   0.08233   0.00000  Uiso   1.00
O86    O     0.60927   0.80935   0.61668   0.00000  Uiso   1.00
N87    N     0.38275   0.54507   0.91846   0.00000  Uiso   1.00
N88    N     0.10387   0.36463   0.00014   0.00000  Uiso   1.00
N89    N     0.64771   0.01684   0.66832   0.00000  Uiso   1.00
N90    N     0.35732   0.36562   0.97165   0.00000  Uiso   1.00
N91    N     0.07843   0.18518   0.05333   0.00000  Uiso   1.00
N92    N     0.62228   0.83739   0.72151   0.00000  Uiso   1.00
C93    C     0.71362   0.67536   0.35761   0.00000  Uiso   1.00
C94    C     0.61621   0.65847   0.38737   0.00000  Uiso   1.00
C95    C     0.54848   0.54431   0.38277   0.00000  Uiso   1.00
C96    C     0.46383   0.54882   0.41339   0.00000  Uiso   1.00
C97    C     0.31508   0.50513   0.45446   0.00000  Uiso   1.00
C98    C     0.81495   0.70819   0.40989   0.00000  Uiso   1.00
C99    C     0.91432   0.63583   0.42422   0.00000  Uiso   1.00
C100   C     0.99698   0.68221   0.47379   0.00000  Uiso   1.00
C101   C     0.15681   0.71577   0.54979   0.00000  Uiso   1.00
C102   C     0.68921   0.80403   0.31844   0.00000  Uiso   1.00
C103   C     0.68290   0.81227   0.25588   0.00000  Uiso   1.00
C104   C     0.65972   0.93936   0.22846   0.00000  Uiso   1.00
C105   C     0.62432   0.12172   0.16247   0.00000  Uiso   1.00
C106   C     0.68371   0.88639   0.42016   0.00000  Uiso   1.00
C107   C     0.59997   0.77310   0.42135   0.00000  Uiso   1.00
C108   C     0.51539   0.77779   0.45197   0.00000  Uiso   1.00
C109   C     0.44755   0.66365   0.44742   0.00000  Uiso   1.00
C110   C     0.79871   0.82281   0.44386   0.00000  Uiso   1.00
C111   C     0.88123   0.86931   0.49342   0.00000  Uiso   1.00
C112   C     0.98071   0.79704   0.50783   0.00000  Uiso   1.00
C113   C     0.67297   0.91866   0.35241   0.00000  Uiso   1.00
C114   C     0.64980   0.04575   0.32508   0.00000  Uiso   1.00
C115   C     0.64345   0.05419   0.26249   0.00000  Uiso   1.00
H116   H     0.72627   0.58612   0.33116   0.00000  Uiso   1.00
H117   H     0.56109   0.45561   0.35648   0.00000  Uiso   1.00
H118   H     0.92687   0.54714   0.39792   0.00000  Uiso   1.00
H119   H     0.69547   0.72355   0.22960   0.00000  Uiso   1.00
H120   H     0.37081   0.36145   0.39955   0.00000  Uiso   1.00
H121   H     0.14210   0.55447   0.48691   0.00000  Uiso   1.00
H122   H     0.65416   0.92646   0.13199   0.00000  Uiso   1.00
H123   H     0.67107   0.97564   0.44661   0.00000  Uiso   1.00
H124   H     0.50284   0.86651   0.47826   0.00000  Uiso   1.00
H125   H     0.86864   0.95803   0.51970   0.00000  Uiso   1.00
H126   H     0.63724   0.13444   0.35139   0.00000  Uiso   1.00
H127   H     0.32354   0.69495   0.49840   0.00000  Uiso   1.00
H128   H     0.09484   0.88796   0.58575   0.00000  Uiso   1.00
H129   H     0.60689   0.25996   0.23083   0.00000  Uiso   1.00
O130   O     0.23753   0.44936   0.46773   0.00000  Uiso   1.00
O131   O     0.24945   0.70260   0.58233   0.00000  Uiso   1.00
O132   O     0.60927   0.19065   0.11668   0.00000  Uiso   1.00
N133   N     0.38275   0.45493   0.41846   0.00000  Uiso   1.00
N134   N     0.10387   0.63537   0.50014   0.00000  Uiso   1.00
N135   N     0.64771   0.98316   0.16832   0.00000  Uiso   1.00
N136   N     0.35732   0.63438   0.47165   0.00000  Uiso   1.00
N137   N     0.07843   0.81482   0.55333   0.00000  Uiso   1.00
N138   N     0.62228   0.16261   0.22151   0.00000  Uiso   1.00
C139   C     0.28638   0.67536   0.14239   0.00000  Uiso   1.00
C140   C     0.38379   0.65847   0.11263   0.00000  Uiso   1.00
C141   C     0.45152   0.54431   0.11723   0.00000  Uiso   1.00
C142   C     0.53617   0.54882   0.08661   0.00000  Uiso   1.00
C143   C     0.68492   0.50513   0.04554   0.00000  Uiso   1.00
C144   C     0.18505   0.70819   0.09011   0.00000  Uiso   1.00
C145   C     0.08568   0.63583   0.07578   0.00000  Uiso   1.00
C146   C     0.00302   0.68221   0.02621   0.00000  Uiso   1.00
C147   C     0.84319   0.71577   0.95021   0.00000  Uiso   1.00
C148   C     0.31079   0.80403   0.18156   0.00000  Uiso   1.00
C149   C     0.31710   0.81227   0.24412   0.00000  Uiso   1.00
C150   C     0.34028   0.93936   0.27154   0.00000  Uiso   1.00
C151   C     0.37568   0.12172   0.33753   0.00000  Uiso   1.00
C152   C     0.31629   0.88639   0.07984   0.00000  Uiso   1.00
C153   C     0.40003   0.77310   0.07865   0.00000  Uiso   1.00
C154   C     0.48461   0.77779   0.04803   0.00000  Uiso   1.00
C155   C     0.55245   0.66365   0.05258   0.00000  Uiso   1.00
C156   C     0.20129   0.82281   0.05614   0.00000  Uiso   1.00
C157   C     0.11877   0.86931   0.00658   0.00000  Uiso   1.00
C158   C     0.01929   0.79704   0.99217   0.00000  Uiso   1.00
C159   C     0.32703   0.91866   0.14759   0.00000  Uiso   1.00
C160   C     0.35020   0.04575   0.17492   0.00000  Uiso   1.00
C161   C     0.35655   0.05419   0.23751   0.00000  Uiso   1.00
H162   H     0.27373   0.58612   0.16884   0.00000  Uiso   1.00
H163   H     0.43891   0.45561   0.14352   0.00000  Uiso   1.00
H164   H     0.07313   0.54714   0.10208   0.00000  Uiso   1.00
H165   H     0.30453   0.72355   0.27040   0.00000  Uiso   1.00
H166   H     0.62919   0.36145   0.10045   0.00000  Uiso   1.00
H167   H     0.85790   0.55447   0.01309   0.00000  Uiso   1.00
H168   H     0.34584   0.92646   0.36801   0.00000  Uiso   1.00
H169   H     0.32893   0.97564   0.05339   0.00000  Uiso   1.00
H170   H     0.49716   0.86651   0.02174   0.00000  Uiso   1.00
H171   H     0.13136   0.95803   0.98030   0.00000  Uiso   1.00
H172   H     0.36276   0.13444   0.14861   0.00000  Uiso   1.00
H173   H     0.67646   0.69495   0.00160   0.00000  Uiso   1.00
H174   H     0.90516   0.88796   0.91425   0.00000  Uiso   1.00
H175   H     0.39311   0.25996   0.26917   0.00000  Uiso   1.00
O176   O     0.76247   0.44936   0.03227   0.00000  Uiso   1.00
O177   O     0.75055   0.70260   0.91767   0.00000  Uiso   1.00
O178   O     0.39073   0.19065   0.38332   0.00000  Uiso   1.00
N179   N     0.61725   0.45493   0.08154   0.00000  Uiso   1.00
N180   N     0.89613   0.63537   0.99986   0.00000  Uiso   1.00
N181   N     0.35229   0.98316   0.33168   0.00000  Uiso   1.00
N182   N     0.64268   0.63438   0.02835   0.00000  Uiso   1.00
N183   N     0.92157   0.81482   0.94667   0.00000  Uiso   1.00
N184   N     0.37772   0.16261   0.27849   0.00000  Uiso   1.00
