data_job_06074
_audit_creation_date              2018-12-19
_audit_creation_method            'Materials Studio'
_symmetry_space_group_name_H-M    'P1'
_symmetry_Int_Tables_number       1
_symmetry_cell_setting            triclinic
loop_
_symmetry_equiv_pos_as_xyz
  x,y,z
_cell_length_a                    10.0489
_cell_length_b                    19.0548
_cell_length_c                    19.4343
_cell_angle_alpha                 117.0400
_cell_angle_beta                  78.7317
_cell_angle_gamma                 82.8726
loop_
_atom_site_label
_atom_site_type_symbol
_atom_site_fract_x
_atom_site_fract_y
_atom_site_fract_z
_atom_site_U_iso_or_equiv
_atom_site_adp_type
_atom_site_occupancy
C1     C     0.67163   0.36492   0.17507   0.00000  Uiso   1.00
C2     C     0.66640   0.45126   0.19038   0.00000  Uiso   1.00
C3     C     0.59269   0.48992   0.15869   0.00000  Uiso   1.00
C4     C     0.60130   0.56897   0.17992   0.00000  Uiso   1.00
C5     C     0.58114   0.69710   0.19588   0.00000  Uiso   1.00
C6     C     0.82609   0.32063   0.14145   0.00000  Uiso   1.00
C7     C     0.88663   0.24945   0.06863   0.00000  Uiso   1.00
C8     C     0.02967   0.21853   0.04867   0.00000  Uiso   1.00
C9     C     0.25741   0.14382   0.98870   0.00000  Uiso   1.00
C10    C     0.62272   0.37195   0.25783   0.00000  Uiso   1.00
C11    C     0.51229   0.34391   0.28286   0.00000  Uiso   1.00
C12    C     0.48412   0.35618   0.36089   0.00000  Uiso   1.00
C13    C     0.39610   0.36116   0.48162   0.00000  Uiso   1.00
C14    C     0.81799   0.43655   0.26913   0.00000  Uiso   1.00
C15    C     0.74590   0.49017   0.24146   0.00000  Uiso   1.00
C16    C     0.75461   0.56918   0.26275   0.00000  Uiso   1.00
C17    C     0.68093   0.60795   0.23110   0.00000  Uiso   1.00
C18    C     0.90558   0.35954   0.19253   0.00000  Uiso   1.00
C19    C     0.04856   0.32871   0.17269   0.00000  Uiso   1.00
C20    C     0.10931   0.25751   0.09985   0.00000  Uiso   1.00
C21    C     0.70221   0.41086   0.30892   0.00000  Uiso   1.00
C22    C     0.67422   0.42317   0.38692   0.00000  Uiso   1.00
C23    C     0.56377   0.39516   0.41207   0.00000  Uiso   1.00
H24    H     0.60975   0.33462   0.13529   0.00000  Uiso   1.00
H25    H     0.53119   0.45978   0.11915   0.00000  Uiso   1.00
H26    H     0.82508   0.21935   0.02911   0.00000  Uiso   1.00
H27    H     0.45080   0.31380   0.24331   0.00000  Uiso   1.00
H28    H     0.47919   0.61570   0.12376   0.00000  Uiso   1.00
H29    H     0.09888   0.10872   0.93391   0.00000  Uiso   1.00
H30    H     0.30962   0.30787   0.38560   0.00000  Uiso   1.00
H31    H     0.87988   0.46685   0.30890   0.00000  Uiso   1.00
H32    H     0.81614   0.59927   0.30229   0.00000  Uiso   1.00
H33    H     0.11004   0.35883   0.21224   0.00000  Uiso   1.00
H34    H     0.73576   0.45328   0.42644   0.00000  Uiso   1.00
H35    H     0.71048   0.72891   0.27239   0.00000  Uiso   1.00
H36    H     0.33016   0.22192   0.08254   0.00000  Uiso   1.00
H37    H     0.54091   0.42109   0.53423   0.00000  Uiso   1.00
O38    O     0.54807   0.75702   0.19057   0.00000  Uiso   1.00
O39    O     0.36106   0.09187   0.94150   0.00000  Uiso   1.00
O40    O     0.32558   0.35317   0.53410   0.00000  Uiso   1.00
N41    N     0.54235   0.62418   0.15966   0.00000  Uiso   1.00
N42    N     0.12172   0.15018   0.98216   0.00000  Uiso   1.00
N43    N     0.38386   0.33636   0.40444   0.00000  Uiso   1.00
N44    N     0.66680   0.68509   0.23964   0.00000  Uiso   1.00
N45    N     0.24617   0.21110   0.06214   0.00000  Uiso   1.00
N46    N     0.50831   0.39728   0.48442   0.00000  Uiso   1.00
C47    C     0.85157   0.82790   0.18817   0.00000  Uiso   1.00
C48    C     0.85685   0.81210   0.25791   0.00000  Uiso   1.00
C49    C     0.74956   0.84221   0.32848   0.00000  Uiso   1.00
C50    C     0.77496   0.82078   0.38496   0.00000  Uiso   1.00
C51    C     0.76370   0.80384   0.49534   0.00000  Uiso   1.00
C52    C     0.97504   0.86429   0.17588   0.00000  Uiso   1.00
C53    C     0.96712   0.93827   0.17748   0.00000  Uiso   1.00
C54    C     0.09202   0.96077   0.16490   0.00000  Uiso   1.00
C55    C     0.26425   0.02484   0.14787   0.00000  Uiso   1.00
C56    C     0.88449   0.74455   0.11346   0.00000  Uiso   1.00
C57    C     0.80045   0.71787   0.06255   0.00000  Uiso   1.00
C58    C     0.84913   0.63956   0.99740   0.00000  Uiso   1.00
C59    C     0.88076   0.51772   0.88346   0.00000  Uiso   1.00
C60    C     0.08747   0.73630   0.16297   0.00000  Uiso   1.00
C61    C     0.98499   0.76235   0.24422   0.00000  Uiso   1.00
C62    C     0.01055   0.74086   0.30060   0.00000  Uiso   1.00
C63    C     0.90332   0.77093   0.37124   0.00000  Uiso   1.00
C64    C     0.10317   0.81454   0.16219   0.00000  Uiso   1.00
C65    C     0.22811   0.83693   0.14960   0.00000  Uiso   1.00
C66    C     0.22038   0.91094   0.15118   0.00000  Uiso   1.00
C67    C     0.01262   0.69480   0.09977   0.00000  Uiso   1.00
C68    C     0.06144   0.61652   0.03468   0.00000  Uiso   1.00
C69    C     0.97749   0.58972   0.98369   0.00000  Uiso   1.00
H70    H     0.75183   0.86664   0.19883   0.00000  Uiso   1.00
H71    H     0.65043   0.88071   0.33906   0.00000  Uiso   1.00
H72    H     0.86795   0.97676   0.18807   0.00000  Uiso   1.00
H73    H     0.70131   0.75638   0.07317   0.00000  Uiso   1.00
H74    H     0.59453   0.87440   0.48850   0.00000  Uiso   1.00
H75    H     0.05320   0.07691   0.17011   0.00000  Uiso   1.00
H76    H     0.70179   0.61221   0.92781   0.00000  Uiso   1.00
H77    H     0.18723   0.69757   0.15231   0.00000  Uiso   1.00
H78    H     0.10972   0.70236   0.28999   0.00000  Uiso   1.00
H79    H     0.32724   0.79842   0.13900   0.00000  Uiso   1.00
H80    H     0.16060   0.57804   0.02410   0.00000  Uiso   1.00
H81    H     0.96731   0.72965   0.44868   0.00000  Uiso   1.00
H82    H     0.42598   0.93216   0.13028   0.00000  Uiso   1.00
H83    H     0.07458   0.46746   0.88799   0.00000  Uiso   1.00
O84    O     0.72209   0.80825   0.56001   0.00000  Uiso   1.00
O85    O     0.32384   0.07393   0.14227   0.00000  Uiso   1.00
O86    O     0.86281   0.46425   0.82440   0.00000  Uiso   1.00
N87    N     0.69289   0.83966   0.46023   0.00000  Uiso   1.00
N88    N     0.12171   0.02900   0.16256   0.00000  Uiso   1.00
N89    N     0.79320   0.59455   0.93602   0.00000  Uiso   1.00
N90    N     0.89348   0.76177   0.43880   0.00000  Uiso   1.00
N91    N     0.32230   0.95111   0.14113   0.00000  Uiso   1.00
N92    N     0.99379   0.51666   0.91460   0.00000  Uiso   1.00
C93    C     0.03384   0.81246   0.63705   0.00000  Uiso   1.00
C94    C     0.10926   0.74314   0.55207   0.00000  Uiso   1.00
C95    C     0.07043   0.67082   0.51299   0.00000  Uiso   1.00
C96    C     0.15310   0.61509   0.43539   0.00000  Uiso   1.00
C97    C     0.25240   0.50499   0.30910   0.00000  Uiso   1.00
C98    C     0.14313   0.82663   0.68330   0.00000  Uiso   1.00
C99    C     0.13277   0.82451   0.75456   0.00000  Uiso   1.00
C100   C     0.24395   0.83907   0.78743   0.00000  Uiso   1.00
C101   C     0.39578   0.85865   0.86490   0.00000  Uiso   1.00
C102   C     0.99708   0.88792   0.62895   0.00000  Uiso   1.00
C103   C     0.86392   0.93735   0.65454   0.00000  Uiso   1.00
C104   C     0.85213   0.00352   0.64167   0.00000  Uiso   1.00
C105   C     0.77721   0.11826   0.63477   0.00000  Uiso   1.00
C106   C     0.24969   0.84211   0.56872   0.00000  Uiso   1.00
C107   C     0.22649   0.75925   0.51496   0.00000  Uiso   1.00
C108   C     0.30924   0.70362   0.43739   0.00000  Uiso   1.00
C109   C     0.27055   0.63122   0.39820   0.00000  Uiso   1.00
C110   C     0.26036   0.84274   0.64618   0.00000  Uiso   1.00
C111   C     0.37157   0.85731   0.67896   0.00000  Uiso   1.00
C112   C     0.36139   0.85521   0.75025   0.00000  Uiso   1.00
C113   C     0.11431   0.90403   0.59184   0.00000  Uiso   1.00
C114   C     0.10273   0.97014   0.57893   0.00000  Uiso   1.00
C115   C     0.96958   0.01965   0.60449   0.00000  Uiso   1.00
H116   H     0.94257   0.79993   0.66595   0.00000  Uiso   1.00
H117   H     0.97970   0.65838   0.54174   0.00000  Uiso   1.00
H118   H     0.04203   0.81206   0.78327   0.00000  Uiso   1.00
H119   H     0.77322   0.92487   0.68326   0.00000  Uiso   1.00
H120   H     0.07260   0.50853   0.38767   0.00000  Uiso   1.00
H121   H     0.20399   0.83260   0.89697   0.00000  Uiso   1.00
H122   H     0.63716   0.07049   0.68608   0.00000  Uiso   1.00
H123   H     0.34097   0.85465   0.53982   0.00000  Uiso   1.00
H124   H     0.39996   0.71610   0.40868   0.00000  Uiso   1.00
H125   H     0.46228   0.86978   0.65022   0.00000  Uiso   1.00
H126   H     0.19348   0.98259   0.55021   0.00000  Uiso   1.00
H127   H     0.41370   0.55538   0.27968   0.00000  Uiso   1.00
H128   H     0.54508   0.87945   0.78899   0.00000  Uiso   1.00
H129   H     0.97826   0.11733   0.57810   0.00000  Uiso   1.00
O130   O     0.27480   0.43981   0.24970   0.00000  Uiso   1.00
O131   O     0.44715   0.86499   0.91789   0.00000  Uiso   1.00
O132   O     0.70349   0.17709   0.64120   0.00000  Uiso   1.00
N133   N     0.14477   0.53858   0.38025   0.00000  Uiso   1.00
N134   N     0.26761   0.84155   0.85641   0.00000  Uiso   1.00
N135   N     0.73768   0.06397   0.65926   0.00000  Uiso   1.00
N136   N     0.32831   0.56379   0.32214   0.00000  Uiso   1.00
N137   N     0.45116   0.86675   0.79830   0.00000  Uiso   1.00
N138   N     0.92122   0.08917   0.60116   0.00000  Uiso   1.00
C139   C     0.32837   0.63508   0.82493   0.00000  Uiso   1.00
C140   C     0.33360   0.54874   0.80962   0.00000  Uiso   1.00
C141   C     0.40731   0.51008   0.84131   0.00000  Uiso   1.00
C142   C     0.39870   0.43103   0.82008   0.00000  Uiso   1.00
C143   C     0.41886   0.30290   0.80412   0.00000  Uiso   1.00
C144   C     0.17391   0.67937   0.85855   0.00000  Uiso   1.00
C145   C     0.11337   0.75055   0.93137   0.00000  Uiso   1.00
C146   C     0.97033   0.78147   0.95133   0.00000  Uiso   1.00
C147   C     0.74259   0.85618   0.01130   0.00000  Uiso   1.00
C148   C     0.37728   0.62805   0.74217   0.00000  Uiso   1.00
C149   C     0.48771   0.65609   0.71714   0.00000  Uiso   1.00
C150   C     0.51588   0.64382   0.63911   0.00000  Uiso   1.00
C151   C     0.60390   0.63884   0.51838   0.00000  Uiso   1.00
C152   C     0.18201   0.56345   0.73087   0.00000  Uiso   1.00
C153   C     0.25410   0.50983   0.75854   0.00000  Uiso   1.00
C154   C     0.24539   0.43082   0.73725   0.00000  Uiso   1.00
C155   C     0.31907   0.39205   0.76890   0.00000  Uiso   1.00
C156   C     0.09442   0.64046   0.80747   0.00000  Uiso   1.00
C157   C     0.95144   0.67129   0.82731   0.00000  Uiso   1.00
C158   C     0.89069   0.74249   0.90015   0.00000  Uiso   1.00
C159   C     0.29779   0.58914   0.69108   0.00000  Uiso   1.00
C160   C     0.32578   0.57683   0.61308   0.00000  Uiso   1.00
C161   C     0.43623   0.60484   0.58793   0.00000  Uiso   1.00
H162   H     0.39025   0.66538   0.86471   0.00000  Uiso   1.00
H163   H     0.46881   0.54022   0.88085   0.00000  Uiso   1.00
H164   H     0.17492   0.78065   0.97089   0.00000  Uiso   1.00
H165   H     0.54920   0.68620   0.75669   0.00000  Uiso   1.00
H166   H     0.52081   0.38430   0.87624   0.00000  Uiso   1.00
H167   H     0.90112   0.89128   0.06609   0.00000  Uiso   1.00
H168   H     0.69038   0.69213   0.61440   0.00000  Uiso   1.00
H169   H     0.12012   0.53315   0.69110   0.00000  Uiso   1.00
H170   H     0.18386   0.40073   0.69771   0.00000  Uiso   1.00
H171   H     0.88996   0.64117   0.78776   0.00000  Uiso   1.00
H172   H     0.26424   0.54672   0.57356   0.00000  Uiso   1.00
H173   H     0.28952   0.27109   0.72761   0.00000  Uiso   1.00
H174   H     0.66984   0.77808   0.91746   0.00000  Uiso   1.00
H175   H     0.45909   0.57891   0.46577   0.00000  Uiso   1.00
O176   O     0.45193   0.24298   0.80943   0.00000  Uiso   1.00
O177   O     0.63894   0.90813   0.05850   0.00000  Uiso   1.00
O178   O     0.67442   0.64683   0.46590   0.00000  Uiso   1.00
N179   N     0.45765   0.37582   0.84034   0.00000  Uiso   1.00
N180   N     0.87828   0.84982   0.01785   0.00000  Uiso   1.00
N181   N     0.61614   0.66364   0.59556   0.00000  Uiso   1.00
N182   N     0.33320   0.31491   0.76036   0.00000  Uiso   1.00
N183   N     0.75383   0.78890   0.93786   0.00000  Uiso   1.00
N184   N     0.49169   0.60272   0.51558   0.00000  Uiso   1.00
C185   C     0.14843   0.17210   0.81183   0.00000  Uiso   1.00
C186   C     0.14315   0.18790   0.74209   0.00000  Uiso   1.00
C187   C     0.25044   0.15779   0.67152   0.00000  Uiso   1.00
C188   C     0.22504   0.17922   0.61504   0.00000  Uiso   1.00
C189   C     0.23630   0.19616   0.50466   0.00000  Uiso   1.00
C190   C     0.02496   0.13571   0.82412   0.00000  Uiso   1.00
C191   C     0.03288   0.06173   0.82252   0.00000  Uiso   1.00
C192   C     0.90798   0.03923   0.83510   0.00000  Uiso   1.00
C193   C     0.73575   0.97516   0.85213   0.00000  Uiso   1.00
C194   C     0.11551   0.25545   0.88654   0.00000  Uiso   1.00
C195   C     0.19955   0.28213   0.93745   0.00000  Uiso   1.00
C196   C     0.15087   0.36044   0.00260   0.00000  Uiso   1.00
C197   C     0.11924   0.48228   0.11654   0.00000  Uiso   1.00
C198   C     0.91253   0.26370   0.83703   0.00000  Uiso   1.00
C199   C     0.01501   0.23765   0.75578   0.00000  Uiso   1.00
C200   C     0.98945   0.25914   0.69940   0.00000  Uiso   1.00
C201   C     0.09668   0.22907   0.62876   0.00000  Uiso   1.00
C202   C     0.89683   0.18546   0.83781   0.00000  Uiso   1.00
C203   C     0.77189   0.16307   0.85040   0.00000  Uiso   1.00
C204   C     0.77962   0.08906   0.84882   0.00000  Uiso   1.00
C205   C     0.98738   0.30520   0.90023   0.00000  Uiso   1.00
C206   C     0.93856   0.38348   0.96532   0.00000  Uiso   1.00
C207   C     0.02251   0.41028   0.01631   0.00000  Uiso   1.00
H208   H     0.24817   0.13336   0.80117   0.00000  Uiso   1.00
H209   H     0.34957   0.11929   0.66094   0.00000  Uiso   1.00
H210   H     0.13205   0.02324   0.81193   0.00000  Uiso   1.00
H211   H     0.29869   0.24362   0.92683   0.00000  Uiso   1.00
H212   H     0.40547   0.12560   0.51150   0.00000  Uiso   1.00
H213   H     0.94680   0.92309   0.82989   0.00000  Uiso   1.00
H214   H     0.29821   0.38779   0.07219   0.00000  Uiso   1.00
H215   H     0.81277   0.30243   0.84769   0.00000  Uiso   1.00
H216   H     0.89028   0.29764   0.71001   0.00000  Uiso   1.00
H217   H     0.67276   0.20158   0.86100   0.00000  Uiso   1.00
H218   H     0.83940   0.42196   0.97590   0.00000  Uiso   1.00
H219   H     0.03269   0.27035   0.55132   0.00000  Uiso   1.00
H220   H     0.57402   0.06784   0.86972   0.00000  Uiso   1.00
H221   H     0.92542   0.53254   0.11201   0.00000  Uiso   1.00
O222   O     0.27791   0.19175   0.43999   0.00000  Uiso   1.00
O223   O     0.67616   0.92607   0.85773   0.00000  Uiso   1.00
O224   O     0.13719   0.53575   0.17560   0.00000  Uiso   1.00
N225   N     0.30711   0.16034   0.53977   0.00000  Uiso   1.00
N226   N     0.87829   0.97100   0.83744   0.00000  Uiso   1.00
N227   N     0.20680   0.40545   0.06398   0.00000  Uiso   1.00
N228   N     0.10652   0.23823   0.56120   0.00000  Uiso   1.00
N229   N     0.67770   0.04889   0.85887   0.00000  Uiso   1.00
N230   N     0.00621   0.48334   0.08540   0.00000  Uiso   1.00
C231   C     0.96616   0.18754   0.36295   0.00000  Uiso   1.00
C232   C     0.89074   0.25686   0.44793   0.00000  Uiso   1.00
C233   C     0.92957   0.32918   0.48701   0.00000  Uiso   1.00
C234   C     0.84690   0.38491   0.56461   0.00000  Uiso   1.00
C235   C     0.74760   0.49501   0.69090   0.00000  Uiso   1.00
C236   C     0.85687   0.17337   0.31670   0.00000  Uiso   1.00
C237   C     0.86723   0.17549   0.24544   0.00000  Uiso   1.00
C238   C     0.75605   0.16093   0.21257   0.00000  Uiso   1.00
C239   C     0.60422   0.14135   0.13510   0.00000  Uiso   1.00
C240   C     0.00293   0.11208   0.37105   0.00000  Uiso   1.00
C241   C     0.13608   0.06265   0.34546   0.00000  Uiso   1.00
C242   C     0.14787   0.99648   0.35833   0.00000  Uiso   1.00
C243   C     0.22279   0.88174   0.36523   0.00000  Uiso   1.00
C244   C     0.75031   0.15789   0.43128   0.00000  Uiso   1.00
C245   C     0.77351   0.24075   0.48504   0.00000  Uiso   1.00
C246   C     0.69076   0.29638   0.56261   0.00000  Uiso   1.00
C247   C     0.72945   0.36878   0.60180   0.00000  Uiso   1.00
C248   C     0.73964   0.15726   0.35382   0.00000  Uiso   1.00
C249   C     0.62843   0.14269   0.32104   0.00000  Uiso   1.00
C250   C     0.63861   0.14479   0.24975   0.00000  Uiso   1.00
C251   C     0.88569   0.09597   0.40817   0.00000  Uiso   1.00
C252   C     0.89727   0.02986   0.42107   0.00000  Uiso   1.00
C253   C     0.03042   0.98035   0.39551   0.00000  Uiso   1.00
H254   H     0.05743   0.20007   0.33405   0.00000  Uiso   1.00
H255   H     0.02030   0.34162   0.45826   0.00000  Uiso   1.00
H256   H     0.95797   0.18795   0.21673   0.00000  Uiso   1.00
H257   H     0.22678   0.07513   0.31674   0.00000  Uiso   1.00
H258   H     0.92740   0.49147   0.61233   0.00000  Uiso   1.00
H259   H     0.79601   0.16740   0.10303   0.00000  Uiso   1.00
H260   H     0.36284   0.92951   0.31392   0.00000  Uiso   1.00
H261   H     0.65903   0.14535   0.46018   0.00000  Uiso   1.00
H262   H     0.60004   0.28390   0.59132   0.00000  Uiso   1.00
H263   H     0.53772   0.13022   0.34978   0.00000  Uiso   1.00
H264   H     0.80652   0.01741   0.44979   0.00000  Uiso   1.00
H265   H     0.58630   0.44462   0.72032   0.00000  Uiso   1.00
H266   H     0.45492   0.12055   0.21101   0.00000  Uiso   1.00
H267   H     0.02174   0.88267   0.42190   0.00000  Uiso   1.00
O268   O     0.72520   0.56019   0.75030   0.00000  Uiso   1.00
O269   O     0.55285   0.13501   0.08211   0.00000  Uiso   1.00
O270   O     0.29651   0.82291   0.35880   0.00000  Uiso   1.00
N271   N     0.85523   0.46142   0.61975   0.00000  Uiso   1.00
N272   N     0.73239   0.15845   0.14359   0.00000  Uiso   1.00
N273   N     0.26232   0.93603   0.34074   0.00000  Uiso   1.00
N274   N     0.67169   0.43621   0.67786   0.00000  Uiso   1.00
N275   N     0.54884   0.13325   0.20170   0.00000  Uiso   1.00
N276   N     0.07878   0.91083   0.39884   0.00000  Uiso   1.00
