data_job_03991
_audit_creation_date              2018-12-19
_audit_creation_method            'Materials Studio'
_symmetry_space_group_name_H-M    'P1'
_symmetry_Int_Tables_number       1
_symmetry_cell_setting            triclinic
loop_
_symmetry_equiv_pos_as_xyz
  x,y,z
_cell_length_a                    14.3855
_cell_length_b                    20.8557
_cell_length_c                    18.2620
_cell_angle_alpha                 90.0000
_cell_angle_beta                  90.0000
_cell_angle_gamma                 90.0000
loop_
_atom_site_label
_atom_site_type_symbol
_atom_site_fract_x
_atom_site_fract_y
_atom_site_fract_z
_atom_site_U_iso_or_equiv
_atom_site_adp_type
_atom_site_occupancy
C1     C     0.63474   0.28104   0.93989   0.00000  Uiso   1.00
C2     C     0.59290   0.34722   0.92669   0.00000  Uiso   1.00
C3     C     0.63484   0.40532   0.94343   0.00000  Uiso   1.00
C4     C     0.58515   0.46058   0.92712   0.00000  Uiso   1.00
C5     C     0.53361   0.56377   0.91151   0.00000  Uiso   1.00
C6     C     0.56470   0.24486   0.98703   0.00000  Uiso   1.00
C7     C     0.58293   0.21690   0.05448   0.00000  Uiso   1.00
C8     C     0.50950   0.18598   0.08894   0.00000  Uiso   1.00
C9     C     0.41420   0.13022   0.16698   0.00000  Uiso   1.00
C10    C     0.63505   0.24747   0.86571   0.00000  Uiso   1.00
C11    C     0.71242   0.22168   0.83117   0.00000  Uiso   1.00
C12    C     0.69821   0.19294   0.76350   0.00000  Uiso   1.00
C13    C     0.71214   0.14123   0.65318   0.00000  Uiso   1.00
C14    C     0.47193   0.27583   0.88116   0.00000  Uiso   1.00
C15    C     0.50446   0.34439   0.89480   0.00000  Uiso   1.00
C16    C     0.45470   0.39957   0.87845   0.00000  Uiso   1.00
C17    C     0.49655   0.45775   0.89516   0.00000  Uiso   1.00
C18    C     0.47627   0.24203   0.95513   0.00000  Uiso   1.00
C19    C     0.40280   0.21115   0.98950   0.00000  Uiso   1.00
C20    C     0.42091   0.18315   0.05699   0.00000  Uiso   1.00
C21    C     0.54661   0.24464   0.83381   0.00000  Uiso   1.00
C22    C     0.53228   0.21593   0.76619   0.00000  Uiso   1.00
C23    C     0.60962   0.19011   0.73155   0.00000  Uiso   1.00
H24    H     0.70359   0.28323   0.96473   0.00000  Uiso   1.00
H25    H     0.70327   0.40749   0.96812   0.00000  Uiso   1.00
H26    H     0.65138   0.21909   0.07914   0.00000  Uiso   1.00
H27    H     0.78084   0.22388   0.85587   0.00000  Uiso   1.00
H28    H     0.66390   0.54400   0.95784   0.00000  Uiso   1.00
H29    H     0.55449   0.14674   0.19193   0.00000  Uiso   1.00
H30    H     0.82750   0.15682   0.72111   0.00000  Uiso   1.00
H31    H     0.40307   0.27363   0.85633   0.00000  Uiso   1.00
H32    H     0.38626   0.39737   0.85377   0.00000  Uiso   1.00
H33    H     0.33437   0.20897   0.96480   0.00000  Uiso   1.00
H34    H     0.46384   0.21375   0.74153   0.00000  Uiso   1.00
H35    H     0.40661   0.53579   0.86503   0.00000  Uiso   1.00
H36    H     0.29720   0.13852   0.09913   0.00000  Uiso   1.00
H37    H     0.57020   0.14861   0.62831   0.00000  Uiso   1.00
O38    O     0.52961   0.62147   0.91173   0.00000  Uiso   1.00
O39    O     0.38607   0.10025   0.21884   0.00000  Uiso   1.00
O40    O     0.74425   0.11349   0.60114   0.00000  Uiso   1.00
N41    N     0.60566   0.52509   0.93633   0.00000  Uiso   1.00
N42    N     0.50337   0.15368   0.15520   0.00000  Uiso   1.00
N43    N     0.75860   0.16309   0.71503   0.00000  Uiso   1.00
N44    N     0.46722   0.52067   0.88639   0.00000  Uiso   1.00
N45    N     0.36492   0.14926   0.10526   0.00000  Uiso   1.00
N46    N     0.62015   0.15867   0.66510   0.00000  Uiso   1.00
C47    C     0.86526   0.71896   0.43989   0.00000  Uiso   1.00
C48    C     0.90710   0.65278   0.42669   0.00000  Uiso   1.00
C49    C     0.86516   0.59468   0.44343   0.00000  Uiso   1.00
C50    C     0.91485   0.53942   0.42712   0.00000  Uiso   1.00
C51    C     0.96639   0.43623   0.41151   0.00000  Uiso   1.00
C52    C     0.93530   0.75514   0.48703   0.00000  Uiso   1.00
C53    C     0.91707   0.78310   0.55448   0.00000  Uiso   1.00
C54    C     0.99050   0.81402   0.58894   0.00000  Uiso   1.00
C55    C     0.08580   0.86978   0.66698   0.00000  Uiso   1.00
C56    C     0.86495   0.75253   0.36571   0.00000  Uiso   1.00
C57    C     0.78758   0.77832   0.33117   0.00000  Uiso   1.00
C58    C     0.80179   0.80706   0.26350   0.00000  Uiso   1.00
C59    C     0.78786   0.85877   0.15318   0.00000  Uiso   1.00
C60    C     0.02807   0.72417   0.38116   0.00000  Uiso   1.00
C61    C     0.99554   0.65561   0.39480   0.00000  Uiso   1.00
C62    C     0.04530   0.60043   0.37845   0.00000  Uiso   1.00
C63    C     0.00345   0.54225   0.39516   0.00000  Uiso   1.00
C64    C     0.02373   0.75797   0.45513   0.00000  Uiso   1.00
C65    C     0.09720   0.78885   0.48950   0.00000  Uiso   1.00
C66    C     0.07909   0.81685   0.55699   0.00000  Uiso   1.00
C67    C     0.95339   0.75536   0.33381   0.00000  Uiso   1.00
C68    C     0.96772   0.78407   0.26619   0.00000  Uiso   1.00
C69    C     0.89038   0.80989   0.23155   0.00000  Uiso   1.00
H70    H     0.79641   0.71677   0.46473   0.00000  Uiso   1.00
H71    H     0.79673   0.59251   0.46812   0.00000  Uiso   1.00
H72    H     0.84862   0.78091   0.57914   0.00000  Uiso   1.00
H73    H     0.71916   0.77612   0.35587   0.00000  Uiso   1.00
H74    H     0.83610   0.45600   0.45784   0.00000  Uiso   1.00
H75    H     0.94551   0.85326   0.69193   0.00000  Uiso   1.00
H76    H     0.67250   0.84318   0.22111   0.00000  Uiso   1.00
H77    H     0.09693   0.72637   0.35633   0.00000  Uiso   1.00
H78    H     0.11374   0.60263   0.35377   0.00000  Uiso   1.00
H79    H     0.16563   0.79103   0.46480   0.00000  Uiso   1.00
H80    H     0.03616   0.78625   0.24153   0.00000  Uiso   1.00
H81    H     0.09339   0.46421   0.36503   0.00000  Uiso   1.00
H82    H     0.20280   0.86148   0.59913   0.00000  Uiso   1.00
H83    H     0.92980   0.85139   0.12831   0.00000  Uiso   1.00
O84    O     0.97039   0.37853   0.41173   0.00000  Uiso   1.00
O85    O     0.11393   0.89975   0.71884   0.00000  Uiso   1.00
O86    O     0.75575   0.88651   0.10114   0.00000  Uiso   1.00
N87    N     0.89434   0.47491   0.43633   0.00000  Uiso   1.00
N88    N     0.99663   0.84632   0.65520   0.00000  Uiso   1.00
N89    N     0.74140   0.83691   0.21503   0.00000  Uiso   1.00
N90    N     0.03278   0.47933   0.38639   0.00000  Uiso   1.00
N91    N     0.13508   0.85074   0.60526   0.00000  Uiso   1.00
N92    N     0.87985   0.84133   0.16510   0.00000  Uiso   1.00
C93    C     0.36526   0.78104   0.56011   0.00000  Uiso   1.00
C94    C     0.40710   0.84722   0.57331   0.00000  Uiso   1.00
C95    C     0.36516   0.90532   0.55657   0.00000  Uiso   1.00
C96    C     0.41485   0.96058   0.57288   0.00000  Uiso   1.00
C97    C     0.46639   0.06377   0.58849   0.00000  Uiso   1.00
C98    C     0.43530   0.74486   0.51297   0.00000  Uiso   1.00
C99    C     0.41707   0.71690   0.44552   0.00000  Uiso   1.00
C100   C     0.49050   0.68598   0.41106   0.00000  Uiso   1.00
C101   C     0.58580   0.63022   0.33302   0.00000  Uiso   1.00
C102   C     0.36495   0.74747   0.63429   0.00000  Uiso   1.00
C103   C     0.28758   0.72168   0.66883   0.00000  Uiso   1.00
C104   C     0.30179   0.69294   0.73650   0.00000  Uiso   1.00
C105   C     0.28786   0.64123   0.84682   0.00000  Uiso   1.00
C106   C     0.52807   0.77583   0.61884   0.00000  Uiso   1.00
C107   C     0.49554   0.84439   0.60520   0.00000  Uiso   1.00
C108   C     0.54530   0.89957   0.62155   0.00000  Uiso   1.00
C109   C     0.50345   0.95775   0.60484   0.00000  Uiso   1.00
C110   C     0.52373   0.74203   0.54487   0.00000  Uiso   1.00
C111   C     0.59720   0.71115   0.51050   0.00000  Uiso   1.00
C112   C     0.57909   0.68315   0.44301   0.00000  Uiso   1.00
C113   C     0.45339   0.74464   0.66619   0.00000  Uiso   1.00
C114   C     0.46772   0.71593   0.73381   0.00000  Uiso   1.00
C115   C     0.39038   0.69011   0.76845   0.00000  Uiso   1.00
H116   H     0.29641   0.78323   0.53527   0.00000  Uiso   1.00
H117   H     0.29673   0.90749   0.53188   0.00000  Uiso   1.00
H118   H     0.34862   0.71909   0.42086   0.00000  Uiso   1.00
H119   H     0.21916   0.72388   0.64413   0.00000  Uiso   1.00
H120   H     0.33610   0.04400   0.54216   0.00000  Uiso   1.00
H121   H     0.44551   0.64674   0.30807   0.00000  Uiso   1.00
H122   H     0.17250   0.65682   0.77889   0.00000  Uiso   1.00
H123   H     0.59693   0.77363   0.64367   0.00000  Uiso   1.00
H124   H     0.61374   0.89737   0.64623   0.00000  Uiso   1.00
H125   H     0.66563   0.70897   0.53520   0.00000  Uiso   1.00
H126   H     0.53616   0.71375   0.75847   0.00000  Uiso   1.00
H127   H     0.59339   0.03579   0.63497   0.00000  Uiso   1.00
H128   H     0.70280   0.63852   0.40087   0.00000  Uiso   1.00
H129   H     0.42980   0.64861   0.87169   0.00000  Uiso   1.00
O130   O     0.47039   0.12147   0.58827   0.00000  Uiso   1.00
O131   O     0.61393   0.60025   0.28116   0.00000  Uiso   1.00
O132   O     0.25575   0.61349   0.89886   0.00000  Uiso   1.00
N133   N     0.39434   0.02509   0.56367   0.00000  Uiso   1.00
N134   N     0.49663   0.65368   0.34480   0.00000  Uiso   1.00
N135   N     0.24140   0.66309   0.78497   0.00000  Uiso   1.00
N136   N     0.53278   0.02067   0.61361   0.00000  Uiso   1.00
N137   N     0.63508   0.64926   0.39474   0.00000  Uiso   1.00
N138   N     0.37985   0.65867   0.83490   0.00000  Uiso   1.00
C139   C     0.13474   0.21896   0.06011   0.00000  Uiso   1.00
C140   C     0.09290   0.15278   0.07331   0.00000  Uiso   1.00
C141   C     0.13484   0.09468   0.05657   0.00000  Uiso   1.00
C142   C     0.08515   0.03942   0.07288   0.00000  Uiso   1.00
C143   C     0.03361   0.93623   0.08849   0.00000  Uiso   1.00
C144   C     0.06470   0.25514   0.01297   0.00000  Uiso   1.00
C145   C     0.08293   0.28310   0.94552   0.00000  Uiso   1.00
C146   C     0.00950   0.31402   0.91106   0.00000  Uiso   1.00
C147   C     0.91420   0.36978   0.83302   0.00000  Uiso   1.00
C148   C     0.13505   0.25253   0.13429   0.00000  Uiso   1.00
C149   C     0.21242   0.27832   0.16883   0.00000  Uiso   1.00
C150   C     0.19821   0.30706   0.23650   0.00000  Uiso   1.00
C151   C     0.21214   0.35877   0.34682   0.00000  Uiso   1.00
C152   C     0.97193   0.22417   0.11884   0.00000  Uiso   1.00
C153   C     0.00446   0.15561   0.10520   0.00000  Uiso   1.00
C154   C     0.95470   0.10043   0.12155   0.00000  Uiso   1.00
C155   C     0.99655   0.04225   0.10484   0.00000  Uiso   1.00
C156   C     0.97627   0.25797   0.04487   0.00000  Uiso   1.00
C157   C     0.90280   0.28885   0.01050   0.00000  Uiso   1.00
C158   C     0.92091   0.31685   0.94301   0.00000  Uiso   1.00
C159   C     0.04661   0.25536   0.16619   0.00000  Uiso   1.00
C160   C     0.03228   0.28407   0.23381   0.00000  Uiso   1.00
C161   C     0.10962   0.30989   0.26845   0.00000  Uiso   1.00
H162   H     0.20359   0.21677   0.03527   0.00000  Uiso   1.00
H163   H     0.20327   0.09251   0.03188   0.00000  Uiso   1.00
H164   H     0.15138   0.28091   0.92086   0.00000  Uiso   1.00
H165   H     0.28084   0.27612   0.14413   0.00000  Uiso   1.00
H166   H     0.16390   0.95600   0.04216   0.00000  Uiso   1.00
H167   H     0.05449   0.35326   0.80807   0.00000  Uiso   1.00
H168   H     0.32750   0.34318   0.27889   0.00000  Uiso   1.00
H169   H     0.90307   0.22637   0.14367   0.00000  Uiso   1.00
H170   H     0.88626   0.10263   0.14623   0.00000  Uiso   1.00
H171   H     0.83437   0.29103   0.03520   0.00000  Uiso   1.00
H172   H     0.96384   0.28625   0.25847   0.00000  Uiso   1.00
H173   H     0.90661   0.96421   0.13497   0.00000  Uiso   1.00
H174   H     0.79720   0.36148   0.90087   0.00000  Uiso   1.00
H175   H     0.07020   0.35139   0.37169   0.00000  Uiso   1.00
O176   O     0.02961   0.87853   0.08827   0.00000  Uiso   1.00
O177   O     0.88607   0.39975   0.78116   0.00000  Uiso   1.00
O178   O     0.24425   0.38651   0.39886   0.00000  Uiso   1.00
N179   N     0.10566   0.97491   0.06367   0.00000  Uiso   1.00
N180   N     0.00337   0.34632   0.84480   0.00000  Uiso   1.00
N181   N     0.25860   0.33691   0.28497   0.00000  Uiso   1.00
N182   N     0.96722   0.97933   0.11361   0.00000  Uiso   1.00
N183   N     0.86492   0.35074   0.89474   0.00000  Uiso   1.00
N184   N     0.12015   0.34133   0.33490   0.00000  Uiso   1.00
C185   C     0.36526   0.71896   0.06011   0.00000  Uiso   1.00
C186   C     0.40710   0.65278   0.07331   0.00000  Uiso   1.00
C187   C     0.36516   0.59468   0.05657   0.00000  Uiso   1.00
C188   C     0.41485   0.53942   0.07288   0.00000  Uiso   1.00
C189   C     0.46639   0.43623   0.08849   0.00000  Uiso   1.00
C190   C     0.43530   0.75514   0.01297   0.00000  Uiso   1.00
C191   C     0.41707   0.78310   0.94552   0.00000  Uiso   1.00
C192   C     0.49050   0.81402   0.91106   0.00000  Uiso   1.00
C193   C     0.58580   0.86978   0.83302   0.00000  Uiso   1.00
C194   C     0.36495   0.75253   0.13429   0.00000  Uiso   1.00
C195   C     0.28758   0.77832   0.16883   0.00000  Uiso   1.00
C196   C     0.30179   0.80706   0.23650   0.00000  Uiso   1.00
C197   C     0.28786   0.85877   0.34682   0.00000  Uiso   1.00
C198   C     0.52807   0.72417   0.11884   0.00000  Uiso   1.00
C199   C     0.49554   0.65561   0.10520   0.00000  Uiso   1.00
C200   C     0.54530   0.60043   0.12155   0.00000  Uiso   1.00
C201   C     0.50345   0.54225   0.10484   0.00000  Uiso   1.00
C202   C     0.52373   0.75797   0.04487   0.00000  Uiso   1.00
C203   C     0.59720   0.78885   0.01050   0.00000  Uiso   1.00
C204   C     0.57909   0.81685   0.94301   0.00000  Uiso   1.00
C205   C     0.45339   0.75536   0.16619   0.00000  Uiso   1.00
C206   C     0.46772   0.78407   0.23381   0.00000  Uiso   1.00
C207   C     0.39038   0.80989   0.26845   0.00000  Uiso   1.00
H208   H     0.29641   0.71677   0.03527   0.00000  Uiso   1.00
H209   H     0.29673   0.59251   0.03188   0.00000  Uiso   1.00
H210   H     0.34862   0.78091   0.92086   0.00000  Uiso   1.00
H211   H     0.21916   0.77612   0.14413   0.00000  Uiso   1.00
H212   H     0.33610   0.45600   0.04216   0.00000  Uiso   1.00
H213   H     0.44551   0.85326   0.80807   0.00000  Uiso   1.00
H214   H     0.17250   0.84318   0.27889   0.00000  Uiso   1.00
H215   H     0.59693   0.72637   0.14367   0.00000  Uiso   1.00
H216   H     0.61374   0.60263   0.14623   0.00000  Uiso   1.00
H217   H     0.66563   0.79103   0.03520   0.00000  Uiso   1.00
H218   H     0.53616   0.78625   0.25847   0.00000  Uiso   1.00
H219   H     0.59339   0.46421   0.13497   0.00000  Uiso   1.00
H220   H     0.70280   0.86148   0.90087   0.00000  Uiso   1.00
H221   H     0.42980   0.85139   0.37169   0.00000  Uiso   1.00
O222   O     0.47039   0.37853   0.08827   0.00000  Uiso   1.00
O223   O     0.61393   0.89975   0.78116   0.00000  Uiso   1.00
O224   O     0.25575   0.88651   0.39886   0.00000  Uiso   1.00
N225   N     0.39434   0.47491   0.06367   0.00000  Uiso   1.00
N226   N     0.49663   0.84632   0.84480   0.00000  Uiso   1.00
N227   N     0.24140   0.83691   0.28497   0.00000  Uiso   1.00
N228   N     0.53278   0.47933   0.11361   0.00000  Uiso   1.00
N229   N     0.63508   0.85074   0.89474   0.00000  Uiso   1.00
N230   N     0.37985   0.84133   0.33490   0.00000  Uiso   1.00
C231   C     0.13474   0.28104   0.56011   0.00000  Uiso   1.00
C232   C     0.09290   0.34722   0.57331   0.00000  Uiso   1.00
C233   C     0.13484   0.40532   0.55657   0.00000  Uiso   1.00
C234   C     0.08515   0.46058   0.57288   0.00000  Uiso   1.00
C235   C     0.03361   0.56377   0.58849   0.00000  Uiso   1.00
C236   C     0.06470   0.24486   0.51297   0.00000  Uiso   1.00
C237   C     0.08293   0.21690   0.44552   0.00000  Uiso   1.00
C238   C     0.00950   0.18598   0.41106   0.00000  Uiso   1.00
C239   C     0.91420   0.13022   0.33302   0.00000  Uiso   1.00
C240   C     0.13505   0.24747   0.63429   0.00000  Uiso   1.00
C241   C     0.21242   0.22168   0.66883   0.00000  Uiso   1.00
C242   C     0.19821   0.19294   0.73650   0.00000  Uiso   1.00
C243   C     0.21214   0.14123   0.84682   0.00000  Uiso   1.00
C244   C     0.97193   0.27583   0.61884   0.00000  Uiso   1.00
C245   C     0.00446   0.34439   0.60520   0.00000  Uiso   1.00
C246   C     0.95470   0.39957   0.62155   0.00000  Uiso   1.00
C247   C     0.99655   0.45775   0.60484   0.00000  Uiso   1.00
C248   C     0.97627   0.24203   0.54487   0.00000  Uiso   1.00
C249   C     0.90280   0.21115   0.51050   0.00000  Uiso   1.00
C250   C     0.92091   0.18315   0.44301   0.00000  Uiso   1.00
C251   C     0.04661   0.24464   0.66619   0.00000  Uiso   1.00
C252   C     0.03228   0.21593   0.73381   0.00000  Uiso   1.00
C253   C     0.10962   0.19011   0.76845   0.00000  Uiso   1.00
H254   H     0.20359   0.28323   0.53527   0.00000  Uiso   1.00
H255   H     0.20327   0.40749   0.53188   0.00000  Uiso   1.00
H256   H     0.15138   0.21909   0.42086   0.00000  Uiso   1.00
H257   H     0.28084   0.22388   0.64413   0.00000  Uiso   1.00
H258   H     0.16390   0.54400   0.54216   0.00000  Uiso   1.00
H259   H     0.05449   0.14674   0.30807   0.00000  Uiso   1.00
H260   H     0.32750   0.15682   0.77889   0.00000  Uiso   1.00
H261   H     0.90307   0.27363   0.64367   0.00000  Uiso   1.00
H262   H     0.88626   0.39737   0.64623   0.00000  Uiso   1.00
H263   H     0.83437   0.20897   0.53520   0.00000  Uiso   1.00
H264   H     0.96384   0.21375   0.75847   0.00000  Uiso   1.00
H265   H     0.90661   0.53579   0.63497   0.00000  Uiso   1.00
H266   H     0.79720   0.13852   0.40087   0.00000  Uiso   1.00
H267   H     0.07020   0.14861   0.87169   0.00000  Uiso   1.00
O268   O     0.02961   0.62147   0.58827   0.00000  Uiso   1.00
O269   O     0.88607   0.10025   0.28116   0.00000  Uiso   1.00
O270   O     0.24425   0.11349   0.89886   0.00000  Uiso   1.00
N271   N     0.10566   0.52509   0.56367   0.00000  Uiso   1.00
N272   N     0.00337   0.15368   0.34480   0.00000  Uiso   1.00
N273   N     0.25860   0.16309   0.78497   0.00000  Uiso   1.00
N274   N     0.96722   0.52067   0.61361   0.00000  Uiso   1.00
N275   N     0.86492   0.14926   0.39474   0.00000  Uiso   1.00
N276   N     0.12015   0.15867   0.83490   0.00000  Uiso   1.00
C277   C     0.63474   0.21896   0.43989   0.00000  Uiso   1.00
C278   C     0.59290   0.15278   0.42669   0.00000  Uiso   1.00
C279   C     0.63484   0.09468   0.44343   0.00000  Uiso   1.00
C280   C     0.58515   0.03942   0.42712   0.00000  Uiso   1.00
C281   C     0.53361   0.93623   0.41151   0.00000  Uiso   1.00
C282   C     0.56470   0.25514   0.48703   0.00000  Uiso   1.00
C283   C     0.58293   0.28310   0.55448   0.00000  Uiso   1.00
C284   C     0.50950   0.31402   0.58894   0.00000  Uiso   1.00
C285   C     0.41420   0.36978   0.66698   0.00000  Uiso   1.00
C286   C     0.63505   0.25253   0.36571   0.00000  Uiso   1.00
C287   C     0.71242   0.27832   0.33117   0.00000  Uiso   1.00
C288   C     0.69821   0.30706   0.26350   0.00000  Uiso   1.00
C289   C     0.71214   0.35877   0.15318   0.00000  Uiso   1.00
C290   C     0.47193   0.22417   0.38116   0.00000  Uiso   1.00
C291   C     0.50446   0.15561   0.39480   0.00000  Uiso   1.00
C292   C     0.45470   0.10043   0.37845   0.00000  Uiso   1.00
C293   C     0.49655   0.04225   0.39516   0.00000  Uiso   1.00
C294   C     0.47627   0.25797   0.45513   0.00000  Uiso   1.00
C295   C     0.40280   0.28885   0.48950   0.00000  Uiso   1.00
C296   C     0.42091   0.31685   0.55699   0.00000  Uiso   1.00
C297   C     0.54661   0.25536   0.33381   0.00000  Uiso   1.00
C298   C     0.53228   0.28407   0.26619   0.00000  Uiso   1.00
C299   C     0.60962   0.30989   0.23155   0.00000  Uiso   1.00
H300   H     0.70359   0.21677   0.46473   0.00000  Uiso   1.00
H301   H     0.70327   0.09251   0.46812   0.00000  Uiso   1.00
H302   H     0.65138   0.28091   0.57914   0.00000  Uiso   1.00
H303   H     0.78084   0.27612   0.35587   0.00000  Uiso   1.00
H304   H     0.66390   0.95600   0.45784   0.00000  Uiso   1.00
H305   H     0.55449   0.35326   0.69193   0.00000  Uiso   1.00
H306   H     0.82750   0.34318   0.22111   0.00000  Uiso   1.00
H307   H     0.40307   0.22637   0.35633   0.00000  Uiso   1.00
H308   H     0.38626   0.10263   0.35377   0.00000  Uiso   1.00
H309   H     0.33437   0.29103   0.46480   0.00000  Uiso   1.00
H310   H     0.46384   0.28625   0.24153   0.00000  Uiso   1.00
H311   H     0.40661   0.96421   0.36503   0.00000  Uiso   1.00
H312   H     0.29720   0.36148   0.59913   0.00000  Uiso   1.00
H313   H     0.57020   0.35139   0.12831   0.00000  Uiso   1.00
O314   O     0.52961   0.87853   0.41173   0.00000  Uiso   1.00
O315   O     0.38607   0.39975   0.71884   0.00000  Uiso   1.00
O316   O     0.74425   0.38651   0.10114   0.00000  Uiso   1.00
N317   N     0.60566   0.97491   0.43633   0.00000  Uiso   1.00
N318   N     0.50337   0.34632   0.65520   0.00000  Uiso   1.00
N319   N     0.75860   0.33691   0.21503   0.00000  Uiso   1.00
N320   N     0.46722   0.97933   0.38639   0.00000  Uiso   1.00
N321   N     0.36492   0.35074   0.60526   0.00000  Uiso   1.00
N322   N     0.62015   0.34133   0.16510   0.00000  Uiso   1.00
C323   C     0.86526   0.78104   0.93989   0.00000  Uiso   1.00
C324   C     0.90710   0.84722   0.92669   0.00000  Uiso   1.00
C325   C     0.86516   0.90532   0.94343   0.00000  Uiso   1.00
C326   C     0.91485   0.96058   0.92712   0.00000  Uiso   1.00
C327   C     0.96639   0.06377   0.91151   0.00000  Uiso   1.00
C328   C     0.93530   0.74486   0.98703   0.00000  Uiso   1.00
C329   C     0.91707   0.71690   0.05448   0.00000  Uiso   1.00
C330   C     0.99050   0.68598   0.08894   0.00000  Uiso   1.00
C331   C     0.08580   0.63022   0.16698   0.00000  Uiso   1.00
C332   C     0.86495   0.74747   0.86571   0.00000  Uiso   1.00
C333   C     0.78758   0.72168   0.83117   0.00000  Uiso   1.00
C334   C     0.80179   0.69294   0.76350   0.00000  Uiso   1.00
C335   C     0.78786   0.64123   0.65318   0.00000  Uiso   1.00
C336   C     0.02807   0.77583   0.88116   0.00000  Uiso   1.00
C337   C     0.99554   0.84439   0.89480   0.00000  Uiso   1.00
C338   C     0.04530   0.89957   0.87845   0.00000  Uiso   1.00
C339   C     0.00345   0.95775   0.89516   0.00000  Uiso   1.00
C340   C     0.02373   0.74203   0.95513   0.00000  Uiso   1.00
C341   C     0.09720   0.71115   0.98950   0.00000  Uiso   1.00
C342   C     0.07909   0.68315   0.05699   0.00000  Uiso   1.00
C343   C     0.95339   0.74464   0.83381   0.00000  Uiso   1.00
C344   C     0.96772   0.71593   0.76619   0.00000  Uiso   1.00
C345   C     0.89038   0.69011   0.73155   0.00000  Uiso   1.00
H346   H     0.79641   0.78323   0.96473   0.00000  Uiso   1.00
H347   H     0.79673   0.90749   0.96812   0.00000  Uiso   1.00
H348   H     0.84862   0.71909   0.07914   0.00000  Uiso   1.00
H349   H     0.71916   0.72388   0.85587   0.00000  Uiso   1.00
H350   H     0.83610   0.04400   0.95784   0.00000  Uiso   1.00
H351   H     0.94551   0.64674   0.19193   0.00000  Uiso   1.00
H352   H     0.67250   0.65682   0.72111   0.00000  Uiso   1.00
H353   H     0.09693   0.77363   0.85633   0.00000  Uiso   1.00
H354   H     0.11374   0.89737   0.85377   0.00000  Uiso   1.00
H355   H     0.16563   0.70897   0.96480   0.00000  Uiso   1.00
H356   H     0.03616   0.71375   0.74153   0.00000  Uiso   1.00
H357   H     0.09339   0.03579   0.86503   0.00000  Uiso   1.00
H358   H     0.20280   0.63852   0.09913   0.00000  Uiso   1.00
H359   H     0.92980   0.64861   0.62831   0.00000  Uiso   1.00
O360   O     0.97039   0.12147   0.91173   0.00000  Uiso   1.00
O361   O     0.11393   0.60025   0.21884   0.00000  Uiso   1.00
O362   O     0.75575   0.61349   0.60114   0.00000  Uiso   1.00
N363   N     0.89434   0.02509   0.93633   0.00000  Uiso   1.00
N364   N     0.99663   0.65368   0.15520   0.00000  Uiso   1.00
N365   N     0.74140   0.66309   0.71503   0.00000  Uiso   1.00
N366   N     0.03278   0.02067   0.88639   0.00000  Uiso   1.00
N367   N     0.13508   0.64926   0.10526   0.00000  Uiso   1.00
N368   N     0.87985   0.65867   0.66510   0.00000  Uiso   1.00
