data_job_03357
_audit_creation_date              2018-12-19
_audit_creation_method            'Materials Studio'
_symmetry_space_group_name_H-M    'P1'
_symmetry_Int_Tables_number       1
_symmetry_cell_setting            triclinic
loop_
_symmetry_equiv_pos_as_xyz
  x,y,z
_cell_length_a                    23.7621
_cell_length_b                    9.7263
_cell_length_c                    44.1748
_cell_angle_alpha                 90.0000
_cell_angle_beta                  111.7906
_cell_angle_gamma                 90.0000
loop_
_atom_site_label
_atom_site_type_symbol
_atom_site_fract_x
_atom_site_fract_y
_atom_site_fract_z
_atom_site_U_iso_or_equiv
_atom_site_adp_type
_atom_site_occupancy
C1     C     0.13885   0.27088   0.33536   0.00000  Uiso   1.00
C2     C     0.14445   0.32292   0.36892   0.00000  Uiso   1.00
C3     C     0.18079   0.26607   0.39855   0.00000  Uiso   1.00
C4     C     0.17956   0.32872   0.42654   0.00000  Uiso   1.00
C5     C     0.19374   0.39194   0.47890   0.00000  Uiso   1.00
C6     C     0.07162   0.24273   0.31687   0.00000  Uiso   1.00
C7     C     0.04674   0.11846   0.30274   0.00000  Uiso   1.00
C8     C     0.98420   0.11362   0.28691   0.00000  Uiso   1.00
C9     C     0.88533   0.05237   0.25844   0.00000  Uiso   1.00
C10    C     0.15470   0.39251   0.31823   0.00000  Uiso   1.00
C11    C     0.19966   0.39418   0.30524   0.00000  Uiso   1.00
C12    C     0.20707   0.51544   0.29055   0.00000  Uiso   1.00
C13    C     0.23719   0.68675   0.26420   0.00000  Uiso   1.00
C14    C     0.07205   0.48324   0.33236   0.00000  Uiso   1.00
C15    C     0.10816   0.43826   0.36729   0.00000  Uiso   1.00
C16    C     0.10688   0.50103   0.39524   0.00000  Uiso   1.00
C17    C     0.14321   0.44428   0.42491   0.00000  Uiso   1.00
C18    C     0.03534   0.35807   0.31524   0.00000  Uiso   1.00
C19    C     0.97283   0.35342   0.29943   0.00000  Uiso   1.00
C20    C     0.94785   0.22917   0.28528   0.00000  Uiso   1.00
C21    C     0.11842   0.50786   0.31661   0.00000  Uiso   1.00
C22    C     0.12576   0.62914   0.30193   0.00000  Uiso   1.00
C23    C     0.17072   0.63099   0.28892   0.00000  Uiso   1.00
H24    H     0.16710   0.18107   0.33662   0.00000  Uiso   1.00
H25    H     0.20886   0.17679   0.39980   0.00000  Uiso   1.00
H26    H     0.07483   0.02922   0.30400   0.00000  Uiso   1.00
H27    H     0.22773   0.30489   0.30650   0.00000  Uiso   1.00
H28    H     0.23913   0.22289   0.46913   0.00000  Uiso   1.00
H29    H     0.95653   0.91173   0.26711   0.00000  Uiso   1.00
H30    H     0.27896   0.49305   0.27240   0.00000  Uiso   1.00
H31    H     0.04380   0.57305   0.33109   0.00000  Uiso   1.00
H32    H     0.07880   0.59029   0.39397   0.00000  Uiso   1.00
H33    H     0.94476   0.44270   0.29817   0.00000  Uiso   1.00
H34    H     0.09767   0.71838   0.30068   0.00000  Uiso   1.00
H35    H     0.13357   0.55849   0.46440   0.00000  Uiso   1.00
H36    H     0.85096   0.24733   0.26238   0.00000  Uiso   1.00
H37    H     0.17339   0.82865   0.26767   0.00000  Uiso   1.00
O38    O     0.21158   0.39493   0.50823   0.00000  Uiso   1.00
O39    O     0.84082   0.98670   0.24319   0.00000  Uiso   1.00
O40    O     0.26383   0.74938   0.25012   0.00000  Uiso   1.00
N41    N     0.20950   0.29952   0.45939   0.00000  Uiso   1.00
N42    N     0.94527   0.00860   0.27052   0.00000  Uiso   1.00
N43    N     0.24671   0.55207   0.27545   0.00000  Uiso   1.00
N44    N     0.15269   0.48011   0.45684   0.00000  Uiso   1.00
N45    N     0.88847   0.18918   0.26798   0.00000  Uiso   1.00
N46    N     0.18991   0.73266   0.27290   0.00000  Uiso   1.00
C47    C     0.63885   0.77088   0.33536   0.00000  Uiso   1.00
C48    C     0.64445   0.82292   0.36892   0.00000  Uiso   1.00
C49    C     0.68079   0.76607   0.39855   0.00000  Uiso   1.00
C50    C     0.67956   0.82872   0.42654   0.00000  Uiso   1.00
C51    C     0.69374   0.89194   0.47890   0.00000  Uiso   1.00
C52    C     0.57162   0.74273   0.31687   0.00000  Uiso   1.00
C53    C     0.54674   0.61846   0.30274   0.00000  Uiso   1.00
C54    C     0.48420   0.61362   0.28691   0.00000  Uiso   1.00
C55    C     0.38533   0.55237   0.25844   0.00000  Uiso   1.00
C56    C     0.65470   0.89251   0.31823   0.00000  Uiso   1.00
C57    C     0.69966   0.89418   0.30524   0.00000  Uiso   1.00
C58    C     0.70707   0.01544   0.29055   0.00000  Uiso   1.00
C59    C     0.73719   0.18675   0.26420   0.00000  Uiso   1.00
C60    C     0.57205   0.98324   0.33236   0.00000  Uiso   1.00
C61    C     0.60816   0.93826   0.36729   0.00000  Uiso   1.00
C62    C     0.60688   0.00103   0.39524   0.00000  Uiso   1.00
C63    C     0.64321   0.94428   0.42491   0.00000  Uiso   1.00
C64    C     0.53534   0.85807   0.31524   0.00000  Uiso   1.00
C65    C     0.47283   0.85342   0.29943   0.00000  Uiso   1.00
C66    C     0.44785   0.72917   0.28528   0.00000  Uiso   1.00
C67    C     0.61842   0.00786   0.31661   0.00000  Uiso   1.00
C68    C     0.62576   0.12914   0.30193   0.00000  Uiso   1.00
C69    C     0.67072   0.13099   0.28892   0.00000  Uiso   1.00
H70    H     0.66710   0.68107   0.33662   0.00000  Uiso   1.00
H71    H     0.70886   0.67679   0.39980   0.00000  Uiso   1.00
H72    H     0.57483   0.52922   0.30400   0.00000  Uiso   1.00
H73    H     0.72773   0.80489   0.30650   0.00000  Uiso   1.00
H74    H     0.73913   0.72289   0.46913   0.00000  Uiso   1.00
H75    H     0.45653   0.41173   0.26711   0.00000  Uiso   1.00
H76    H     0.77896   0.99305   0.27240   0.00000  Uiso   1.00
H77    H     0.54380   0.07305   0.33109   0.00000  Uiso   1.00
H78    H     0.57880   0.09029   0.39397   0.00000  Uiso   1.00
H79    H     0.44476   0.94270   0.29817   0.00000  Uiso   1.00
H80    H     0.59767   0.21838   0.30068   0.00000  Uiso   1.00
H81    H     0.63357   0.05849   0.46440   0.00000  Uiso   1.00
H82    H     0.35096   0.74733   0.26238   0.00000  Uiso   1.00
H83    H     0.67339   0.32865   0.26767   0.00000  Uiso   1.00
O84    O     0.71158   0.89493   0.50823   0.00000  Uiso   1.00
O85    O     0.34082   0.48670   0.24319   0.00000  Uiso   1.00
O86    O     0.76383   0.24938   0.25012   0.00000  Uiso   1.00
N87    N     0.70950   0.79952   0.45939   0.00000  Uiso   1.00
N88    N     0.44527   0.50860   0.27052   0.00000  Uiso   1.00
N89    N     0.74671   0.05207   0.27545   0.00000  Uiso   1.00
N90    N     0.65269   0.98011   0.45684   0.00000  Uiso   1.00
N91    N     0.38847   0.68918   0.26798   0.00000  Uiso   1.00
N92    N     0.68991   0.23266   0.27290   0.00000  Uiso   1.00
C93    C     0.86115   0.27088   0.16464   0.00000  Uiso   1.00
C94    C     0.85555   0.32292   0.13108   0.00000  Uiso   1.00
C95    C     0.81921   0.26607   0.10145   0.00000  Uiso   1.00
C96    C     0.82044   0.32872   0.07346   0.00000  Uiso   1.00
C97    C     0.80626   0.39194   0.02110   0.00000  Uiso   1.00
C98    C     0.92838   0.24273   0.18313   0.00000  Uiso   1.00
C99    C     0.95326   0.11846   0.19726   0.00000  Uiso   1.00
C100   C     0.01580   0.11362   0.21309   0.00000  Uiso   1.00
C101   C     0.11467   0.05237   0.24156   0.00000  Uiso   1.00
C102   C     0.84530   0.39251   0.18177   0.00000  Uiso   1.00
C103   C     0.80034   0.39418   0.19476   0.00000  Uiso   1.00
C104   C     0.79293   0.51544   0.20945   0.00000  Uiso   1.00
C105   C     0.76281   0.68675   0.23580   0.00000  Uiso   1.00
C106   C     0.92795   0.48324   0.16764   0.00000  Uiso   1.00
C107   C     0.89184   0.43826   0.13271   0.00000  Uiso   1.00
C108   C     0.89312   0.50103   0.10476   0.00000  Uiso   1.00
C109   C     0.85679   0.44428   0.07509   0.00000  Uiso   1.00
C110   C     0.96466   0.35807   0.18476   0.00000  Uiso   1.00
C111   C     0.02717   0.35342   0.20057   0.00000  Uiso   1.00
C112   C     0.05215   0.22917   0.21472   0.00000  Uiso   1.00
C113   C     0.88158   0.50786   0.18339   0.00000  Uiso   1.00
C114   C     0.87424   0.62914   0.19807   0.00000  Uiso   1.00
C115   C     0.82928   0.63099   0.21108   0.00000  Uiso   1.00
H116   H     0.83290   0.18107   0.16338   0.00000  Uiso   1.00
H117   H     0.79114   0.17679   0.10020   0.00000  Uiso   1.00
H118   H     0.92517   0.02922   0.19600   0.00000  Uiso   1.00
H119   H     0.77227   0.30489   0.19350   0.00000  Uiso   1.00
H120   H     0.76087   0.22289   0.03087   0.00000  Uiso   1.00
H121   H     0.04347   0.91173   0.23289   0.00000  Uiso   1.00
H122   H     0.72104   0.49305   0.22760   0.00000  Uiso   1.00
H123   H     0.95620   0.57305   0.16891   0.00000  Uiso   1.00
H124   H     0.92120   0.59029   0.10603   0.00000  Uiso   1.00
H125   H     0.05524   0.44270   0.20183   0.00000  Uiso   1.00
H126   H     0.90233   0.71838   0.19932   0.00000  Uiso   1.00
H127   H     0.86643   0.55849   0.03560   0.00000  Uiso   1.00
H128   H     0.14904   0.24733   0.23762   0.00000  Uiso   1.00
H129   H     0.82661   0.82865   0.23233   0.00000  Uiso   1.00
O130   O     0.78842   0.39493   0.99177   0.00000  Uiso   1.00
O131   O     0.15918   0.98670   0.25681   0.00000  Uiso   1.00
O132   O     0.73617   0.74938   0.24988   0.00000  Uiso   1.00
N133   N     0.79050   0.29952   0.04061   0.00000  Uiso   1.00
N134   N     0.05473   0.00860   0.22948   0.00000  Uiso   1.00
N135   N     0.75329   0.55207   0.22455   0.00000  Uiso   1.00
N136   N     0.84731   0.48011   0.04316   0.00000  Uiso   1.00
N137   N     0.11153   0.18918   0.23202   0.00000  Uiso   1.00
N138   N     0.81009   0.73266   0.22710   0.00000  Uiso   1.00
C139   C     0.36115   0.77088   0.16464   0.00000  Uiso   1.00
C140   C     0.35555   0.82292   0.13108   0.00000  Uiso   1.00
C141   C     0.31921   0.76607   0.10145   0.00000  Uiso   1.00
C142   C     0.32044   0.82872   0.07346   0.00000  Uiso   1.00
C143   C     0.30626   0.89194   0.02110   0.00000  Uiso   1.00
C144   C     0.42838   0.74273   0.18313   0.00000  Uiso   1.00
C145   C     0.45326   0.61846   0.19726   0.00000  Uiso   1.00
C146   C     0.51580   0.61362   0.21309   0.00000  Uiso   1.00
C147   C     0.61467   0.55237   0.24156   0.00000  Uiso   1.00
C148   C     0.34530   0.89251   0.18177   0.00000  Uiso   1.00
C149   C     0.30034   0.89418   0.19476   0.00000  Uiso   1.00
C150   C     0.29293   0.01544   0.20945   0.00000  Uiso   1.00
C151   C     0.26281   0.18675   0.23580   0.00000  Uiso   1.00
C152   C     0.42795   0.98324   0.16764   0.00000  Uiso   1.00
C153   C     0.39184   0.93826   0.13271   0.00000  Uiso   1.00
C154   C     0.39312   0.00103   0.10476   0.00000  Uiso   1.00
C155   C     0.35679   0.94428   0.07509   0.00000  Uiso   1.00
C156   C     0.46466   0.85807   0.18476   0.00000  Uiso   1.00
C157   C     0.52717   0.85342   0.20057   0.00000  Uiso   1.00
C158   C     0.55215   0.72917   0.21472   0.00000  Uiso   1.00
C159   C     0.38158   0.00786   0.18339   0.00000  Uiso   1.00
C160   C     0.37424   0.12914   0.19807   0.00000  Uiso   1.00
C161   C     0.32928   0.13099   0.21108   0.00000  Uiso   1.00
H162   H     0.33290   0.68107   0.16338   0.00000  Uiso   1.00
H163   H     0.29114   0.67679   0.10020   0.00000  Uiso   1.00
H164   H     0.42517   0.52922   0.19600   0.00000  Uiso   1.00
H165   H     0.27227   0.80489   0.19350   0.00000  Uiso   1.00
H166   H     0.26087   0.72289   0.03087   0.00000  Uiso   1.00
H167   H     0.54347   0.41173   0.23289   0.00000  Uiso   1.00
H168   H     0.22104   0.99305   0.22760   0.00000  Uiso   1.00
H169   H     0.45620   0.07305   0.16891   0.00000  Uiso   1.00
H170   H     0.42120   0.09029   0.10603   0.00000  Uiso   1.00
H171   H     0.55524   0.94270   0.20183   0.00000  Uiso   1.00
H172   H     0.40233   0.21838   0.19932   0.00000  Uiso   1.00
H173   H     0.36643   0.05849   0.03560   0.00000  Uiso   1.00
H174   H     0.64904   0.74733   0.23762   0.00000  Uiso   1.00
H175   H     0.32661   0.32865   0.23233   0.00000  Uiso   1.00
O176   O     0.28842   0.89493   0.99177   0.00000  Uiso   1.00
O177   O     0.65918   0.48670   0.25681   0.00000  Uiso   1.00
O178   O     0.23617   0.24938   0.24988   0.00000  Uiso   1.00
N179   N     0.29050   0.79952   0.04061   0.00000  Uiso   1.00
N180   N     0.55473   0.50860   0.22948   0.00000  Uiso   1.00
N181   N     0.25329   0.05207   0.22455   0.00000  Uiso   1.00
N182   N     0.34731   0.98011   0.04316   0.00000  Uiso   1.00
N183   N     0.61153   0.68918   0.23202   0.00000  Uiso   1.00
N184   N     0.31009   0.23266   0.22710   0.00000  Uiso   1.00
C185   C     0.86115   0.72912   0.66464   0.00000  Uiso   1.00
C186   C     0.85555   0.67708   0.63108   0.00000  Uiso   1.00
C187   C     0.81921   0.73393   0.60145   0.00000  Uiso   1.00
C188   C     0.82044   0.67128   0.57346   0.00000  Uiso   1.00
C189   C     0.80626   0.60806   0.52110   0.00000  Uiso   1.00
C190   C     0.92838   0.75727   0.68313   0.00000  Uiso   1.00
C191   C     0.95326   0.88154   0.69726   0.00000  Uiso   1.00
C192   C     0.01580   0.88638   0.71309   0.00000  Uiso   1.00
C193   C     0.11467   0.94763   0.74156   0.00000  Uiso   1.00
C194   C     0.84530   0.60749   0.68177   0.00000  Uiso   1.00
C195   C     0.80034   0.60582   0.69476   0.00000  Uiso   1.00
C196   C     0.79293   0.48456   0.70945   0.00000  Uiso   1.00
C197   C     0.76281   0.31325   0.73580   0.00000  Uiso   1.00
C198   C     0.92795   0.51676   0.66764   0.00000  Uiso   1.00
C199   C     0.89184   0.56174   0.63271   0.00000  Uiso   1.00
C200   C     0.89312   0.49897   0.60476   0.00000  Uiso   1.00
C201   C     0.85679   0.55572   0.57509   0.00000  Uiso   1.00
C202   C     0.96466   0.64193   0.68476   0.00000  Uiso   1.00
C203   C     0.02717   0.64658   0.70057   0.00000  Uiso   1.00
C204   C     0.05215   0.77083   0.71472   0.00000  Uiso   1.00
C205   C     0.88158   0.49214   0.68339   0.00000  Uiso   1.00
C206   C     0.87424   0.37086   0.69807   0.00000  Uiso   1.00
C207   C     0.82928   0.36901   0.71108   0.00000  Uiso   1.00
H208   H     0.83290   0.81893   0.66338   0.00000  Uiso   1.00
H209   H     0.79114   0.82321   0.60020   0.00000  Uiso   1.00
H210   H     0.92517   0.97078   0.69600   0.00000  Uiso   1.00
H211   H     0.77227   0.69511   0.69350   0.00000  Uiso   1.00
H212   H     0.76087   0.77711   0.53087   0.00000  Uiso   1.00
H213   H     0.04347   0.08827   0.73289   0.00000  Uiso   1.00
H214   H     0.72104   0.50695   0.72760   0.00000  Uiso   1.00
H215   H     0.95620   0.42695   0.66891   0.00000  Uiso   1.00
H216   H     0.92120   0.40971   0.60603   0.00000  Uiso   1.00
H217   H     0.05524   0.55730   0.70183   0.00000  Uiso   1.00
H218   H     0.90233   0.28162   0.69932   0.00000  Uiso   1.00
H219   H     0.86643   0.44151   0.53560   0.00000  Uiso   1.00
H220   H     0.14904   0.75267   0.73762   0.00000  Uiso   1.00
H221   H     0.82661   0.17135   0.73233   0.00000  Uiso   1.00
O222   O     0.78842   0.60507   0.49177   0.00000  Uiso   1.00
O223   O     0.15918   0.01330   0.75681   0.00000  Uiso   1.00
O224   O     0.73617   0.25062   0.74988   0.00000  Uiso   1.00
N225   N     0.79050   0.70048   0.54061   0.00000  Uiso   1.00
N226   N     0.05473   0.99140   0.72948   0.00000  Uiso   1.00
N227   N     0.75329   0.44793   0.72455   0.00000  Uiso   1.00
N228   N     0.84731   0.51989   0.54316   0.00000  Uiso   1.00
N229   N     0.11153   0.81082   0.73202   0.00000  Uiso   1.00
N230   N     0.81009   0.26734   0.72710   0.00000  Uiso   1.00
C231   C     0.36115   0.22912   0.66464   0.00000  Uiso   1.00
C232   C     0.35555   0.17708   0.63108   0.00000  Uiso   1.00
C233   C     0.31921   0.23393   0.60145   0.00000  Uiso   1.00
C234   C     0.32044   0.17128   0.57346   0.00000  Uiso   1.00
C235   C     0.30626   0.10806   0.52110   0.00000  Uiso   1.00
C236   C     0.42838   0.25727   0.68313   0.00000  Uiso   1.00
C237   C     0.45326   0.38154   0.69726   0.00000  Uiso   1.00
C238   C     0.51580   0.38638   0.71309   0.00000  Uiso   1.00
C239   C     0.61467   0.44763   0.74156   0.00000  Uiso   1.00
C240   C     0.34530   0.10749   0.68177   0.00000  Uiso   1.00
C241   C     0.30034   0.10582   0.69476   0.00000  Uiso   1.00
C242   C     0.29293   0.98456   0.70945   0.00000  Uiso   1.00
C243   C     0.26281   0.81325   0.73580   0.00000  Uiso   1.00
C244   C     0.42795   0.01676   0.66764   0.00000  Uiso   1.00
C245   C     0.39184   0.06174   0.63271   0.00000  Uiso   1.00
C246   C     0.39312   0.99897   0.60476   0.00000  Uiso   1.00
C247   C     0.35679   0.05572   0.57509   0.00000  Uiso   1.00
C248   C     0.46466   0.14193   0.68476   0.00000  Uiso   1.00
C249   C     0.52717   0.14658   0.70057   0.00000  Uiso   1.00
C250   C     0.55215   0.27083   0.71472   0.00000  Uiso   1.00
C251   C     0.38158   0.99214   0.68339   0.00000  Uiso   1.00
C252   C     0.37424   0.87086   0.69807   0.00000  Uiso   1.00
C253   C     0.32928   0.86901   0.71108   0.00000  Uiso   1.00
H254   H     0.33290   0.31893   0.66338   0.00000  Uiso   1.00
H255   H     0.29114   0.32321   0.60020   0.00000  Uiso   1.00
H256   H     0.42517   0.47078   0.69600   0.00000  Uiso   1.00
H257   H     0.27227   0.19511   0.69350   0.00000  Uiso   1.00
H258   H     0.26087   0.27711   0.53087   0.00000  Uiso   1.00
H259   H     0.54347   0.58827   0.73289   0.00000  Uiso   1.00
H260   H     0.22104   0.00695   0.72760   0.00000  Uiso   1.00
H261   H     0.45620   0.92695   0.66891   0.00000  Uiso   1.00
H262   H     0.42120   0.90971   0.60603   0.00000  Uiso   1.00
H263   H     0.55524   0.05730   0.70183   0.00000  Uiso   1.00
H264   H     0.40233   0.78162   0.69932   0.00000  Uiso   1.00
H265   H     0.36643   0.94151   0.53560   0.00000  Uiso   1.00
H266   H     0.64904   0.25267   0.73762   0.00000  Uiso   1.00
H267   H     0.32661   0.67135   0.73233   0.00000  Uiso   1.00
O268   O     0.28842   0.10507   0.49177   0.00000  Uiso   1.00
O269   O     0.65918   0.51330   0.75681   0.00000  Uiso   1.00
O270   O     0.23617   0.75062   0.74988   0.00000  Uiso   1.00
N271   N     0.29050   0.20048   0.54061   0.00000  Uiso   1.00
N272   N     0.55473   0.49140   0.72948   0.00000  Uiso   1.00
N273   N     0.25329   0.94793   0.72455   0.00000  Uiso   1.00
N274   N     0.34731   0.01989   0.54316   0.00000  Uiso   1.00
N275   N     0.61153   0.31082   0.73202   0.00000  Uiso   1.00
N276   N     0.31009   0.76734   0.72710   0.00000  Uiso   1.00
C277   C     0.13885   0.72912   0.83536   0.00000  Uiso   1.00
C278   C     0.14445   0.67708   0.86892   0.00000  Uiso   1.00
C279   C     0.18079   0.73393   0.89855   0.00000  Uiso   1.00
C280   C     0.17956   0.67128   0.92654   0.00000  Uiso   1.00
C281   C     0.19374   0.60806   0.97890   0.00000  Uiso   1.00
C282   C     0.07162   0.75727   0.81687   0.00000  Uiso   1.00
C283   C     0.04674   0.88154   0.80274   0.00000  Uiso   1.00
C284   C     0.98420   0.88638   0.78691   0.00000  Uiso   1.00
C285   C     0.88533   0.94763   0.75844   0.00000  Uiso   1.00
C286   C     0.15470   0.60749   0.81823   0.00000  Uiso   1.00
C287   C     0.19966   0.60582   0.80524   0.00000  Uiso   1.00
C288   C     0.20707   0.48456   0.79055   0.00000  Uiso   1.00
C289   C     0.23719   0.31325   0.76420   0.00000  Uiso   1.00
C290   C     0.07205   0.51676   0.83236   0.00000  Uiso   1.00
C291   C     0.10816   0.56174   0.86729   0.00000  Uiso   1.00
C292   C     0.10688   0.49897   0.89524   0.00000  Uiso   1.00
C293   C     0.14321   0.55572   0.92491   0.00000  Uiso   1.00
C294   C     0.03534   0.64193   0.81524   0.00000  Uiso   1.00
C295   C     0.97283   0.64658   0.79943   0.00000  Uiso   1.00
C296   C     0.94785   0.77083   0.78528   0.00000  Uiso   1.00
C297   C     0.11842   0.49214   0.81661   0.00000  Uiso   1.00
C298   C     0.12576   0.37086   0.80193   0.00000  Uiso   1.00
C299   C     0.17072   0.36901   0.78892   0.00000  Uiso   1.00
H300   H     0.16710   0.81893   0.83662   0.00000  Uiso   1.00
H301   H     0.20886   0.82321   0.89980   0.00000  Uiso   1.00
H302   H     0.07483   0.97078   0.80400   0.00000  Uiso   1.00
H303   H     0.22773   0.69511   0.80650   0.00000  Uiso   1.00
H304   H     0.23913   0.77711   0.96913   0.00000  Uiso   1.00
H305   H     0.95653   0.08827   0.76711   0.00000  Uiso   1.00
H306   H     0.27896   0.50695   0.77240   0.00000  Uiso   1.00
H307   H     0.04380   0.42695   0.83109   0.00000  Uiso   1.00
H308   H     0.07880   0.40971   0.89397   0.00000  Uiso   1.00
H309   H     0.94476   0.55730   0.79817   0.00000  Uiso   1.00
H310   H     0.09767   0.28162   0.80068   0.00000  Uiso   1.00
H311   H     0.13357   0.44151   0.96440   0.00000  Uiso   1.00
H312   H     0.85096   0.75267   0.76238   0.00000  Uiso   1.00
H313   H     0.17339   0.17135   0.76767   0.00000  Uiso   1.00
O314   O     0.21158   0.60507   0.00823   0.00000  Uiso   1.00
O315   O     0.84082   0.01330   0.74319   0.00000  Uiso   1.00
O316   O     0.26383   0.25062   0.75012   0.00000  Uiso   1.00
N317   N     0.20950   0.70048   0.95939   0.00000  Uiso   1.00
N318   N     0.94527   0.99140   0.77052   0.00000  Uiso   1.00
N319   N     0.24671   0.44793   0.77545   0.00000  Uiso   1.00
N320   N     0.15269   0.51989   0.95684   0.00000  Uiso   1.00
N321   N     0.88847   0.81082   0.76798   0.00000  Uiso   1.00
N322   N     0.18991   0.26734   0.77290   0.00000  Uiso   1.00
C323   C     0.63885   0.22912   0.83536   0.00000  Uiso   1.00
C324   C     0.64445   0.17708   0.86892   0.00000  Uiso   1.00
C325   C     0.68079   0.23393   0.89855   0.00000  Uiso   1.00
C326   C     0.67956   0.17128   0.92654   0.00000  Uiso   1.00
C327   C     0.69374   0.10806   0.97890   0.00000  Uiso   1.00
C328   C     0.57162   0.25727   0.81687   0.00000  Uiso   1.00
C329   C     0.54674   0.38154   0.80274   0.00000  Uiso   1.00
C330   C     0.48420   0.38638   0.78691   0.00000  Uiso   1.00
C331   C     0.38533   0.44763   0.75844   0.00000  Uiso   1.00
C332   C     0.65470   0.10749   0.81823   0.00000  Uiso   1.00
C333   C     0.69966   0.10582   0.80524   0.00000  Uiso   1.00
C334   C     0.70707   0.98456   0.79055   0.00000  Uiso   1.00
C335   C     0.73719   0.81325   0.76420   0.00000  Uiso   1.00
C336   C     0.57205   0.01676   0.83236   0.00000  Uiso   1.00
C337   C     0.60816   0.06174   0.86729   0.00000  Uiso   1.00
C338   C     0.60688   0.99897   0.89524   0.00000  Uiso   1.00
C339   C     0.64321   0.05572   0.92491   0.00000  Uiso   1.00
C340   C     0.53534   0.14193   0.81524   0.00000  Uiso   1.00
C341   C     0.47283   0.14658   0.79943   0.00000  Uiso   1.00
C342   C     0.44785   0.27083   0.78528   0.00000  Uiso   1.00
C343   C     0.61842   0.99214   0.81661   0.00000  Uiso   1.00
C344   C     0.62576   0.87086   0.80193   0.00000  Uiso   1.00
C345   C     0.67072   0.86901   0.78892   0.00000  Uiso   1.00
H346   H     0.66710   0.31893   0.83662   0.00000  Uiso   1.00
H347   H     0.70886   0.32321   0.89980   0.00000  Uiso   1.00
H348   H     0.57483   0.47078   0.80400   0.00000  Uiso   1.00
H349   H     0.72773   0.19511   0.80650   0.00000  Uiso   1.00
H350   H     0.73913   0.27711   0.96913   0.00000  Uiso   1.00
H351   H     0.45653   0.58827   0.76711   0.00000  Uiso   1.00
H352   H     0.77896   0.00695   0.77240   0.00000  Uiso   1.00
H353   H     0.54380   0.92695   0.83109   0.00000  Uiso   1.00
H354   H     0.57880   0.90971   0.89397   0.00000  Uiso   1.00
H355   H     0.44476   0.05730   0.79817   0.00000  Uiso   1.00
H356   H     0.59767   0.78162   0.80068   0.00000  Uiso   1.00
H357   H     0.63357   0.94151   0.96440   0.00000  Uiso   1.00
H358   H     0.35096   0.25267   0.76238   0.00000  Uiso   1.00
H359   H     0.67339   0.67135   0.76767   0.00000  Uiso   1.00
O360   O     0.71158   0.10507   0.00823   0.00000  Uiso   1.00
O361   O     0.34082   0.51330   0.74319   0.00000  Uiso   1.00
O362   O     0.76383   0.75062   0.75012   0.00000  Uiso   1.00
N363   N     0.70950   0.20048   0.95939   0.00000  Uiso   1.00
N364   N     0.44527   0.49140   0.77052   0.00000  Uiso   1.00
N365   N     0.74671   0.94793   0.77545   0.00000  Uiso   1.00
N366   N     0.65269   0.01989   0.95684   0.00000  Uiso   1.00
N367   N     0.38847   0.31082   0.76798   0.00000  Uiso   1.00
N368   N     0.68991   0.76734   0.77290   0.00000  Uiso   1.00
