data_job_02644
_audit_creation_date              2018-12-19
_audit_creation_method            'Materials Studio'
_symmetry_space_group_name_H-M    'P1'
_symmetry_Int_Tables_number       1
_symmetry_cell_setting            triclinic
loop_
_symmetry_equiv_pos_as_xyz
  x,y,z
_cell_length_a                    20.1486
_cell_length_b                    25.8473
_cell_length_c                    11.6010
_cell_angle_alpha                 90.0000
_cell_angle_beta                  90.0000
_cell_angle_gamma                 90.0000
loop_
_atom_site_label
_atom_site_type_symbol
_atom_site_fract_x
_atom_site_fract_y
_atom_site_fract_z
_atom_site_U_iso_or_equiv
_atom_site_adp_type
_atom_site_occupancy
C1     C     0.19921   0.42747   0.75963   0.00000  Uiso   1.00
C2     C     0.23983   0.38075   0.79798   0.00000  Uiso   1.00
C3     C     0.30853   0.37708   0.79576   0.00000  Uiso   1.00
C4     C     0.33624   0.33108   0.83449   0.00000  Uiso   1.00
C5     C     0.40533   0.26474   0.88797   0.00000  Uiso   1.00
C6     C     0.15134   0.40759   0.66796   0.00000  Uiso   1.00
C7     C     0.14564   0.42649   0.55642   0.00000  Uiso   1.00
C8     C     0.09885   0.40308   0.48570   0.00000  Uiso   1.00
C9     C     0.03053   0.37845   0.33734   0.00000  Uiso   1.00
C10    C     0.15648   0.44254   0.86278   0.00000  Uiso   1.00
C11    C     0.15508   0.49082   0.91505   0.00000  Uiso   1.00
C12    C     0.11261   0.49684   0.00834   0.00000  Uiso   1.00
C13    C     0.05226   0.52646   0.16249   0.00000  Uiso   1.00
C14    C     0.12626   0.35230   0.83236   0.00000  Uiso   1.00
C15    C     0.20020   0.33992   0.83748   0.00000  Uiso   1.00
C16    C     0.22782   0.29391   0.87623   0.00000  Uiso   1.00
C17    C     0.29655   0.29017   0.87407   0.00000  Uiso   1.00
C18    C     0.11171   0.36676   0.70745   0.00000  Uiso   1.00
C19    C     0.06492   0.34332   0.63688   0.00000  Uiso   1.00
C20    C     0.05916   0.36218   0.52527   0.00000  Uiso   1.00
C21    C     0.11685   0.40171   0.90229   0.00000  Uiso   1.00
C22    C     0.07437   0.40765   0.99551   0.00000  Uiso   1.00
C23    C     0.07291   0.45594   0.04791   0.00000  Uiso   1.00
H24    H     0.23006   0.45925   0.72887   0.00000  Uiso   1.00
H25    H     0.33918   0.40869   0.76517   0.00000  Uiso   1.00
H26    H     0.17630   0.45809   0.52588   0.00000  Uiso   1.00
H27    H     0.18575   0.52241   0.88445   0.00000  Uiso   1.00
H28    H     0.44268   0.33461   0.82280   0.00000  Uiso   1.00
H29    H     0.09924   0.43880   0.31825   0.00000  Uiso   1.00
H30    H     0.11915   0.57443   0.07437   0.00000  Uiso   1.00
H31    H     0.09541   0.32051   0.86311   0.00000  Uiso   1.00
H32    H     0.19714   0.26232   0.90679   0.00000  Uiso   1.00
H33    H     0.03427   0.31173   0.66748   0.00000  Uiso   1.00
H34    H     0.04371   0.37605   0.02606   0.00000  Uiso   1.00
H35    H     0.32740   0.21581   0.93774   0.00000  Uiso   1.00
H36    H     0.98395   0.32000   0.43318   0.00000  Uiso   1.00
H37    H     0.00387   0.45563   0.18930   0.00000  Uiso   1.00
O38    O     0.45439   0.23943   0.90654   0.00000  Uiso   1.00
O39    O     0.00380   0.37613   0.24459   0.00000  Uiso   1.00
O40    O     0.02993   0.55407   0.23661   0.00000  Uiso   1.00
N41    N     0.40159   0.31464   0.84388   0.00000  Uiso   1.00
N42    N     0.08050   0.41204   0.37214   0.00000  Uiso   1.00
N43    N     0.09910   0.53885   0.07904   0.00000  Uiso   1.00
N44    N     0.33955   0.25072   0.90573   0.00000  Uiso   1.00
N45    N     0.01846   0.34812   0.43399   0.00000  Uiso   1.00
N46    N     0.03707   0.47493   0.14088   0.00000  Uiso   1.00
C47    C     0.30079   0.57253   0.75963   0.00000  Uiso   1.00
C48    C     0.26017   0.61925   0.79798   0.00000  Uiso   1.00
C49    C     0.19147   0.62292   0.79576   0.00000  Uiso   1.00
C50    C     0.16376   0.66892   0.83449   0.00000  Uiso   1.00
C51    C     0.09467   0.73526   0.88797   0.00000  Uiso   1.00
C52    C     0.34866   0.59241   0.66796   0.00000  Uiso   1.00
C53    C     0.35436   0.57351   0.55642   0.00000  Uiso   1.00
C54    C     0.40115   0.59692   0.48570   0.00000  Uiso   1.00
C55    C     0.46947   0.62155   0.33734   0.00000  Uiso   1.00
C56    C     0.34352   0.55746   0.86278   0.00000  Uiso   1.00
C57    C     0.34492   0.50918   0.91505   0.00000  Uiso   1.00
C58    C     0.38739   0.50316   0.00834   0.00000  Uiso   1.00
C59    C     0.44774   0.47354   0.16249   0.00000  Uiso   1.00
C60    C     0.37374   0.64770   0.83236   0.00000  Uiso   1.00
C61    C     0.29980   0.66008   0.83748   0.00000  Uiso   1.00
C62    C     0.27218   0.70609   0.87623   0.00000  Uiso   1.00
C63    C     0.20345   0.70983   0.87407   0.00000  Uiso   1.00
C64    C     0.38829   0.63324   0.70745   0.00000  Uiso   1.00
C65    C     0.43508   0.65668   0.63688   0.00000  Uiso   1.00
C66    C     0.44084   0.63782   0.52527   0.00000  Uiso   1.00
C67    C     0.38315   0.59829   0.90229   0.00000  Uiso   1.00
C68    C     0.42563   0.59235   0.99551   0.00000  Uiso   1.00
C69    C     0.42709   0.54406   0.04791   0.00000  Uiso   1.00
H70    H     0.26994   0.54075   0.72887   0.00000  Uiso   1.00
H71    H     0.16082   0.59131   0.76517   0.00000  Uiso   1.00
H72    H     0.32370   0.54191   0.52588   0.00000  Uiso   1.00
H73    H     0.31425   0.47759   0.88445   0.00000  Uiso   1.00
H74    H     0.05732   0.66539   0.82280   0.00000  Uiso   1.00
H75    H     0.40076   0.56120   0.31825   0.00000  Uiso   1.00
H76    H     0.38085   0.42557   0.07437   0.00000  Uiso   1.00
H77    H     0.40459   0.67949   0.86311   0.00000  Uiso   1.00
H78    H     0.30286   0.73768   0.90679   0.00000  Uiso   1.00
H79    H     0.46573   0.68827   0.66748   0.00000  Uiso   1.00
H80    H     0.45629   0.62395   0.02606   0.00000  Uiso   1.00
H81    H     0.17260   0.78419   0.93774   0.00000  Uiso   1.00
H82    H     0.51605   0.68000   0.43318   0.00000  Uiso   1.00
H83    H     0.49613   0.54437   0.18930   0.00000  Uiso   1.00
O84    O     0.04561   0.76057   0.90654   0.00000  Uiso   1.00
O85    O     0.49620   0.62387   0.24459   0.00000  Uiso   1.00
O86    O     0.47007   0.44593   0.23661   0.00000  Uiso   1.00
N87    N     0.09841   0.68536   0.84388   0.00000  Uiso   1.00
N88    N     0.41950   0.58796   0.37214   0.00000  Uiso   1.00
N89    N     0.40090   0.46115   0.07904   0.00000  Uiso   1.00
N90    N     0.16045   0.74928   0.90573   0.00000  Uiso   1.00
N91    N     0.48154   0.65188   0.43399   0.00000  Uiso   1.00
N92    N     0.46293   0.52507   0.14088   0.00000  Uiso   1.00
C93    C     0.30079   0.92747   0.74037   0.00000  Uiso   1.00
C94    C     0.26017   0.88075   0.70202   0.00000  Uiso   1.00
C95    C     0.19147   0.87708   0.70424   0.00000  Uiso   1.00
C96    C     0.16376   0.83108   0.66551   0.00000  Uiso   1.00
C97    C     0.09467   0.76474   0.61203   0.00000  Uiso   1.00
C98    C     0.34866   0.90759   0.83204   0.00000  Uiso   1.00
C99    C     0.35436   0.92649   0.94358   0.00000  Uiso   1.00
C100   C     0.40115   0.90308   0.01430   0.00000  Uiso   1.00
C101   C     0.46947   0.87845   0.16266   0.00000  Uiso   1.00
C102   C     0.34352   0.94254   0.63722   0.00000  Uiso   1.00
C103   C     0.34492   0.99082   0.58495   0.00000  Uiso   1.00
C104   C     0.38739   0.99684   0.49166   0.00000  Uiso   1.00
C105   C     0.44774   0.02646   0.33751   0.00000  Uiso   1.00
C106   C     0.37374   0.85230   0.66764   0.00000  Uiso   1.00
C107   C     0.29980   0.83992   0.66252   0.00000  Uiso   1.00
C108   C     0.27218   0.79391   0.62377   0.00000  Uiso   1.00
C109   C     0.20345   0.79017   0.62593   0.00000  Uiso   1.00
C110   C     0.38829   0.86676   0.79255   0.00000  Uiso   1.00
C111   C     0.43508   0.84332   0.86312   0.00000  Uiso   1.00
C112   C     0.44084   0.86218   0.97473   0.00000  Uiso   1.00
C113   C     0.38315   0.90171   0.59771   0.00000  Uiso   1.00
C114   C     0.42563   0.90765   0.50449   0.00000  Uiso   1.00
C115   C     0.42709   0.95594   0.45209   0.00000  Uiso   1.00
H116   H     0.26994   0.95925   0.77113   0.00000  Uiso   1.00
H117   H     0.16082   0.90869   0.73483   0.00000  Uiso   1.00
H118   H     0.32370   0.95809   0.97412   0.00000  Uiso   1.00
H119   H     0.31425   0.02241   0.61555   0.00000  Uiso   1.00
H120   H     0.05732   0.83461   0.67720   0.00000  Uiso   1.00
H121   H     0.40076   0.93880   0.18175   0.00000  Uiso   1.00
H122   H     0.38085   0.07443   0.42563   0.00000  Uiso   1.00
H123   H     0.40459   0.82051   0.63689   0.00000  Uiso   1.00
H124   H     0.30286   0.76232   0.59321   0.00000  Uiso   1.00
H125   H     0.46573   0.81173   0.83252   0.00000  Uiso   1.00
H126   H     0.45629   0.87605   0.47394   0.00000  Uiso   1.00
H127   H     0.17260   0.71581   0.56226   0.00000  Uiso   1.00
H128   H     0.51605   0.82000   0.06682   0.00000  Uiso   1.00
H129   H     0.49613   0.95563   0.31070   0.00000  Uiso   1.00
O130   O     0.04561   0.73943   0.59346   0.00000  Uiso   1.00
O131   O     0.49620   0.87613   0.25541   0.00000  Uiso   1.00
O132   O     0.47007   0.05407   0.26339   0.00000  Uiso   1.00
N133   N     0.09841   0.81464   0.65612   0.00000  Uiso   1.00
N134   N     0.41950   0.91204   0.12786   0.00000  Uiso   1.00
N135   N     0.40090   0.03885   0.42096   0.00000  Uiso   1.00
N136   N     0.16045   0.75072   0.59427   0.00000  Uiso   1.00
N137   N     0.48154   0.84812   0.06601   0.00000  Uiso   1.00
N138   N     0.46293   0.97493   0.35912   0.00000  Uiso   1.00
C139   C     0.19921   0.07253   0.74037   0.00000  Uiso   1.00
C140   C     0.23983   0.11925   0.70202   0.00000  Uiso   1.00
C141   C     0.30853   0.12292   0.70424   0.00000  Uiso   1.00
C142   C     0.33624   0.16892   0.66551   0.00000  Uiso   1.00
C143   C     0.40533   0.23526   0.61203   0.00000  Uiso   1.00
C144   C     0.15134   0.09241   0.83204   0.00000  Uiso   1.00
C145   C     0.14564   0.07351   0.94358   0.00000  Uiso   1.00
C146   C     0.09885   0.09692   0.01430   0.00000  Uiso   1.00
C147   C     0.03053   0.12155   0.16266   0.00000  Uiso   1.00
C148   C     0.15648   0.05746   0.63722   0.00000  Uiso   1.00
C149   C     0.15508   0.00918   0.58495   0.00000  Uiso   1.00
C150   C     0.11261   0.00316   0.49166   0.00000  Uiso   1.00
C151   C     0.05226   0.97354   0.33751   0.00000  Uiso   1.00
C152   C     0.12626   0.14770   0.66764   0.00000  Uiso   1.00
C153   C     0.20020   0.16008   0.66252   0.00000  Uiso   1.00
C154   C     0.22782   0.20609   0.62377   0.00000  Uiso   1.00
C155   C     0.29655   0.20983   0.62593   0.00000  Uiso   1.00
C156   C     0.11171   0.13324   0.79255   0.00000  Uiso   1.00
C157   C     0.06492   0.15668   0.86312   0.00000  Uiso   1.00
C158   C     0.05916   0.13782   0.97473   0.00000  Uiso   1.00
C159   C     0.11685   0.09829   0.59771   0.00000  Uiso   1.00
C160   C     0.07437   0.09235   0.50449   0.00000  Uiso   1.00
C161   C     0.07291   0.04406   0.45209   0.00000  Uiso   1.00
H162   H     0.23006   0.04075   0.77113   0.00000  Uiso   1.00
H163   H     0.33918   0.09131   0.73483   0.00000  Uiso   1.00
H164   H     0.17630   0.04191   0.97412   0.00000  Uiso   1.00
H165   H     0.18575   0.97759   0.61555   0.00000  Uiso   1.00
H166   H     0.44268   0.16539   0.67720   0.00000  Uiso   1.00
H167   H     0.09924   0.06120   0.18175   0.00000  Uiso   1.00
H168   H     0.11915   0.92557   0.42563   0.00000  Uiso   1.00
H169   H     0.09541   0.17949   0.63689   0.00000  Uiso   1.00
H170   H     0.19714   0.23768   0.59321   0.00000  Uiso   1.00
H171   H     0.03427   0.18827   0.83252   0.00000  Uiso   1.00
H172   H     0.04371   0.12395   0.47394   0.00000  Uiso   1.00
H173   H     0.32740   0.28419   0.56226   0.00000  Uiso   1.00
H174   H     0.98395   0.18000   0.06682   0.00000  Uiso   1.00
H175   H     0.00387   0.04437   0.31070   0.00000  Uiso   1.00
O176   O     0.45439   0.26057   0.59346   0.00000  Uiso   1.00
O177   O     0.00380   0.12387   0.25541   0.00000  Uiso   1.00
O178   O     0.02993   0.94593   0.26339   0.00000  Uiso   1.00
N179   N     0.40159   0.18536   0.65612   0.00000  Uiso   1.00
N180   N     0.08050   0.08796   0.12786   0.00000  Uiso   1.00
N181   N     0.09910   0.96115   0.42096   0.00000  Uiso   1.00
N182   N     0.33955   0.24928   0.59427   0.00000  Uiso   1.00
N183   N     0.01846   0.15188   0.06601   0.00000  Uiso   1.00
N184   N     0.03707   0.02507   0.35912   0.00000  Uiso   1.00
C185   C     0.80079   0.57253   0.24037   0.00000  Uiso   1.00
C186   C     0.76017   0.61925   0.20202   0.00000  Uiso   1.00
C187   C     0.69147   0.62292   0.20424   0.00000  Uiso   1.00
C188   C     0.66376   0.66892   0.16551   0.00000  Uiso   1.00
C189   C     0.59467   0.73526   0.11203   0.00000  Uiso   1.00
C190   C     0.84866   0.59241   0.33204   0.00000  Uiso   1.00
C191   C     0.85436   0.57351   0.44358   0.00000  Uiso   1.00
C192   C     0.90115   0.59692   0.51430   0.00000  Uiso   1.00
C193   C     0.96947   0.62155   0.66266   0.00000  Uiso   1.00
C194   C     0.84352   0.55746   0.13722   0.00000  Uiso   1.00
C195   C     0.84492   0.50918   0.08495   0.00000  Uiso   1.00
C196   C     0.88739   0.50316   0.99166   0.00000  Uiso   1.00
C197   C     0.94774   0.47354   0.83751   0.00000  Uiso   1.00
C198   C     0.87374   0.64770   0.16764   0.00000  Uiso   1.00
C199   C     0.79980   0.66008   0.16252   0.00000  Uiso   1.00
C200   C     0.77218   0.70609   0.12377   0.00000  Uiso   1.00
C201   C     0.70345   0.70983   0.12593   0.00000  Uiso   1.00
C202   C     0.88829   0.63324   0.29255   0.00000  Uiso   1.00
C203   C     0.93508   0.65668   0.36312   0.00000  Uiso   1.00
C204   C     0.94084   0.63782   0.47473   0.00000  Uiso   1.00
C205   C     0.88315   0.59829   0.09771   0.00000  Uiso   1.00
C206   C     0.92563   0.59235   0.00449   0.00000  Uiso   1.00
C207   C     0.92709   0.54406   0.95209   0.00000  Uiso   1.00
H208   H     0.76994   0.54075   0.27113   0.00000  Uiso   1.00
H209   H     0.66082   0.59131   0.23483   0.00000  Uiso   1.00
H210   H     0.82370   0.54191   0.47412   0.00000  Uiso   1.00
H211   H     0.81425   0.47759   0.11555   0.00000  Uiso   1.00
H212   H     0.55732   0.66539   0.17720   0.00000  Uiso   1.00
H213   H     0.90076   0.56120   0.68175   0.00000  Uiso   1.00
H214   H     0.88085   0.42557   0.92563   0.00000  Uiso   1.00
H215   H     0.90459   0.67949   0.13689   0.00000  Uiso   1.00
H216   H     0.80286   0.73768   0.09321   0.00000  Uiso   1.00
H217   H     0.96573   0.68827   0.33252   0.00000  Uiso   1.00
H218   H     0.95629   0.62395   0.97394   0.00000  Uiso   1.00
H219   H     0.67260   0.78419   0.06226   0.00000  Uiso   1.00
H220   H     0.01605   0.68000   0.56682   0.00000  Uiso   1.00
H221   H     0.99613   0.54437   0.81070   0.00000  Uiso   1.00
O222   O     0.54561   0.76057   0.09346   0.00000  Uiso   1.00
O223   O     0.99620   0.62387   0.75541   0.00000  Uiso   1.00
O224   O     0.97007   0.44593   0.76339   0.00000  Uiso   1.00
N225   N     0.59841   0.68536   0.15612   0.00000  Uiso   1.00
N226   N     0.91950   0.58796   0.62786   0.00000  Uiso   1.00
N227   N     0.90090   0.46115   0.92096   0.00000  Uiso   1.00
N228   N     0.66045   0.74928   0.09427   0.00000  Uiso   1.00
N229   N     0.98154   0.65188   0.56601   0.00000  Uiso   1.00
N230   N     0.96293   0.52507   0.85912   0.00000  Uiso   1.00
C231   C     0.69921   0.42747   0.24037   0.00000  Uiso   1.00
C232   C     0.73983   0.38075   0.20202   0.00000  Uiso   1.00
C233   C     0.80853   0.37708   0.20424   0.00000  Uiso   1.00
C234   C     0.83624   0.33108   0.16551   0.00000  Uiso   1.00
C235   C     0.90533   0.26474   0.11203   0.00000  Uiso   1.00
C236   C     0.65134   0.40759   0.33204   0.00000  Uiso   1.00
C237   C     0.64564   0.42649   0.44358   0.00000  Uiso   1.00
C238   C     0.59885   0.40308   0.51430   0.00000  Uiso   1.00
C239   C     0.53053   0.37845   0.66266   0.00000  Uiso   1.00
C240   C     0.65648   0.44254   0.13722   0.00000  Uiso   1.00
C241   C     0.65508   0.49082   0.08495   0.00000  Uiso   1.00
C242   C     0.61261   0.49684   0.99166   0.00000  Uiso   1.00
C243   C     0.55226   0.52646   0.83751   0.00000  Uiso   1.00
C244   C     0.62626   0.35230   0.16764   0.00000  Uiso   1.00
C245   C     0.70020   0.33992   0.16252   0.00000  Uiso   1.00
C246   C     0.72782   0.29391   0.12377   0.00000  Uiso   1.00
C247   C     0.79655   0.29017   0.12593   0.00000  Uiso   1.00
C248   C     0.61171   0.36676   0.29255   0.00000  Uiso   1.00
C249   C     0.56492   0.34332   0.36312   0.00000  Uiso   1.00
C250   C     0.55916   0.36218   0.47473   0.00000  Uiso   1.00
C251   C     0.61685   0.40171   0.09771   0.00000  Uiso   1.00
C252   C     0.57437   0.40765   0.00449   0.00000  Uiso   1.00
C253   C     0.57291   0.45594   0.95209   0.00000  Uiso   1.00
H254   H     0.73006   0.45925   0.27113   0.00000  Uiso   1.00
H255   H     0.83918   0.40869   0.23483   0.00000  Uiso   1.00
H256   H     0.67630   0.45809   0.47412   0.00000  Uiso   1.00
H257   H     0.68575   0.52241   0.11555   0.00000  Uiso   1.00
H258   H     0.94268   0.33461   0.17720   0.00000  Uiso   1.00
H259   H     0.59924   0.43880   0.68175   0.00000  Uiso   1.00
H260   H     0.61915   0.57443   0.92563   0.00000  Uiso   1.00
H261   H     0.59541   0.32051   0.13689   0.00000  Uiso   1.00
H262   H     0.69714   0.26232   0.09321   0.00000  Uiso   1.00
H263   H     0.53427   0.31173   0.33252   0.00000  Uiso   1.00
H264   H     0.54371   0.37605   0.97394   0.00000  Uiso   1.00
H265   H     0.82740   0.21581   0.06226   0.00000  Uiso   1.00
H266   H     0.48395   0.32000   0.56682   0.00000  Uiso   1.00
H267   H     0.50387   0.45563   0.81070   0.00000  Uiso   1.00
O268   O     0.95439   0.23943   0.09346   0.00000  Uiso   1.00
O269   O     0.50380   0.37613   0.75541   0.00000  Uiso   1.00
O270   O     0.52993   0.55407   0.76339   0.00000  Uiso   1.00
N271   N     0.90159   0.31464   0.15612   0.00000  Uiso   1.00
N272   N     0.58050   0.41204   0.62786   0.00000  Uiso   1.00
N273   N     0.59910   0.53885   0.92096   0.00000  Uiso   1.00
N274   N     0.83955   0.25072   0.09427   0.00000  Uiso   1.00
N275   N     0.51846   0.34812   0.56601   0.00000  Uiso   1.00
N276   N     0.53707   0.47493   0.85912   0.00000  Uiso   1.00
C277   C     0.69921   0.07253   0.25963   0.00000  Uiso   1.00
C278   C     0.73983   0.11925   0.29798   0.00000  Uiso   1.00
C279   C     0.80853   0.12292   0.29576   0.00000  Uiso   1.00
C280   C     0.83624   0.16892   0.33449   0.00000  Uiso   1.00
C281   C     0.90533   0.23526   0.38797   0.00000  Uiso   1.00
C282   C     0.65134   0.09241   0.16796   0.00000  Uiso   1.00
C283   C     0.64564   0.07351   0.05642   0.00000  Uiso   1.00
C284   C     0.59885   0.09692   0.98570   0.00000  Uiso   1.00
C285   C     0.53053   0.12155   0.83734   0.00000  Uiso   1.00
C286   C     0.65648   0.05746   0.36278   0.00000  Uiso   1.00
C287   C     0.65508   0.00918   0.41505   0.00000  Uiso   1.00
C288   C     0.61261   0.00316   0.50834   0.00000  Uiso   1.00
C289   C     0.55226   0.97354   0.66249   0.00000  Uiso   1.00
C290   C     0.62626   0.14770   0.33236   0.00000  Uiso   1.00
C291   C     0.70020   0.16008   0.33748   0.00000  Uiso   1.00
C292   C     0.72782   0.20609   0.37623   0.00000  Uiso   1.00
C293   C     0.79655   0.20983   0.37407   0.00000  Uiso   1.00
C294   C     0.61171   0.13324   0.20745   0.00000  Uiso   1.00
C295   C     0.56492   0.15668   0.13688   0.00000  Uiso   1.00
C296   C     0.55916   0.13782   0.02527   0.00000  Uiso   1.00
C297   C     0.61685   0.09829   0.40229   0.00000  Uiso   1.00
C298   C     0.57437   0.09235   0.49551   0.00000  Uiso   1.00
C299   C     0.57291   0.04406   0.54791   0.00000  Uiso   1.00
H300   H     0.73006   0.04075   0.22887   0.00000  Uiso   1.00
H301   H     0.83918   0.09131   0.26517   0.00000  Uiso   1.00
H302   H     0.67630   0.04191   0.02588   0.00000  Uiso   1.00
H303   H     0.68575   0.97759   0.38445   0.00000  Uiso   1.00
H304   H     0.94268   0.16539   0.32280   0.00000  Uiso   1.00
H305   H     0.59924   0.06120   0.81825   0.00000  Uiso   1.00
H306   H     0.61915   0.92557   0.57437   0.00000  Uiso   1.00
H307   H     0.59541   0.17949   0.36311   0.00000  Uiso   1.00
H308   H     0.69714   0.23768   0.40679   0.00000  Uiso   1.00
H309   H     0.53427   0.18827   0.16748   0.00000  Uiso   1.00
H310   H     0.54371   0.12395   0.52606   0.00000  Uiso   1.00
H311   H     0.82740   0.28419   0.43774   0.00000  Uiso   1.00
H312   H     0.48395   0.18000   0.93318   0.00000  Uiso   1.00
H313   H     0.50387   0.04437   0.68930   0.00000  Uiso   1.00
O314   O     0.95439   0.26057   0.40654   0.00000  Uiso   1.00
O315   O     0.50380   0.12387   0.74459   0.00000  Uiso   1.00
O316   O     0.52993   0.94593   0.73661   0.00000  Uiso   1.00
N317   N     0.90159   0.18536   0.34388   0.00000  Uiso   1.00
N318   N     0.58050   0.08796   0.87214   0.00000  Uiso   1.00
N319   N     0.59910   0.96115   0.57904   0.00000  Uiso   1.00
N320   N     0.83955   0.24928   0.40573   0.00000  Uiso   1.00
N321   N     0.51846   0.15188   0.93399   0.00000  Uiso   1.00
N322   N     0.53707   0.02507   0.64088   0.00000  Uiso   1.00
C323   C     0.80079   0.92747   0.25963   0.00000  Uiso   1.00
C324   C     0.76017   0.88075   0.29798   0.00000  Uiso   1.00
C325   C     0.69147   0.87708   0.29576   0.00000  Uiso   1.00
C326   C     0.66376   0.83108   0.33449   0.00000  Uiso   1.00
C327   C     0.59467   0.76474   0.38797   0.00000  Uiso   1.00
C328   C     0.84866   0.90759   0.16796   0.00000  Uiso   1.00
C329   C     0.85436   0.92649   0.05642   0.00000  Uiso   1.00
C330   C     0.90115   0.90308   0.98570   0.00000  Uiso   1.00
C331   C     0.96947   0.87845   0.83734   0.00000  Uiso   1.00
C332   C     0.84352   0.94254   0.36278   0.00000  Uiso   1.00
C333   C     0.84492   0.99082   0.41505   0.00000  Uiso   1.00
C334   C     0.88739   0.99684   0.50834   0.00000  Uiso   1.00
C335   C     0.94774   0.02646   0.66249   0.00000  Uiso   1.00
C336   C     0.87374   0.85230   0.33236   0.00000  Uiso   1.00
C337   C     0.79980   0.83992   0.33748   0.00000  Uiso   1.00
C338   C     0.77218   0.79391   0.37623   0.00000  Uiso   1.00
C339   C     0.70345   0.79017   0.37407   0.00000  Uiso   1.00
C340   C     0.88829   0.86676   0.20745   0.00000  Uiso   1.00
C341   C     0.93508   0.84332   0.13688   0.00000  Uiso   1.00
C342   C     0.94084   0.86218   0.02527   0.00000  Uiso   1.00
C343   C     0.88315   0.90171   0.40229   0.00000  Uiso   1.00
C344   C     0.92563   0.90765   0.49551   0.00000  Uiso   1.00
C345   C     0.92709   0.95594   0.54791   0.00000  Uiso   1.00
H346   H     0.76994   0.95925   0.22887   0.00000  Uiso   1.00
H347   H     0.66082   0.90869   0.26517   0.00000  Uiso   1.00
H348   H     0.82370   0.95809   0.02588   0.00000  Uiso   1.00
H349   H     0.81425   0.02241   0.38445   0.00000  Uiso   1.00
H350   H     0.55732   0.83461   0.32280   0.00000  Uiso   1.00
H351   H     0.90076   0.93880   0.81825   0.00000  Uiso   1.00
H352   H     0.88085   0.07443   0.57437   0.00000  Uiso   1.00
H353   H     0.90459   0.82051   0.36311   0.00000  Uiso   1.00
H354   H     0.80286   0.76232   0.40679   0.00000  Uiso   1.00
H355   H     0.96573   0.81173   0.16748   0.00000  Uiso   1.00
H356   H     0.95629   0.87605   0.52606   0.00000  Uiso   1.00
H357   H     0.67260   0.71581   0.43774   0.00000  Uiso   1.00
H358   H     0.01605   0.82000   0.93318   0.00000  Uiso   1.00
H359   H     0.99613   0.95563   0.68930   0.00000  Uiso   1.00
O360   O     0.54561   0.73943   0.40654   0.00000  Uiso   1.00
O361   O     0.99620   0.87613   0.74459   0.00000  Uiso   1.00
O362   O     0.97007   0.05407   0.73661   0.00000  Uiso   1.00
N363   N     0.59841   0.81464   0.34388   0.00000  Uiso   1.00
N364   N     0.91950   0.91204   0.87214   0.00000  Uiso   1.00
N365   N     0.90090   0.03885   0.57904   0.00000  Uiso   1.00
N366   N     0.66045   0.75072   0.40573   0.00000  Uiso   1.00
N367   N     0.98154   0.84812   0.93399   0.00000  Uiso   1.00
N368   N     0.96293   0.97493   0.64088   0.00000  Uiso   1.00
