data_job_04611
_audit_creation_date              2018-12-19
_audit_creation_method            'Materials Studio'
_symmetry_space_group_name_H-M    'P1'
_symmetry_Int_Tables_number       1
_symmetry_cell_setting            triclinic
loop_
_symmetry_equiv_pos_as_xyz
  x,y,z
_cell_length_a                    7.2671
_cell_length_b                    21.5554
_cell_length_c                    43.8319
_cell_angle_alpha                 90.9177
_cell_angle_beta                  91.9004
_cell_angle_gamma                 90.4105
loop_
_atom_site_label
_atom_site_type_symbol
_atom_site_fract_x
_atom_site_fract_y
_atom_site_fract_z
_atom_site_U_iso_or_equiv
_atom_site_adp_type
_atom_site_occupancy
C1     C     0.00465   0.11565   0.11519   0.00000  Uiso   1.00
C2     C     0.95053   0.13884   0.14667   0.00000  Uiso   1.00
C3     C     0.07162   0.15664   0.17041   0.00000  Uiso   1.00
C4     C     0.99483   0.17647   0.19743   0.00000  Uiso   1.00
C5     C     0.93985   0.21215   0.24584   0.00000  Uiso   1.00
C6     C     0.91282   0.05221   0.11057   0.00000  Uiso   1.00
C7     C     0.00221   0.99718   0.10395   0.00000  Uiso   1.00
C8     C     0.89367   0.94408   0.10057   0.00000  Uiso   1.00
C9     C     0.78014   0.84528   0.09291   0.00000  Uiso   1.00
C10    C     0.90957   0.15835   0.09228   0.00000  Uiso   1.00
C11    C     0.99622   0.19253   0.07028   0.00000  Uiso   1.00
C12    C     0.88493   0.22879   0.05150   0.00000  Uiso   1.00
C13    C     0.76635   0.29477   0.01544   0.00000  Uiso   1.00
C14    C     0.65293   0.11923   0.12095   0.00000  Uiso   1.00
C15    C     0.75949   0.14078   0.14980   0.00000  Uiso   1.00
C16    C     0.68249   0.16059   0.17679   0.00000  Uiso   1.00
C17    C     0.80344   0.17842   0.20057   0.00000  Uiso   1.00
C18    C     0.72179   0.05415   0.11370   0.00000  Uiso   1.00
C19    C     0.61308   0.00113   0.11033   0.00000  Uiso   1.00
C20    C     0.70229   0.94603   0.10371   0.00000  Uiso   1.00
C21    C     0.71853   0.16029   0.09541   0.00000  Uiso   1.00
C22    C     0.60709   0.19649   0.07666   0.00000  Uiso   1.00
C23    C     0.69354   0.23073   0.05463   0.00000  Uiso   1.00
H24    H     0.15338   0.11414   0.11275   0.00000  Uiso   1.00
H25    H     0.21945   0.15513   0.16798   0.00000  Uiso   1.00
H26    H     0.15005   0.99569   0.10152   0.00000  Uiso   1.00
H27    H     0.14405   0.19102   0.06786   0.00000  Uiso   1.00
H28    H     0.20846   0.20140   0.23059   0.00000  Uiso   1.00
H29    H     0.06212   0.86523   0.09046   0.00000  Uiso   1.00
H30    H     0.04947   0.27712   0.01947   0.00000  Uiso   1.00
H31    H     0.50420   0.12074   0.12339   0.00000  Uiso   1.00
H32    H     0.53465   0.16209   0.17921   0.00000  Uiso   1.00
H33    H     0.46525   0.00265   0.11275   0.00000  Uiso   1.00
H34    H     0.45926   0.19798   0.07909   0.00000  Uiso   1.00
H35    H     0.65265   0.20705   0.23971   0.00000  Uiso   1.00
H36    H     0.50631   0.87087   0.09957   0.00000  Uiso   1.00
H37    H     0.49366   0.28277   0.02859   0.00000  Uiso   1.00
O38    O     0.96230   0.23129   0.27168   0.00000  Uiso   1.00
O39    O     0.77031   0.79024   0.08782   0.00000  Uiso   1.00
O40    O     0.75372   0.33064   0.99469   0.00000  Uiso   1.00
N41    N     0.07347   0.19707   0.22508   0.00000  Uiso   1.00
N42    N     0.93665   0.88276   0.09407   0.00000  Uiso   1.00
N43    N     0.92483   0.26783   0.02769   0.00000  Uiso   1.00
N44    N     0.77439   0.20011   0.22998   0.00000  Uiso   1.00
N45    N     0.63758   0.88580   0.09897   0.00000  Uiso   1.00
N46    N     0.62575   0.27087   0.03260   0.00000  Uiso   1.00
C47    C     0.34825   0.54246   0.62358   0.00000  Uiso   1.00
C48    C     0.28820   0.56461   0.65491   0.00000  Uiso   1.00
C49    C     0.40488   0.58269   0.67919   0.00000  Uiso   1.00
C50    C     0.32299   0.60143   0.70595   0.00000  Uiso   1.00
C51    C     0.25891   0.63570   0.75424   0.00000  Uiso   1.00
C52    C     0.26064   0.47853   0.61830   0.00000  Uiso   1.00
C53    C     0.35415   0.42424   0.61180   0.00000  Uiso   1.00
C54    C     0.24904   0.37052   0.60774   0.00000  Uiso   1.00
C55    C     0.14216   0.27115   0.59918   0.00000  Uiso   1.00
C56    C     0.25406   0.58501   0.60051   0.00000  Uiso   1.00
C57    C     0.34203   0.62024   0.57905   0.00000  Uiso   1.00
C58    C     0.23138   0.65616   0.56000   0.00000  Uiso   1.00
C59    C     0.11428   0.72212   0.52381   0.00000  Uiso   1.00
C60    C     0.99533   0.54360   0.62792   0.00000  Uiso   1.00
C61    C     0.09651   0.56523   0.65726   0.00000  Uiso   1.00
C62    C     0.01442   0.58394   0.68399   0.00000  Uiso   1.00
C63    C     0.13096   0.60205   0.70831   0.00000  Uiso   1.00
C64    C     0.06895   0.47915   0.62066   0.00000  Uiso   1.00
C65    C     0.96368   0.42549   0.61660   0.00000  Uiso   1.00
C66    C     0.05700   0.37113   0.61011   0.00000  Uiso   1.00
C67    C     0.06237   0.58563   0.60287   0.00000  Uiso   1.00
C68    C     0.95156   0.62150   0.58385   0.00000  Uiso   1.00
C69    C     0.03934   0.65677   0.56236   0.00000  Uiso   1.00
H70    H     0.49749   0.54198   0.62174   0.00000  Uiso   1.00
H71    H     0.55323   0.58220   0.67736   0.00000  Uiso   1.00
H72    H     0.50249   0.42378   0.60998   0.00000  Uiso   1.00
H73    H     0.49037   0.61975   0.57723   0.00000  Uiso   1.00
H74    H     0.53048   0.62704   0.74006   0.00000  Uiso   1.00
H75    H     0.42350   0.29300   0.59797   0.00000  Uiso   1.00
H76    H     0.39795   0.70625   0.52891   0.00000  Uiso   1.00
H77    H     0.84608   0.54407   0.62976   0.00000  Uiso   1.00
H78    H     0.86607   0.58442   0.68581   0.00000  Uiso   1.00
H79    H     0.81534   0.42599   0.61843   0.00000  Uiso   1.00
H80    H     0.80322   0.62196   0.58568   0.00000  Uiso   1.00
H81    H     0.97276   0.62884   0.74692   0.00000  Uiso   1.00
H82    H     0.86578   0.29479   0.60483   0.00000  Uiso   1.00
H83    H     0.84023   0.70804   0.53578   0.00000  Uiso   1.00
O84    O     0.27653   0.65442   0.78022   0.00000  Uiso   1.00
O85    O     0.13617   0.21617   0.59381   0.00000  Uiso   1.00
O86    O     0.10265   0.75834   0.50320   0.00000  Uiso   1.00
N87    N     0.39648   0.62194   0.73398   0.00000  Uiso   1.00
N88    N     0.29646   0.30963   0.60114   0.00000  Uiso   1.00
N89    N     0.27257   0.69597   0.53657   0.00000  Uiso   1.00
N90    N     0.09637   0.62291   0.73767   0.00000  Uiso   1.00
N91    N     0.99635   0.31060   0.60483   0.00000  Uiso   1.00
N92    N     0.97246   0.69694   0.54026   0.00000  Uiso   1.00
C93    C     0.07620   0.49793   0.08876   0.00000  Uiso   1.00
C94    C     0.15219   0.46718   0.11758   0.00000  Uiso   1.00
C95    C     0.04799   0.44215   0.14039   0.00000  Uiso   1.00
C96    C     0.14346   0.41612   0.16492   0.00000  Uiso   1.00
C97    C     0.23213   0.36854   0.20942   0.00000  Uiso   1.00
C98    C     0.16170   0.56274   0.08872   0.00000  Uiso   1.00
C99    C     0.06549   0.61805   0.08726   0.00000  Uiso   1.00
C100   C     0.16898   0.67246   0.08749   0.00000  Uiso   1.00
C101   C     0.27240   0.77325   0.08716   0.00000  Uiso   1.00
C102   C     0.15791   0.46269   0.06204   0.00000  Uiso   1.00
C103   C     0.05852   0.43389   0.03815   0.00000  Uiso   1.00
C104   C     0.15883   0.40408   0.01592   0.00000  Uiso   1.00
C105   C     0.25638   0.34952   0.97418   0.00000  Uiso   1.00
C106   C     0.43106   0.49620   0.09175   0.00000  Uiso   1.00
C107   C     0.34493   0.46624   0.11920   0.00000  Uiso   1.00
C108   C     0.44059   0.44023   0.14370   0.00000  Uiso   1.00
C109   C     0.33655   0.41517   0.16655   0.00000  Uiso   1.00
C110   C     0.35443   0.56180   0.09034   0.00000  Uiso   1.00
C111   C     0.45809   0.61614   0.09057   0.00000  Uiso   1.00
C112   C     0.36207   0.67153   0.08912   0.00000  Uiso   1.00
C113   C     0.35065   0.46175   0.06367   0.00000  Uiso   1.00
C114   C     0.45113   0.43198   0.04146   0.00000  Uiso   1.00
C115   C     0.35192   0.40314   0.01755   0.00000  Uiso   1.00
H116   H     0.92615   0.49866   0.08750   0.00000  Uiso   1.00
H117   H     0.89883   0.44289   0.13913   0.00000  Uiso   1.00
H118   H     0.91633   0.61877   0.08600   0.00000  Uiso   1.00
H119   H     0.90937   0.43463   0.03690   0.00000  Uiso   1.00
H120   H     0.95354   0.38066   0.19709   0.00000  Uiso   1.00
H121   H     0.99044   0.75151   0.08506   0.00000  Uiso   1.00
H122   H     0.97577   0.36322   0.98152   0.00000  Uiso   1.00
H123   H     0.58112   0.49547   0.09302   0.00000  Uiso   1.00
H124   H     0.58975   0.43951   0.14495   0.00000  Uiso   1.00
H125   H     0.60724   0.61539   0.09183   0.00000  Uiso   1.00
H126   H     0.60029   0.43126   0.04273   0.00000  Uiso   1.00
H127   H     0.51432   0.37793   0.20182   0.00000  Uiso   1.00
H128   H     0.55121   0.74877   0.08979   0.00000  Uiso   1.00
H129   H     0.53654   0.36049   0.98626   0.00000  Uiso   1.00
O130   O     0.22779   0.34256   0.23353   0.00000  Uiso   1.00
O131   O     0.27619   0.82910   0.08654   0.00000  Uiso   1.00
O132   O     0.25694   0.31968   0.95070   0.00000  Uiso   1.00
N133   N     0.08434   0.38768   0.19107   0.00000  Uiso   1.00
N134   N     0.11884   0.73440   0.08634   0.00000  Uiso   1.00
N135   N     0.10512   0.37141   0.98953   0.00000  Uiso   1.00
N136   N     0.38609   0.38621   0.19362   0.00000  Uiso   1.00
N137   N     0.42058   0.73293   0.08888   0.00000  Uiso   1.00
N138   N     0.40686   0.36993   0.99208   0.00000  Uiso   1.00
C139   C     0.42350   0.92874   0.59666   0.00000  Uiso   1.00
C140   C     0.49274   0.89678   0.62558   0.00000  Uiso   1.00
C141   C     0.38318   0.87242   0.64786   0.00000  Uiso   1.00
C142   C     0.47293   0.84506   0.67260   0.00000  Uiso   1.00
C143   C     0.55119   0.79590   0.71716   0.00000  Uiso   1.00
C144   C     0.51470   0.99270   0.59723   0.00000  Uiso   1.00
C145   C     0.42359   0.04899   0.59567   0.00000  Uiso   1.00
C146   C     0.53183   0.10237   0.59653   0.00000  Uiso   1.00
C147   C     0.64418   0.20212   0.59705   0.00000  Uiso   1.00
C148   C     0.50580   0.89313   0.57011   0.00000  Uiso   1.00
C149   C     0.40721   0.86570   0.54575   0.00000  Uiso   1.00
C150   C     0.50797   0.83526   0.52377   0.00000  Uiso   1.00
C151   C     0.60649   0.78041   0.48219   0.00000  Uiso   1.00
C152   C     0.77773   0.92346   0.60095   0.00000  Uiso   1.00
C153   C     0.68515   0.89392   0.62791   0.00000  Uiso   1.00
C154   C     0.77509   0.86658   0.65261   0.00000  Uiso   1.00
C155   C     0.66568   0.84218   0.67493   0.00000  Uiso   1.00
C156   C     0.70709   0.98984   0.59956   0.00000  Uiso   1.00
C157   C     0.81550   0.04314   0.60042   0.00000  Uiso   1.00
C158   C     0.72458   0.09949   0.59886   0.00000  Uiso   1.00
C159   C     0.69820   0.89026   0.57244   0.00000  Uiso   1.00
C160   C     0.79913   0.85986   0.55050   0.00000  Uiso   1.00
C161   C     0.70072   0.83238   0.52611   0.00000  Uiso   1.00
H162   H     0.27371   0.93098   0.59484   0.00000  Uiso   1.00
H163   H     0.23428   0.87466   0.64605   0.00000  Uiso   1.00
H164   H     0.27470   0.05119   0.59386   0.00000  Uiso   1.00
H165   H     0.25832   0.86793   0.54395   0.00000  Uiso   1.00
H166   H     0.27543   0.81097   0.70386   0.00000  Uiso   1.00
H167   H     0.36064   0.18320   0.59381   0.00000  Uiso   1.00
H168   H     0.32611   0.79676   0.48855   0.00000  Uiso   1.00
H169   H     0.92753   0.92123   0.60276   0.00000  Uiso   1.00
H170   H     0.92399   0.86437   0.65441   0.00000  Uiso   1.00
H171   H     0.96439   0.04091   0.60222   0.00000  Uiso   1.00
H172   H     0.94802   0.85765   0.55231   0.00000  Uiso   1.00
H173   H     0.83522   0.80262   0.71065   0.00000  Uiso   1.00
H174   H     0.92042   0.17486   0.60059   0.00000  Uiso   1.00
H175   H     0.88590   0.78841   0.49534   0.00000  Uiso   1.00
O176   O     0.54120   0.76959   0.74109   0.00000  Uiso   1.00
O177   O     0.65298   0.25794   0.59670   0.00000  Uiso   1.00
O178   O     0.60769   0.75094   0.45861   0.00000  Uiso   1.00
N179   N     0.40767   0.81680   0.69837   0.00000  Uiso   1.00
N180   N     0.48732   0.16481   0.59548   0.00000  Uiso   1.00
N181   N     0.45505   0.80354   0.49707   0.00000  Uiso   1.00
N182   N     0.70888   0.81230   0.70202   0.00000  Uiso   1.00
N183   N     0.78854   0.16032   0.59913   0.00000  Uiso   1.00
N184   N     0.75627   0.79904   0.50072   0.00000  Uiso   1.00
C185   C     0.99535   0.88435   0.88481   0.00000  Uiso   1.00
C186   C     0.04947   0.86116   0.85333   0.00000  Uiso   1.00
C187   C     0.92838   0.84336   0.82959   0.00000  Uiso   1.00
C188   C     0.00517   0.82353   0.80257   0.00000  Uiso   1.00
C189   C     0.06015   0.78785   0.75416   0.00000  Uiso   1.00
C190   C     0.08718   0.94779   0.88943   0.00000  Uiso   1.00
C191   C     0.99779   0.00282   0.89605   0.00000  Uiso   1.00
C192   C     0.10633   0.05592   0.89943   0.00000  Uiso   1.00
C193   C     0.21986   0.15472   0.90709   0.00000  Uiso   1.00
C194   C     0.09043   0.84165   0.90772   0.00000  Uiso   1.00
C195   C     0.00378   0.80747   0.92972   0.00000  Uiso   1.00
C196   C     0.11507   0.77121   0.94850   0.00000  Uiso   1.00
C197   C     0.23365   0.70523   0.98456   0.00000  Uiso   1.00
C198   C     0.34707   0.88077   0.87905   0.00000  Uiso   1.00
C199   C     0.24051   0.85922   0.85020   0.00000  Uiso   1.00
C200   C     0.31751   0.83941   0.82321   0.00000  Uiso   1.00
C201   C     0.19656   0.82158   0.79943   0.00000  Uiso   1.00
C202   C     0.27821   0.94585   0.88630   0.00000  Uiso   1.00
C203   C     0.38692   0.99887   0.88967   0.00000  Uiso   1.00
C204   C     0.29771   0.05397   0.89629   0.00000  Uiso   1.00
C205   C     0.28147   0.83971   0.90459   0.00000  Uiso   1.00
C206   C     0.39291   0.80351   0.92334   0.00000  Uiso   1.00
C207   C     0.30646   0.76927   0.94537   0.00000  Uiso   1.00
H208   H     0.84662   0.88586   0.88725   0.00000  Uiso   1.00
H209   H     0.78055   0.84487   0.83202   0.00000  Uiso   1.00
H210   H     0.84995   0.00431   0.89848   0.00000  Uiso   1.00
H211   H     0.85595   0.80898   0.93214   0.00000  Uiso   1.00
H212   H     0.79154   0.79860   0.76941   0.00000  Uiso   1.00
H213   H     0.93788   0.13477   0.90954   0.00000  Uiso   1.00
H214   H     0.95053   0.72288   0.98053   0.00000  Uiso   1.00
H215   H     0.49580   0.87926   0.87661   0.00000  Uiso   1.00
H216   H     0.46535   0.83791   0.82079   0.00000  Uiso   1.00
H217   H     0.53475   0.99735   0.88725   0.00000  Uiso   1.00
H218   H     0.54074   0.80202   0.92091   0.00000  Uiso   1.00
H219   H     0.34735   0.79295   0.76029   0.00000  Uiso   1.00
H220   H     0.49369   0.12913   0.90043   0.00000  Uiso   1.00
H221   H     0.50634   0.71723   0.97141   0.00000  Uiso   1.00
O222   O     0.03770   0.76871   0.72832   0.00000  Uiso   1.00
O223   O     0.22969   0.20976   0.91218   0.00000  Uiso   1.00
O224   O     0.24628   0.66936   0.00531   0.00000  Uiso   1.00
N225   N     0.92653   0.80293   0.77492   0.00000  Uiso   1.00
N226   N     0.06335   0.11724   0.90593   0.00000  Uiso   1.00
N227   N     0.07517   0.73217   0.97231   0.00000  Uiso   1.00
N228   N     0.22561   0.79989   0.77002   0.00000  Uiso   1.00
N229   N     0.36242   0.11420   0.90103   0.00000  Uiso   1.00
N230   N     0.37425   0.72913   0.96740   0.00000  Uiso   1.00
C231   C     0.65175   0.45754   0.37642   0.00000  Uiso   1.00
C232   C     0.71180   0.43539   0.34509   0.00000  Uiso   1.00
C233   C     0.59512   0.41731   0.32081   0.00000  Uiso   1.00
C234   C     0.67701   0.39857   0.29405   0.00000  Uiso   1.00
C235   C     0.74109   0.36430   0.24576   0.00000  Uiso   1.00
C236   C     0.73936   0.52147   0.38170   0.00000  Uiso   1.00
C237   C     0.64585   0.57576   0.38820   0.00000  Uiso   1.00
C238   C     0.75096   0.62948   0.39226   0.00000  Uiso   1.00
C239   C     0.85784   0.72885   0.40082   0.00000  Uiso   1.00
C240   C     0.74594   0.41499   0.39949   0.00000  Uiso   1.00
C241   C     0.65797   0.37976   0.42095   0.00000  Uiso   1.00
C242   C     0.76862   0.34384   0.44000   0.00000  Uiso   1.00
C243   C     0.88572   0.27788   0.47619   0.00000  Uiso   1.00
C244   C     0.00467   0.45640   0.37208   0.00000  Uiso   1.00
C245   C     0.90349   0.43477   0.34274   0.00000  Uiso   1.00
C246   C     0.98558   0.41606   0.31601   0.00000  Uiso   1.00
C247   C     0.86904   0.39795   0.29169   0.00000  Uiso   1.00
C248   C     0.93105   0.52085   0.37934   0.00000  Uiso   1.00
C249   C     0.03632   0.57451   0.38340   0.00000  Uiso   1.00
C250   C     0.94300   0.62887   0.38989   0.00000  Uiso   1.00
C251   C     0.93763   0.41437   0.39713   0.00000  Uiso   1.00
C252   C     0.04844   0.37850   0.41615   0.00000  Uiso   1.00
C253   C     0.96066   0.34323   0.43764   0.00000  Uiso   1.00
H254   H     0.50251   0.45802   0.37826   0.00000  Uiso   1.00
H255   H     0.44677   0.41780   0.32264   0.00000  Uiso   1.00
H256   H     0.49751   0.57622   0.39002   0.00000  Uiso   1.00
H257   H     0.50963   0.38025   0.42277   0.00000  Uiso   1.00
H258   H     0.46952   0.37296   0.25994   0.00000  Uiso   1.00
H259   H     0.57650   0.70700   0.40203   0.00000  Uiso   1.00
H260   H     0.60205   0.29375   0.47109   0.00000  Uiso   1.00
H261   H     0.15392   0.45593   0.37024   0.00000  Uiso   1.00
H262   H     0.13393   0.41558   0.31419   0.00000  Uiso   1.00
H263   H     0.18466   0.57401   0.38157   0.00000  Uiso   1.00
H264   H     0.19678   0.37804   0.41432   0.00000  Uiso   1.00
H265   H     0.02724   0.37116   0.25308   0.00000  Uiso   1.00
H266   H     0.13422   0.70521   0.39517   0.00000  Uiso   1.00
H267   H     0.15977   0.29196   0.46422   0.00000  Uiso   1.00
O268   O     0.72347   0.34558   0.21978   0.00000  Uiso   1.00
O269   O     0.86383   0.78383   0.40619   0.00000  Uiso   1.00
O270   O     0.89735   0.24166   0.49680   0.00000  Uiso   1.00
N271   N     0.60352   0.37806   0.26602   0.00000  Uiso   1.00
N272   N     0.70354   0.69037   0.39886   0.00000  Uiso   1.00
N273   N     0.72743   0.30403   0.46343   0.00000  Uiso   1.00
N274   N     0.90363   0.37709   0.26233   0.00000  Uiso   1.00
N275   N     0.00365   0.68940   0.39517   0.00000  Uiso   1.00
N276   N     0.02754   0.30306   0.45974   0.00000  Uiso   1.00
C277   C     0.92380   0.50207   0.91124   0.00000  Uiso   1.00
C278   C     0.84781   0.53282   0.88242   0.00000  Uiso   1.00
C279   C     0.95201   0.55785   0.85961   0.00000  Uiso   1.00
C280   C     0.85654   0.58388   0.83508   0.00000  Uiso   1.00
C281   C     0.76787   0.63146   0.79058   0.00000  Uiso   1.00
C282   C     0.83830   0.43726   0.91128   0.00000  Uiso   1.00
C283   C     0.93451   0.38195   0.91274   0.00000  Uiso   1.00
C284   C     0.83102   0.32754   0.91251   0.00000  Uiso   1.00
C285   C     0.72760   0.22675   0.91284   0.00000  Uiso   1.00
C286   C     0.84209   0.53731   0.93796   0.00000  Uiso   1.00
C287   C     0.94148   0.56611   0.96185   0.00000  Uiso   1.00
C288   C     0.84117   0.59592   0.98408   0.00000  Uiso   1.00
C289   C     0.74362   0.65048   0.02582   0.00000  Uiso   1.00
C290   C     0.56894   0.50380   0.90825   0.00000  Uiso   1.00
C291   C     0.65507   0.53376   0.88080   0.00000  Uiso   1.00
C292   C     0.55941   0.55977   0.85630   0.00000  Uiso   1.00
C293   C     0.66345   0.58483   0.83345   0.00000  Uiso   1.00
C294   C     0.64557   0.43820   0.90966   0.00000  Uiso   1.00
C295   C     0.54191   0.38386   0.90943   0.00000  Uiso   1.00
C296   C     0.63793   0.32847   0.91088   0.00000  Uiso   1.00
C297   C     0.64935   0.53825   0.93633   0.00000  Uiso   1.00
C298   C     0.54887   0.56802   0.95854   0.00000  Uiso   1.00
C299   C     0.64808   0.59686   0.98245   0.00000  Uiso   1.00
H300   H     0.07385   0.50134   0.91250   0.00000  Uiso   1.00
H301   H     0.10117   0.55711   0.86087   0.00000  Uiso   1.00
H302   H     0.08367   0.38123   0.91400   0.00000  Uiso   1.00
H303   H     0.09063   0.56537   0.96310   0.00000  Uiso   1.00
H304   H     0.04646   0.61934   0.80291   0.00000  Uiso   1.00
H305   H     0.00956   0.24849   0.91494   0.00000  Uiso   1.00
H306   H     0.02423   0.63678   0.01848   0.00000  Uiso   1.00
H307   H     0.41888   0.50453   0.90698   0.00000  Uiso   1.00
H308   H     0.41025   0.56049   0.85505   0.00000  Uiso   1.00
H309   H     0.39276   0.38461   0.90817   0.00000  Uiso   1.00
H310   H     0.39971   0.56874   0.95727   0.00000  Uiso   1.00
H311   H     0.48568   0.62207   0.79818   0.00000  Uiso   1.00
H312   H     0.44879   0.25123   0.91021   0.00000  Uiso   1.00
H313   H     0.46346   0.63951   0.01374   0.00000  Uiso   1.00
O314   O     0.77221   0.65744   0.76648   0.00000  Uiso   1.00
O315   O     0.72381   0.17090   0.91346   0.00000  Uiso   1.00
O316   O     0.74306   0.68032   0.04930   0.00000  Uiso   1.00
N317   N     0.91566   0.61232   0.80893   0.00000  Uiso   1.00
N318   N     0.88116   0.26560   0.91366   0.00000  Uiso   1.00
N319   N     0.89488   0.62859   0.01047   0.00000  Uiso   1.00
N320   N     0.61391   0.61379   0.80638   0.00000  Uiso   1.00
N321   N     0.57942   0.26707   0.91112   0.00000  Uiso   1.00
N322   N     0.59314   0.63007   0.00792   0.00000  Uiso   1.00
C323   C     0.57650   0.07126   0.40334   0.00000  Uiso   1.00
C324   C     0.50726   0.10322   0.37442   0.00000  Uiso   1.00
C325   C     0.61682   0.12758   0.35214   0.00000  Uiso   1.00
C326   C     0.52707   0.15494   0.32740   0.00000  Uiso   1.00
C327   C     0.44881   0.20410   0.28284   0.00000  Uiso   1.00
C328   C     0.48530   0.00730   0.40277   0.00000  Uiso   1.00
C329   C     0.57641   0.95101   0.40433   0.00000  Uiso   1.00
C330   C     0.46817   0.89763   0.40347   0.00000  Uiso   1.00
C331   C     0.35582   0.79788   0.40295   0.00000  Uiso   1.00
C332   C     0.49420   0.10687   0.42989   0.00000  Uiso   1.00
C333   C     0.59279   0.13430   0.45425   0.00000  Uiso   1.00
C334   C     0.49203   0.16474   0.47623   0.00000  Uiso   1.00
C335   C     0.39351   0.21959   0.51781   0.00000  Uiso   1.00
C336   C     0.22227   0.07654   0.39905   0.00000  Uiso   1.00
C337   C     0.31485   0.10608   0.37209   0.00000  Uiso   1.00
C338   C     0.22491   0.13342   0.34739   0.00000  Uiso   1.00
C339   C     0.33432   0.15782   0.32507   0.00000  Uiso   1.00
C340   C     0.29291   0.01016   0.40044   0.00000  Uiso   1.00
C341   C     0.18450   0.95686   0.39958   0.00000  Uiso   1.00
C342   C     0.27542   0.90051   0.40114   0.00000  Uiso   1.00
C343   C     0.30180   0.10974   0.42756   0.00000  Uiso   1.00
C344   C     0.20087   0.14014   0.44950   0.00000  Uiso   1.00
C345   C     0.29928   0.16762   0.47389   0.00000  Uiso   1.00
H346   H     0.72629   0.06902   0.40516   0.00000  Uiso   1.00
H347   H     0.76572   0.12534   0.35395   0.00000  Uiso   1.00
H348   H     0.72530   0.94881   0.40614   0.00000  Uiso   1.00
H349   H     0.74168   0.13207   0.45605   0.00000  Uiso   1.00
H350   H     0.72457   0.18903   0.29614   0.00000  Uiso   1.00
H351   H     0.63936   0.81680   0.40619   0.00000  Uiso   1.00
H352   H     0.67389   0.20324   0.51145   0.00000  Uiso   1.00
H353   H     0.07247   0.07877   0.39724   0.00000  Uiso   1.00
H354   H     0.07601   0.13563   0.34559   0.00000  Uiso   1.00
H355   H     0.03561   0.95909   0.39778   0.00000  Uiso   1.00
H356   H     0.05198   0.14235   0.44769   0.00000  Uiso   1.00
H357   H     0.16478   0.19738   0.28935   0.00000  Uiso   1.00
H358   H     0.07958   0.82514   0.39941   0.00000  Uiso   1.00
H359   H     0.11410   0.21159   0.50466   0.00000  Uiso   1.00
O360   O     0.45880   0.23041   0.25891   0.00000  Uiso   1.00
O361   O     0.34702   0.74206   0.40330   0.00000  Uiso   1.00
O362   O     0.39231   0.24906   0.54139   0.00000  Uiso   1.00
N363   N     0.59233   0.18320   0.30163   0.00000  Uiso   1.00
N364   N     0.51268   0.83519   0.40452   0.00000  Uiso   1.00
N365   N     0.54495   0.19646   0.50293   0.00000  Uiso   1.00
N366   N     0.29112   0.18770   0.29798   0.00000  Uiso   1.00
N367   N     0.21146   0.83968   0.40087   0.00000  Uiso   1.00
N368   N     0.24373   0.20096   0.49928   0.00000  Uiso   1.00
