data_job_02767
_audit_creation_date              2018-12-19
_audit_creation_method            'Materials Studio'
_symmetry_space_group_name_H-M    'P1'
_symmetry_Int_Tables_number       1
_symmetry_cell_setting            triclinic
loop_
_symmetry_equiv_pos_as_xyz
  x,y,z
_cell_length_a                    27.9982
_cell_length_b                    12.5177
_cell_length_c                    22.1540
_cell_angle_alpha                 90.0000
_cell_angle_beta                  90.0000
_cell_angle_gamma                 90.0000
loop_
_atom_site_label
_atom_site_type_symbol
_atom_site_fract_x
_atom_site_fract_y
_atom_site_fract_z
_atom_site_U_iso_or_equiv
_atom_site_adp_type
_atom_site_occupancy
C1     C     0.30938   0.63731   0.89912   0.00000  Uiso   1.00
C2     C     0.34769   0.71546   0.92021   0.00000  Uiso   1.00
C3     C     0.33974   0.80792   0.95328   0.00000  Uiso   1.00
C4     C     0.37952   0.86870   0.96815   0.00000  Uiso   1.00
C5     C     0.43199   0.99473   0.00355   0.00000  Uiso   1.00
C6     C     0.31481   0.62931   0.83078   0.00000  Uiso   1.00
C7     C     0.27923   0.64932   0.78866   0.00000  Uiso   1.00
C8     C     0.29133   0.63757   0.72825   0.00000  Uiso   1.00
C9     C     0.29276   0.62978   0.62480   0.00000  Uiso   1.00
C10    C     0.32373   0.52848   0.92416   0.00000  Uiso   1.00
C11    C     0.29564   0.46369   0.96054   0.00000  Uiso   1.00
C12    C     0.31525   0.36703   0.97873   0.00000  Uiso   1.00
C13    C     0.33052   0.20268   0.02028   0.00000  Uiso   1.00
C14    C     0.39415   0.58084   0.86671   0.00000  Uiso   1.00
C15    C     0.39373   0.68478   0.90260   0.00000  Uiso   1.00
C16    C     0.43353   0.74543   0.91743   0.00000  Uiso   1.00
C17    C     0.42565   0.83797   0.95052   0.00000  Uiso   1.00
C18    C     0.36085   0.59864   0.81318   0.00000  Uiso   1.00
C19    C     0.37301   0.58684   0.75281   0.00000  Uiso   1.00
C20    C     0.33745   0.60684   0.71061   0.00000  Uiso   1.00
C21    C     0.36977   0.49780   0.90656   0.00000  Uiso   1.00
C22    C     0.38943   0.40121   0.92469   0.00000  Uiso   1.00
C23    C     0.36137   0.33630   0.96110   0.00000  Uiso   1.00
H24    H     0.27354   0.66120   0.91281   0.00000  Uiso   1.00
H25    H     0.30411   0.83164   0.96689   0.00000  Uiso   1.00
H26    H     0.24360   0.67305   0.80229   0.00000  Uiso   1.00
H27    H     0.26001   0.48746   0.97415   0.00000  Uiso   1.00
H28    H     0.35830   0.00709   0.01906   0.00000  Uiso   1.00
H29    H     0.23072   0.67268   0.67200   0.00000  Uiso   1.00
H30    H     0.26532   0.28131   0.03439   0.00000  Uiso   1.00
H31    H     0.43000   0.55695   0.85301   0.00000  Uiso   1.00
H32    H     0.46915   0.72168   0.90381   0.00000  Uiso   1.00
H33    H     0.40864   0.56310   0.73921   0.00000  Uiso   1.00
H34    H     0.42506   0.37750   0.91107   0.00000  Uiso   1.00
H35    H     0.49226   0.91785   0.96785   0.00000  Uiso   1.00
H36    H     0.36467   0.58343   0.62080   0.00000  Uiso   1.00
H37    H     0.39928   0.19207   0.98319   0.00000  Uiso   1.00
O38    O     0.44822   0.07273   0.02793   0.00000  Uiso   1.00
O39    O     0.28082   0.63397   0.57261   0.00000  Uiso   1.00
O40    O     0.32623   0.12051   0.04806   0.00000  Uiso   1.00
N41    N     0.38446   0.96347   0.00004   0.00000  Uiso   1.00
N42    N     0.26517   0.65083   0.67557   0.00000  Uiso   1.00
N43    N     0.29752   0.28492   0.01436   0.00000  Uiso   1.00
N44    N     0.45654   0.91545   0.97249   0.00000  Uiso   1.00
N45    N     0.33725   0.60281   0.64802   0.00000  Uiso   1.00
N46    N     0.36960   0.23690   0.98681   0.00000  Uiso   1.00
C47    C     0.19062   0.36269   0.39912   0.00000  Uiso   1.00
C48    C     0.15231   0.28454   0.42021   0.00000  Uiso   1.00
C49    C     0.16026   0.19208   0.45328   0.00000  Uiso   1.00
C50    C     0.12048   0.13130   0.46815   0.00000  Uiso   1.00
C51    C     0.06801   0.00527   0.50355   0.00000  Uiso   1.00
C52    C     0.18519   0.37069   0.33078   0.00000  Uiso   1.00
C53    C     0.22077   0.35068   0.28866   0.00000  Uiso   1.00
C54    C     0.20867   0.36243   0.22825   0.00000  Uiso   1.00
C55    C     0.20724   0.37022   0.12480   0.00000  Uiso   1.00
C56    C     0.17627   0.47152   0.42416   0.00000  Uiso   1.00
C57    C     0.20436   0.53631   0.46054   0.00000  Uiso   1.00
C58    C     0.18475   0.63297   0.47873   0.00000  Uiso   1.00
C59    C     0.16948   0.79732   0.52028   0.00000  Uiso   1.00
C60    C     0.10585   0.41916   0.36671   0.00000  Uiso   1.00
C61    C     0.10627   0.31522   0.40260   0.00000  Uiso   1.00
C62    C     0.06647   0.25457   0.41743   0.00000  Uiso   1.00
C63    C     0.07435   0.16203   0.45052   0.00000  Uiso   1.00
C64    C     0.13915   0.40136   0.31318   0.00000  Uiso   1.00
C65    C     0.12699   0.41316   0.25281   0.00000  Uiso   1.00
C66    C     0.16255   0.39316   0.21061   0.00000  Uiso   1.00
C67    C     0.13023   0.50220   0.40656   0.00000  Uiso   1.00
C68    C     0.11057   0.59879   0.42469   0.00000  Uiso   1.00
C69    C     0.13863   0.66370   0.46110   0.00000  Uiso   1.00
H70    H     0.22646   0.33880   0.41281   0.00000  Uiso   1.00
H71    H     0.19589   0.16836   0.46689   0.00000  Uiso   1.00
H72    H     0.25640   0.32695   0.30229   0.00000  Uiso   1.00
H73    H     0.23999   0.51254   0.47415   0.00000  Uiso   1.00
H74    H     0.14170   0.99291   0.51906   0.00000  Uiso   1.00
H75    H     0.26928   0.32732   0.17200   0.00000  Uiso   1.00
H76    H     0.23468   0.71869   0.53439   0.00000  Uiso   1.00
H77    H     0.07000   0.44305   0.35301   0.00000  Uiso   1.00
H78    H     0.03085   0.27832   0.40381   0.00000  Uiso   1.00
H79    H     0.09136   0.43690   0.23921   0.00000  Uiso   1.00
H80    H     0.07494   0.62250   0.41107   0.00000  Uiso   1.00
H81    H     0.00774   0.08215   0.46785   0.00000  Uiso   1.00
H82    H     0.13533   0.41657   0.12080   0.00000  Uiso   1.00
H83    H     0.10072   0.80793   0.48319   0.00000  Uiso   1.00
O84    O     0.05178   0.92727   0.52793   0.00000  Uiso   1.00
O85    O     0.21918   0.36603   0.07261   0.00000  Uiso   1.00
O86    O     0.17377   0.87949   0.54806   0.00000  Uiso   1.00
N87    N     0.11554   0.03653   0.50004   0.00000  Uiso   1.00
N88    N     0.23483   0.34917   0.17557   0.00000  Uiso   1.00
N89    N     0.20248   0.71508   0.51436   0.00000  Uiso   1.00
N90    N     0.04346   0.08455   0.47249   0.00000  Uiso   1.00
N91    N     0.16275   0.39719   0.14802   0.00000  Uiso   1.00
N92    N     0.13040   0.76310   0.48681   0.00000  Uiso   1.00
C93    C     0.69062   0.13731   0.60088   0.00000  Uiso   1.00
C94    C     0.65231   0.21546   0.57979   0.00000  Uiso   1.00
C95    C     0.66026   0.30792   0.54672   0.00000  Uiso   1.00
C96    C     0.62048   0.36870   0.53185   0.00000  Uiso   1.00
C97    C     0.56801   0.49473   0.49645   0.00000  Uiso   1.00
C98    C     0.68519   0.12931   0.66922   0.00000  Uiso   1.00
C99    C     0.72077   0.14932   0.71134   0.00000  Uiso   1.00
C100   C     0.70867   0.13757   0.77175   0.00000  Uiso   1.00
C101   C     0.70724   0.12978   0.87520   0.00000  Uiso   1.00
C102   C     0.67627   0.02848   0.57584   0.00000  Uiso   1.00
C103   C     0.70436   0.96369   0.53946   0.00000  Uiso   1.00
C104   C     0.68475   0.86703   0.52127   0.00000  Uiso   1.00
C105   C     0.66948   0.70268   0.47972   0.00000  Uiso   1.00
C106   C     0.60585   0.08084   0.63329   0.00000  Uiso   1.00
C107   C     0.60627   0.18478   0.59740   0.00000  Uiso   1.00
C108   C     0.56647   0.24543   0.58257   0.00000  Uiso   1.00
C109   C     0.57435   0.33797   0.54948   0.00000  Uiso   1.00
C110   C     0.63915   0.09864   0.68682   0.00000  Uiso   1.00
C111   C     0.62699   0.08684   0.74719   0.00000  Uiso   1.00
C112   C     0.66255   0.10684   0.78939   0.00000  Uiso   1.00
C113   C     0.63023   0.99780   0.59344   0.00000  Uiso   1.00
C114   C     0.61057   0.90121   0.57531   0.00000  Uiso   1.00
C115   C     0.63863   0.83630   0.53890   0.00000  Uiso   1.00
H116   H     0.72646   0.16120   0.58719   0.00000  Uiso   1.00
H117   H     0.69589   0.33164   0.53311   0.00000  Uiso   1.00
H118   H     0.75640   0.17305   0.69771   0.00000  Uiso   1.00
H119   H     0.73999   0.98746   0.52585   0.00000  Uiso   1.00
H120   H     0.64170   0.50709   0.48094   0.00000  Uiso   1.00
H121   H     0.76928   0.17268   0.82800   0.00000  Uiso   1.00
H122   H     0.73468   0.78131   0.46561   0.00000  Uiso   1.00
H123   H     0.57000   0.05695   0.64699   0.00000  Uiso   1.00
H124   H     0.53085   0.22168   0.59619   0.00000  Uiso   1.00
H125   H     0.59136   0.06310   0.76079   0.00000  Uiso   1.00
H126   H     0.57494   0.87750   0.58893   0.00000  Uiso   1.00
H127   H     0.50774   0.41785   0.53215   0.00000  Uiso   1.00
H128   H     0.63533   0.08343   0.87920   0.00000  Uiso   1.00
H129   H     0.60072   0.69207   0.51681   0.00000  Uiso   1.00
O130   O     0.55178   0.57273   0.47207   0.00000  Uiso   1.00
O131   O     0.71918   0.13397   0.92739   0.00000  Uiso   1.00
O132   O     0.67377   0.62051   0.45194   0.00000  Uiso   1.00
N133   N     0.61554   0.46347   0.49996   0.00000  Uiso   1.00
N134   N     0.73483   0.15083   0.82443   0.00000  Uiso   1.00
N135   N     0.70248   0.78492   0.48564   0.00000  Uiso   1.00
N136   N     0.54346   0.41545   0.52751   0.00000  Uiso   1.00
N137   N     0.66275   0.10281   0.85198   0.00000  Uiso   1.00
N138   N     0.63040   0.73690   0.51319   0.00000  Uiso   1.00
C139   C     0.80938   0.86269   0.10088   0.00000  Uiso   1.00
C140   C     0.84769   0.78454   0.07979   0.00000  Uiso   1.00
C141   C     0.83974   0.69208   0.04672   0.00000  Uiso   1.00
C142   C     0.87952   0.63130   0.03185   0.00000  Uiso   1.00
C143   C     0.93199   0.50527   0.99645   0.00000  Uiso   1.00
C144   C     0.81481   0.87069   0.16922   0.00000  Uiso   1.00
C145   C     0.77923   0.85068   0.21134   0.00000  Uiso   1.00
C146   C     0.79133   0.86243   0.27175   0.00000  Uiso   1.00
C147   C     0.79276   0.87022   0.37520   0.00000  Uiso   1.00
C148   C     0.82373   0.97152   0.07584   0.00000  Uiso   1.00
C149   C     0.79564   0.03631   0.03946   0.00000  Uiso   1.00
C150   C     0.81525   0.13297   0.02127   0.00000  Uiso   1.00
C151   C     0.83052   0.29732   0.97972   0.00000  Uiso   1.00
C152   C     0.89415   0.91916   0.13329   0.00000  Uiso   1.00
C153   C     0.89373   0.81522   0.09740   0.00000  Uiso   1.00
C154   C     0.93353   0.75457   0.08257   0.00000  Uiso   1.00
C155   C     0.92565   0.66203   0.04948   0.00000  Uiso   1.00
C156   C     0.86085   0.90136   0.18682   0.00000  Uiso   1.00
C157   C     0.87301   0.91316   0.24719   0.00000  Uiso   1.00
C158   C     0.83745   0.89316   0.28939   0.00000  Uiso   1.00
C159   C     0.86977   0.00220   0.09344   0.00000  Uiso   1.00
C160   C     0.88943   0.09879   0.07531   0.00000  Uiso   1.00
C161   C     0.86137   0.16370   0.03890   0.00000  Uiso   1.00
H162   H     0.77354   0.83880   0.08719   0.00000  Uiso   1.00
H163   H     0.80411   0.66836   0.03311   0.00000  Uiso   1.00
H164   H     0.74360   0.82695   0.19771   0.00000  Uiso   1.00
H165   H     0.76001   0.01254   0.02585   0.00000  Uiso   1.00
H166   H     0.85830   0.49291   0.98094   0.00000  Uiso   1.00
H167   H     0.73072   0.82732   0.32800   0.00000  Uiso   1.00
H168   H     0.76532   0.21869   0.96561   0.00000  Uiso   1.00
H169   H     0.93000   0.94305   0.14699   0.00000  Uiso   1.00
H170   H     0.96915   0.77832   0.09619   0.00000  Uiso   1.00
H171   H     0.90864   0.93690   0.26079   0.00000  Uiso   1.00
H172   H     0.92506   0.12250   0.08893   0.00000  Uiso   1.00
H173   H     0.99226   0.58215   0.03215   0.00000  Uiso   1.00
H174   H     0.86467   0.91657   0.37920   0.00000  Uiso   1.00
H175   H     0.89928   0.30793   0.01681   0.00000  Uiso   1.00
O176   O     0.94822   0.42727   0.97207   0.00000  Uiso   1.00
O177   O     0.78082   0.86603   0.42739   0.00000  Uiso   1.00
O178   O     0.82623   0.37949   0.95194   0.00000  Uiso   1.00
N179   N     0.88446   0.53653   0.99996   0.00000  Uiso   1.00
N180   N     0.76517   0.84917   0.32443   0.00000  Uiso   1.00
N181   N     0.79752   0.21508   0.98564   0.00000  Uiso   1.00
N182   N     0.95654   0.58455   0.02751   0.00000  Uiso   1.00
N183   N     0.83725   0.89719   0.35198   0.00000  Uiso   1.00
N184   N     0.86960   0.26310   0.01319   0.00000  Uiso   1.00
C185   C     0.69062   0.36269   0.10088   0.00000  Uiso   1.00
C186   C     0.65231   0.28454   0.07979   0.00000  Uiso   1.00
C187   C     0.66026   0.19208   0.04672   0.00000  Uiso   1.00
C188   C     0.62048   0.13130   0.03185   0.00000  Uiso   1.00
C189   C     0.56801   0.00527   0.99645   0.00000  Uiso   1.00
C190   C     0.68519   0.37069   0.16922   0.00000  Uiso   1.00
C191   C     0.72077   0.35068   0.21134   0.00000  Uiso   1.00
C192   C     0.70867   0.36243   0.27175   0.00000  Uiso   1.00
C193   C     0.70724   0.37022   0.37520   0.00000  Uiso   1.00
C194   C     0.67627   0.47152   0.07584   0.00000  Uiso   1.00
C195   C     0.70436   0.53631   0.03946   0.00000  Uiso   1.00
C196   C     0.68475   0.63297   0.02127   0.00000  Uiso   1.00
C197   C     0.66948   0.79732   0.97972   0.00000  Uiso   1.00
C198   C     0.60585   0.41916   0.13329   0.00000  Uiso   1.00
C199   C     0.60627   0.31522   0.09740   0.00000  Uiso   1.00
C200   C     0.56647   0.25457   0.08257   0.00000  Uiso   1.00
C201   C     0.57435   0.16203   0.04948   0.00000  Uiso   1.00
C202   C     0.63915   0.40136   0.18682   0.00000  Uiso   1.00
C203   C     0.62699   0.41316   0.24719   0.00000  Uiso   1.00
C204   C     0.66255   0.39316   0.28939   0.00000  Uiso   1.00
C205   C     0.63023   0.50220   0.09344   0.00000  Uiso   1.00
C206   C     0.61057   0.59879   0.07531   0.00000  Uiso   1.00
C207   C     0.63863   0.66370   0.03890   0.00000  Uiso   1.00
H208   H     0.72646   0.33880   0.08719   0.00000  Uiso   1.00
H209   H     0.69589   0.16836   0.03311   0.00000  Uiso   1.00
H210   H     0.75640   0.32695   0.19771   0.00000  Uiso   1.00
H211   H     0.73999   0.51254   0.02585   0.00000  Uiso   1.00
H212   H     0.64170   0.99291   0.98094   0.00000  Uiso   1.00
H213   H     0.76928   0.32732   0.32800   0.00000  Uiso   1.00
H214   H     0.73468   0.71869   0.96561   0.00000  Uiso   1.00
H215   H     0.57000   0.44305   0.14699   0.00000  Uiso   1.00
H216   H     0.53085   0.27832   0.09619   0.00000  Uiso   1.00
H217   H     0.59136   0.43690   0.26079   0.00000  Uiso   1.00
H218   H     0.57494   0.62250   0.08893   0.00000  Uiso   1.00
H219   H     0.50774   0.08215   0.03215   0.00000  Uiso   1.00
H220   H     0.63533   0.41657   0.37920   0.00000  Uiso   1.00
H221   H     0.60072   0.80793   0.01681   0.00000  Uiso   1.00
O222   O     0.55178   0.92727   0.97207   0.00000  Uiso   1.00
O223   O     0.71918   0.36603   0.42739   0.00000  Uiso   1.00
O224   O     0.67377   0.87949   0.95194   0.00000  Uiso   1.00
N225   N     0.61554   0.03653   0.99996   0.00000  Uiso   1.00
N226   N     0.73483   0.34917   0.32443   0.00000  Uiso   1.00
N227   N     0.70248   0.71508   0.98564   0.00000  Uiso   1.00
N228   N     0.54346   0.08455   0.02751   0.00000  Uiso   1.00
N229   N     0.66275   0.39719   0.35198   0.00000  Uiso   1.00
N230   N     0.63040   0.76310   0.01319   0.00000  Uiso   1.00
C231   C     0.80938   0.63731   0.60088   0.00000  Uiso   1.00
C232   C     0.84769   0.71546   0.57979   0.00000  Uiso   1.00
C233   C     0.83974   0.80792   0.54672   0.00000  Uiso   1.00
C234   C     0.87952   0.86870   0.53185   0.00000  Uiso   1.00
C235   C     0.93199   0.99473   0.49645   0.00000  Uiso   1.00
C236   C     0.81481   0.62931   0.66922   0.00000  Uiso   1.00
C237   C     0.77923   0.64932   0.71134   0.00000  Uiso   1.00
C238   C     0.79133   0.63757   0.77175   0.00000  Uiso   1.00
C239   C     0.79276   0.62978   0.87520   0.00000  Uiso   1.00
C240   C     0.82373   0.52848   0.57584   0.00000  Uiso   1.00
C241   C     0.79564   0.46369   0.53946   0.00000  Uiso   1.00
C242   C     0.81525   0.36703   0.52127   0.00000  Uiso   1.00
C243   C     0.83052   0.20268   0.47972   0.00000  Uiso   1.00
C244   C     0.89415   0.58084   0.63329   0.00000  Uiso   1.00
C245   C     0.89373   0.68478   0.59740   0.00000  Uiso   1.00
C246   C     0.93353   0.74543   0.58257   0.00000  Uiso   1.00
C247   C     0.92565   0.83797   0.54948   0.00000  Uiso   1.00
C248   C     0.86085   0.59864   0.68682   0.00000  Uiso   1.00
C249   C     0.87301   0.58684   0.74719   0.00000  Uiso   1.00
C250   C     0.83745   0.60684   0.78939   0.00000  Uiso   1.00
C251   C     0.86977   0.49780   0.59344   0.00000  Uiso   1.00
C252   C     0.88943   0.40121   0.57531   0.00000  Uiso   1.00
C253   C     0.86137   0.33630   0.53890   0.00000  Uiso   1.00
H254   H     0.77354   0.66120   0.58719   0.00000  Uiso   1.00
H255   H     0.80411   0.83164   0.53311   0.00000  Uiso   1.00
H256   H     0.74360   0.67305   0.69771   0.00000  Uiso   1.00
H257   H     0.76001   0.48746   0.52585   0.00000  Uiso   1.00
H258   H     0.85830   0.00709   0.48094   0.00000  Uiso   1.00
H259   H     0.73072   0.67268   0.82800   0.00000  Uiso   1.00
H260   H     0.76532   0.28131   0.46561   0.00000  Uiso   1.00
H261   H     0.93000   0.55695   0.64699   0.00000  Uiso   1.00
H262   H     0.96915   0.72168   0.59619   0.00000  Uiso   1.00
H263   H     0.90864   0.56310   0.76079   0.00000  Uiso   1.00
H264   H     0.92506   0.37750   0.58893   0.00000  Uiso   1.00
H265   H     0.99226   0.91785   0.53215   0.00000  Uiso   1.00
H266   H     0.86467   0.58343   0.87920   0.00000  Uiso   1.00
H267   H     0.89928   0.19207   0.51681   0.00000  Uiso   1.00
O268   O     0.94822   0.07273   0.47207   0.00000  Uiso   1.00
O269   O     0.78082   0.63397   0.92739   0.00000  Uiso   1.00
O270   O     0.82623   0.12051   0.45194   0.00000  Uiso   1.00
N271   N     0.88446   0.96347   0.49996   0.00000  Uiso   1.00
N272   N     0.76517   0.65083   0.82443   0.00000  Uiso   1.00
N273   N     0.79752   0.28492   0.48564   0.00000  Uiso   1.00
N274   N     0.95654   0.91545   0.52751   0.00000  Uiso   1.00
N275   N     0.83725   0.60281   0.85198   0.00000  Uiso   1.00
N276   N     0.86960   0.23690   0.51319   0.00000  Uiso   1.00
C277   C     0.30938   0.86269   0.39912   0.00000  Uiso   1.00
C278   C     0.34769   0.78454   0.42021   0.00000  Uiso   1.00
C279   C     0.33974   0.69208   0.45328   0.00000  Uiso   1.00
C280   C     0.37952   0.63130   0.46815   0.00000  Uiso   1.00
C281   C     0.43199   0.50527   0.50355   0.00000  Uiso   1.00
C282   C     0.31481   0.87069   0.33078   0.00000  Uiso   1.00
C283   C     0.27923   0.85068   0.28866   0.00000  Uiso   1.00
C284   C     0.29133   0.86243   0.22825   0.00000  Uiso   1.00
C285   C     0.29276   0.87022   0.12480   0.00000  Uiso   1.00
C286   C     0.32373   0.97152   0.42416   0.00000  Uiso   1.00
C287   C     0.29564   0.03631   0.46054   0.00000  Uiso   1.00
C288   C     0.31525   0.13297   0.47873   0.00000  Uiso   1.00
C289   C     0.33052   0.29732   0.52028   0.00000  Uiso   1.00
C290   C     0.39415   0.91916   0.36671   0.00000  Uiso   1.00
C291   C     0.39373   0.81522   0.40260   0.00000  Uiso   1.00
C292   C     0.43353   0.75457   0.41743   0.00000  Uiso   1.00
C293   C     0.42565   0.66203   0.45052   0.00000  Uiso   1.00
C294   C     0.36085   0.90136   0.31318   0.00000  Uiso   1.00
C295   C     0.37301   0.91316   0.25281   0.00000  Uiso   1.00
C296   C     0.33745   0.89316   0.21061   0.00000  Uiso   1.00
C297   C     0.36977   0.00220   0.40656   0.00000  Uiso   1.00
C298   C     0.38943   0.09879   0.42469   0.00000  Uiso   1.00
C299   C     0.36137   0.16370   0.46110   0.00000  Uiso   1.00
H300   H     0.27354   0.83880   0.41281   0.00000  Uiso   1.00
H301   H     0.30411   0.66836   0.46689   0.00000  Uiso   1.00
H302   H     0.24360   0.82695   0.30229   0.00000  Uiso   1.00
H303   H     0.26001   0.01254   0.47415   0.00000  Uiso   1.00
H304   H     0.35830   0.49291   0.51906   0.00000  Uiso   1.00
H305   H     0.23072   0.82732   0.17200   0.00000  Uiso   1.00
H306   H     0.26532   0.21869   0.53439   0.00000  Uiso   1.00
H307   H     0.43000   0.94305   0.35301   0.00000  Uiso   1.00
H308   H     0.46915   0.77832   0.40381   0.00000  Uiso   1.00
H309   H     0.40864   0.93690   0.23921   0.00000  Uiso   1.00
H310   H     0.42506   0.12250   0.41107   0.00000  Uiso   1.00
H311   H     0.49226   0.58215   0.46785   0.00000  Uiso   1.00
H312   H     0.36467   0.91657   0.12080   0.00000  Uiso   1.00
H313   H     0.39928   0.30793   0.48319   0.00000  Uiso   1.00
O314   O     0.44822   0.42727   0.52793   0.00000  Uiso   1.00
O315   O     0.28082   0.86603   0.07261   0.00000  Uiso   1.00
O316   O     0.32623   0.37949   0.54806   0.00000  Uiso   1.00
N317   N     0.38446   0.53653   0.50004   0.00000  Uiso   1.00
N318   N     0.26517   0.84917   0.17557   0.00000  Uiso   1.00
N319   N     0.29752   0.21508   0.51436   0.00000  Uiso   1.00
N320   N     0.45654   0.58455   0.47249   0.00000  Uiso   1.00
N321   N     0.33725   0.89719   0.14802   0.00000  Uiso   1.00
N322   N     0.36960   0.26310   0.48681   0.00000  Uiso   1.00
C323   C     0.19062   0.13731   0.89912   0.00000  Uiso   1.00
C324   C     0.15231   0.21546   0.92021   0.00000  Uiso   1.00
C325   C     0.16026   0.30792   0.95328   0.00000  Uiso   1.00
C326   C     0.12048   0.36870   0.96815   0.00000  Uiso   1.00
C327   C     0.06801   0.49473   0.00355   0.00000  Uiso   1.00
C328   C     0.18519   0.12931   0.83078   0.00000  Uiso   1.00
C329   C     0.22077   0.14932   0.78866   0.00000  Uiso   1.00
C330   C     0.20867   0.13757   0.72825   0.00000  Uiso   1.00
C331   C     0.20724   0.12978   0.62480   0.00000  Uiso   1.00
C332   C     0.17627   0.02848   0.92416   0.00000  Uiso   1.00
C333   C     0.20436   0.96369   0.96054   0.00000  Uiso   1.00
C334   C     0.18475   0.86703   0.97873   0.00000  Uiso   1.00
C335   C     0.16948   0.70268   0.02028   0.00000  Uiso   1.00
C336   C     0.10585   0.08084   0.86671   0.00000  Uiso   1.00
C337   C     0.10627   0.18478   0.90260   0.00000  Uiso   1.00
C338   C     0.06647   0.24543   0.91743   0.00000  Uiso   1.00
C339   C     0.07435   0.33797   0.95052   0.00000  Uiso   1.00
C340   C     0.13915   0.09864   0.81318   0.00000  Uiso   1.00
C341   C     0.12699   0.08684   0.75281   0.00000  Uiso   1.00
C342   C     0.16255   0.10684   0.71061   0.00000  Uiso   1.00
C343   C     0.13023   0.99780   0.90656   0.00000  Uiso   1.00
C344   C     0.11057   0.90121   0.92469   0.00000  Uiso   1.00
C345   C     0.13863   0.83630   0.96110   0.00000  Uiso   1.00
H346   H     0.22646   0.16120   0.91281   0.00000  Uiso   1.00
H347   H     0.19589   0.33164   0.96689   0.00000  Uiso   1.00
H348   H     0.25640   0.17305   0.80229   0.00000  Uiso   1.00
H349   H     0.23999   0.98746   0.97415   0.00000  Uiso   1.00
H350   H     0.14170   0.50709   0.01906   0.00000  Uiso   1.00
H351   H     0.26928   0.17268   0.67200   0.00000  Uiso   1.00
H352   H     0.23468   0.78131   0.03439   0.00000  Uiso   1.00
H353   H     0.07000   0.05695   0.85301   0.00000  Uiso   1.00
H354   H     0.03085   0.22168   0.90381   0.00000  Uiso   1.00
H355   H     0.09136   0.06310   0.73921   0.00000  Uiso   1.00
H356   H     0.07494   0.87750   0.91107   0.00000  Uiso   1.00
H357   H     0.00774   0.41785   0.96785   0.00000  Uiso   1.00
H358   H     0.13533   0.08343   0.62080   0.00000  Uiso   1.00
H359   H     0.10072   0.69207   0.98319   0.00000  Uiso   1.00
O360   O     0.05178   0.57273   0.02793   0.00000  Uiso   1.00
O361   O     0.21918   0.13397   0.57261   0.00000  Uiso   1.00
O362   O     0.17377   0.62051   0.04806   0.00000  Uiso   1.00
N363   N     0.11554   0.46347   0.00004   0.00000  Uiso   1.00
N364   N     0.23483   0.15083   0.67557   0.00000  Uiso   1.00
N365   N     0.20248   0.78492   0.01436   0.00000  Uiso   1.00
N366   N     0.04346   0.41545   0.97249   0.00000  Uiso   1.00
N367   N     0.16275   0.10281   0.64802   0.00000  Uiso   1.00
N368   N     0.13040   0.73690   0.98681   0.00000  Uiso   1.00
