data_job_04858
_audit_creation_date              2018-12-19
_audit_creation_method            'Materials Studio'
_symmetry_space_group_name_H-M    'P1'
_symmetry_Int_Tables_number       1
_symmetry_cell_setting            triclinic
loop_
_symmetry_equiv_pos_as_xyz
  x,y,z
_cell_length_a                    12.3011
_cell_length_b                    11.4347
_cell_length_c                    18.3065
_cell_angle_alpha                 90.0000
_cell_angle_beta                  89.4833
_cell_angle_gamma                 90.0000
loop_
_atom_site_label
_atom_site_type_symbol
_atom_site_fract_x
_atom_site_fract_y
_atom_site_fract_z
_atom_site_U_iso_or_equiv
_atom_site_adp_type
_atom_site_occupancy
C1     C     0.71464   0.28468   0.63298   0.00000  Uiso   1.00
C2     C     0.71910   0.16123   0.66432   0.00000  Uiso   1.00
C3     C     0.69399   0.13004   0.73577   0.00000  Uiso   1.00
C4     C     0.70317   0.01251   0.75370   0.00000  Uiso   1.00
C5     C     0.70510   0.83349   0.81025   0.00000  Uiso   1.00
C6     C     0.82770   0.30931   0.60177   0.00000  Uiso   1.00
C7     C     0.89390   0.40264   0.62063   0.00000  Uiso   1.00
C8     C     0.99449   0.40976   0.58590   0.00000  Uiso   1.00
C9     C     0.16500   0.46070   0.54530   0.00000  Uiso   1.00
C10    C     0.63891   0.27845   0.56761   0.00000  Uiso   1.00
C11    C     0.54638   0.34586   0.55772   0.00000  Uiso   1.00
C12    C     0.48804   0.32701   0.49422   0.00000  Uiso   1.00
C13    C     0.36542   0.33004   0.40056   0.00000  Uiso   1.00
C14    C     0.77559   0.13139   0.53779   0.00000  Uiso   1.00
C15    C     0.75220   0.07797   0.61261   0.00000  Uiso   1.00
C16    C     0.76141   0.96045   0.63045   0.00000  Uiso   1.00
C17    C     0.73632   0.92909   0.70191   0.00000  Uiso   1.00
C18    C     0.86080   0.22606   0.55007   0.00000  Uiso   1.00
C19    C     0.96132   0.23305   0.51531   0.00000  Uiso   1.00
C20    C     0.02765   0.32636   0.53410   0.00000  Uiso   1.00
C21    C     0.67201   0.19519   0.51590   0.00000  Uiso   1.00
C22    C     0.61381   0.17625   0.45240   0.00000  Uiso   1.00
C23    C     0.52121   0.24361   0.44242   0.00000  Uiso   1.00
H24    H     0.68888   0.34950   0.67323   0.00000  Uiso   1.00
H25    H     0.66839   0.19451   0.77577   0.00000  Uiso   1.00
H26    H     0.86825   0.46706   0.66064   0.00000  Uiso   1.00
H27    H     0.52079   0.41028   0.59774   0.00000  Uiso   1.00
H28    H     0.66030   0.98595   0.86665   0.00000  Uiso   1.00
H29    H     0.08172   0.56068   0.62387   0.00000  Uiso   1.00
H30    H     0.34903   0.44094   0.49124   0.00000  Uiso   1.00
H31    H     0.80136   0.06657   0.49753   0.00000  Uiso   1.00
H32    H     0.78703   0.89604   0.59042   0.00000  Uiso   1.00
H33    H     0.98691   0.16860   0.47529   0.00000  Uiso   1.00
H34    H     0.63945   0.11181   0.41240   0.00000  Uiso   1.00
H35    H     0.75660   0.74370   0.71622   0.00000  Uiso   1.00
H36    H     0.17802   0.31844   0.47344   0.00000  Uiso   1.00
H37    H     0.44534   0.19869   0.34081   0.00000  Uiso   1.00
O38    O     0.69703   0.75776   0.85572   0.00000  Uiso   1.00
O39    O     0.24991   0.51180   0.53720   0.00000  Uiso   1.00
O40    O     0.28864   0.35469   0.36320   0.00000  Uiso   1.00
N41    N     0.68491   0.95234   0.81849   0.00000  Uiso   1.00
N42    N     0.07892   0.48966   0.59152   0.00000  Uiso   1.00
N43    N     0.39393   0.37774   0.46752   0.00000  Uiso   1.00
N44    N     0.73673   0.82199   0.73755   0.00000  Uiso   1.00
N45    N     0.13074   0.35931   0.51057   0.00000  Uiso   1.00
N46    N     0.44575   0.24739   0.38657   0.00000  Uiso   1.00
C47    C     0.28536   0.78468   0.86702   0.00000  Uiso   1.00
C48    C     0.28090   0.66123   0.83568   0.00000  Uiso   1.00
C49    C     0.30601   0.63004   0.76423   0.00000  Uiso   1.00
C50    C     0.29683   0.51251   0.74630   0.00000  Uiso   1.00
C51    C     0.29490   0.33349   0.68975   0.00000  Uiso   1.00
C52    C     0.17230   0.80931   0.89823   0.00000  Uiso   1.00
C53    C     0.10610   0.90264   0.87937   0.00000  Uiso   1.00
C54    C     0.00551   0.90976   0.91410   0.00000  Uiso   1.00
C55    C     0.83500   0.96070   0.95470   0.00000  Uiso   1.00
C56    C     0.36109   0.77845   0.93239   0.00000  Uiso   1.00
C57    C     0.45362   0.84586   0.94228   0.00000  Uiso   1.00
C58    C     0.51196   0.82701   0.00578   0.00000  Uiso   1.00
C59    C     0.63458   0.83004   0.09944   0.00000  Uiso   1.00
C60    C     0.22441   0.63139   0.96221   0.00000  Uiso   1.00
C61    C     0.24780   0.57797   0.88739   0.00000  Uiso   1.00
C62    C     0.23859   0.46045   0.86955   0.00000  Uiso   1.00
C63    C     0.26368   0.42909   0.79809   0.00000  Uiso   1.00
C64    C     0.13920   0.72606   0.94993   0.00000  Uiso   1.00
C65    C     0.03868   0.73305   0.98469   0.00000  Uiso   1.00
C66    C     0.97235   0.82636   0.96590   0.00000  Uiso   1.00
C67    C     0.32799   0.69519   0.98410   0.00000  Uiso   1.00
C68    C     0.38619   0.67625   0.04760   0.00000  Uiso   1.00
C69    C     0.47879   0.74361   0.05758   0.00000  Uiso   1.00
H70    H     0.31112   0.84950   0.82677   0.00000  Uiso   1.00
H71    H     0.33161   0.69451   0.72423   0.00000  Uiso   1.00
H72    H     0.13175   0.96706   0.83936   0.00000  Uiso   1.00
H73    H     0.47921   0.91028   0.90226   0.00000  Uiso   1.00
H74    H     0.33970   0.48595   0.63335   0.00000  Uiso   1.00
H75    H     0.91828   0.06068   0.87613   0.00000  Uiso   1.00
H76    H     0.65097   0.94094   0.00876   0.00000  Uiso   1.00
H77    H     0.19864   0.56657   0.00247   0.00000  Uiso   1.00
H78    H     0.21297   0.39604   0.90958   0.00000  Uiso   1.00
H79    H     0.01309   0.66860   0.02471   0.00000  Uiso   1.00
H80    H     0.36055   0.61181   0.08760   0.00000  Uiso   1.00
H81    H     0.24340   0.24370   0.78378   0.00000  Uiso   1.00
H82    H     0.82198   0.81844   0.02656   0.00000  Uiso   1.00
H83    H     0.55466   0.69869   0.15919   0.00000  Uiso   1.00
O84    O     0.30297   0.25776   0.64428   0.00000  Uiso   1.00
O85    O     0.75009   0.01180   0.96280   0.00000  Uiso   1.00
O86    O     0.71136   0.85469   0.13680   0.00000  Uiso   1.00
N87    N     0.31509   0.45234   0.68151   0.00000  Uiso   1.00
N88    N     0.92108   0.98966   0.90848   0.00000  Uiso   1.00
N89    N     0.60607   0.87774   0.03248   0.00000  Uiso   1.00
N90    N     0.26327   0.32199   0.76245   0.00000  Uiso   1.00
N91    N     0.86926   0.85931   0.98943   0.00000  Uiso   1.00
N92    N     0.55425   0.74739   0.11343   0.00000  Uiso   1.00
C93    C     0.28536   0.71532   0.36702   0.00000  Uiso   1.00
C94    C     0.28090   0.83877   0.33568   0.00000  Uiso   1.00
C95    C     0.30601   0.86996   0.26423   0.00000  Uiso   1.00
C96    C     0.29683   0.98749   0.24630   0.00000  Uiso   1.00
C97    C     0.29490   0.16651   0.18975   0.00000  Uiso   1.00
C98    C     0.17230   0.69069   0.39823   0.00000  Uiso   1.00
C99    C     0.10610   0.59736   0.37937   0.00000  Uiso   1.00
C100   C     0.00551   0.59024   0.41410   0.00000  Uiso   1.00
C101   C     0.83500   0.53930   0.45470   0.00000  Uiso   1.00
C102   C     0.36109   0.72155   0.43239   0.00000  Uiso   1.00
C103   C     0.45362   0.65414   0.44228   0.00000  Uiso   1.00
C104   C     0.51196   0.67299   0.50578   0.00000  Uiso   1.00
C105   C     0.63458   0.66996   0.59944   0.00000  Uiso   1.00
C106   C     0.22441   0.86861   0.46221   0.00000  Uiso   1.00
C107   C     0.24780   0.92203   0.38739   0.00000  Uiso   1.00
C108   C     0.23859   0.03955   0.36955   0.00000  Uiso   1.00
C109   C     0.26368   0.07091   0.29809   0.00000  Uiso   1.00
C110   C     0.13920   0.77394   0.44993   0.00000  Uiso   1.00
C111   C     0.03868   0.76695   0.48469   0.00000  Uiso   1.00
C112   C     0.97235   0.67364   0.46590   0.00000  Uiso   1.00
C113   C     0.32799   0.80481   0.48410   0.00000  Uiso   1.00
C114   C     0.38619   0.82375   0.54760   0.00000  Uiso   1.00
C115   C     0.47879   0.75639   0.55758   0.00000  Uiso   1.00
H116   H     0.31112   0.65050   0.32677   0.00000  Uiso   1.00
H117   H     0.33161   0.80549   0.22423   0.00000  Uiso   1.00
H118   H     0.13175   0.53294   0.33936   0.00000  Uiso   1.00
H119   H     0.47921   0.58972   0.40226   0.00000  Uiso   1.00
H120   H     0.33970   0.01405   0.13335   0.00000  Uiso   1.00
H121   H     0.91828   0.43932   0.37613   0.00000  Uiso   1.00
H122   H     0.65097   0.55906   0.50876   0.00000  Uiso   1.00
H123   H     0.19864   0.93343   0.50247   0.00000  Uiso   1.00
H124   H     0.21297   0.10396   0.40958   0.00000  Uiso   1.00
H125   H     0.01309   0.83140   0.52471   0.00000  Uiso   1.00
H126   H     0.36055   0.88819   0.58760   0.00000  Uiso   1.00
H127   H     0.24340   0.25630   0.28378   0.00000  Uiso   1.00
H128   H     0.82198   0.68156   0.52656   0.00000  Uiso   1.00
H129   H     0.55466   0.80131   0.65919   0.00000  Uiso   1.00
O130   O     0.30297   0.24224   0.14428   0.00000  Uiso   1.00
O131   O     0.75009   0.48820   0.46280   0.00000  Uiso   1.00
O132   O     0.71136   0.64531   0.63680   0.00000  Uiso   1.00
N133   N     0.31509   0.04766   0.18151   0.00000  Uiso   1.00
N134   N     0.92108   0.51034   0.40848   0.00000  Uiso   1.00
N135   N     0.60607   0.62226   0.53248   0.00000  Uiso   1.00
N136   N     0.26327   0.17801   0.26245   0.00000  Uiso   1.00
N137   N     0.86926   0.64069   0.48943   0.00000  Uiso   1.00
N138   N     0.55425   0.75261   0.61343   0.00000  Uiso   1.00
C139   C     0.71464   0.21532   0.13298   0.00000  Uiso   1.00
C140   C     0.71910   0.33877   0.16432   0.00000  Uiso   1.00
C141   C     0.69399   0.36996   0.23577   0.00000  Uiso   1.00
C142   C     0.70317   0.48749   0.25370   0.00000  Uiso   1.00
C143   C     0.70510   0.66651   0.31025   0.00000  Uiso   1.00
C144   C     0.82770   0.19069   0.10177   0.00000  Uiso   1.00
C145   C     0.89390   0.09736   0.12063   0.00000  Uiso   1.00
C146   C     0.99449   0.09024   0.08590   0.00000  Uiso   1.00
C147   C     0.16500   0.03930   0.04530   0.00000  Uiso   1.00
C148   C     0.63891   0.22155   0.06761   0.00000  Uiso   1.00
C149   C     0.54638   0.15414   0.05772   0.00000  Uiso   1.00
C150   C     0.48804   0.17299   0.99422   0.00000  Uiso   1.00
C151   C     0.36542   0.16996   0.90056   0.00000  Uiso   1.00
C152   C     0.77559   0.36861   0.03779   0.00000  Uiso   1.00
C153   C     0.75220   0.42203   0.11261   0.00000  Uiso   1.00
C154   C     0.76141   0.53955   0.13045   0.00000  Uiso   1.00
C155   C     0.73632   0.57091   0.20191   0.00000  Uiso   1.00
C156   C     0.86080   0.27394   0.05007   0.00000  Uiso   1.00
C157   C     0.96132   0.26695   0.01531   0.00000  Uiso   1.00
C158   C     0.02765   0.17364   0.03410   0.00000  Uiso   1.00
C159   C     0.67201   0.30481   0.01590   0.00000  Uiso   1.00
C160   C     0.61381   0.32375   0.95240   0.00000  Uiso   1.00
C161   C     0.52121   0.25639   0.94242   0.00000  Uiso   1.00
H162   H     0.68888   0.15050   0.17323   0.00000  Uiso   1.00
H163   H     0.66839   0.30549   0.27577   0.00000  Uiso   1.00
H164   H     0.86825   0.03294   0.16064   0.00000  Uiso   1.00
H165   H     0.52079   0.08972   0.09774   0.00000  Uiso   1.00
H166   H     0.66030   0.51405   0.36665   0.00000  Uiso   1.00
H167   H     0.08172   0.93932   0.12387   0.00000  Uiso   1.00
H168   H     0.34903   0.05906   0.99124   0.00000  Uiso   1.00
H169   H     0.80136   0.43343   0.99753   0.00000  Uiso   1.00
H170   H     0.78703   0.60396   0.09042   0.00000  Uiso   1.00
H171   H     0.98691   0.33140   0.97529   0.00000  Uiso   1.00
H172   H     0.63945   0.38819   0.91240   0.00000  Uiso   1.00
H173   H     0.75660   0.75630   0.21622   0.00000  Uiso   1.00
H174   H     0.17802   0.18156   0.97344   0.00000  Uiso   1.00
H175   H     0.44534   0.30131   0.84081   0.00000  Uiso   1.00
O176   O     0.69703   0.74224   0.35572   0.00000  Uiso   1.00
O177   O     0.24991   0.98820   0.03720   0.00000  Uiso   1.00
O178   O     0.28864   0.14531   0.86320   0.00000  Uiso   1.00
N179   N     0.68491   0.54766   0.31849   0.00000  Uiso   1.00
N180   N     0.07892   0.01034   0.09152   0.00000  Uiso   1.00
N181   N     0.39393   0.12226   0.96752   0.00000  Uiso   1.00
N182   N     0.73673   0.67801   0.23755   0.00000  Uiso   1.00
N183   N     0.13074   0.14069   0.01057   0.00000  Uiso   1.00
N184   N     0.44575   0.25261   0.88657   0.00000  Uiso   1.00
