data_job_00598
_audit_creation_date              2018-12-19
_audit_creation_method            'Materials Studio'
_symmetry_space_group_name_H-M    'P1'
_symmetry_Int_Tables_number       1
_symmetry_cell_setting            triclinic
loop_
_symmetry_equiv_pos_as_xyz
  x,y,z
_cell_length_a                    20.8211
_cell_length_b                    23.9735
_cell_length_c                    12.3945
_cell_angle_alpha                 90.0000
_cell_angle_beta                  90.0000
_cell_angle_gamma                 90.0000
loop_
_atom_site_label
_atom_site_type_symbol
_atom_site_fract_x
_atom_site_fract_y
_atom_site_fract_z
_atom_site_U_iso_or_equiv
_atom_site_adp_type
_atom_site_occupancy
C1     C     0.23167   0.38601   0.23648   0.00000  Uiso   1.00
C2     C     0.21381   0.35688   0.13129   0.00000  Uiso   1.00
C3     C     0.15537   0.33154   0.10906   0.00000  Uiso   1.00
C4     C     0.14848   0.30717   0.00810   0.00000  Uiso   1.00
C5     C     0.11319   0.26178   0.85635   0.00000  Uiso   1.00
C6     C     0.29243   0.35728   0.27687   0.00000  Uiso   1.00
C7     C     0.30009   0.33229   0.37704   0.00000  Uiso   1.00
C8     C     0.35939   0.30826   0.39864   0.00000  Uiso   1.00
C9     C     0.44617   0.26353   0.47292   0.00000  Uiso   1.00
C10    C     0.25160   0.44508   0.20550   0.00000  Uiso   1.00
C11    C     0.22495   0.49390   0.24569   0.00000  Uiso   1.00
C12    C     0.24989   0.54380   0.20721   0.00000  Uiso   1.00
C13    C     0.27328   0.63538   0.17068   0.00000  Uiso   1.00
C14    C     0.32336   0.38780   0.09672   0.00000  Uiso   1.00
C15    C     0.26362   0.35786   0.05539   0.00000  Uiso   1.00
C16    C     0.25682   0.33352   0.95443   0.00000  Uiso   1.00
C17    C     0.19837   0.30815   0.93205   0.00000  Uiso   1.00
C18    C     0.34224   0.35826   0.20096   0.00000  Uiso   1.00
C19    C     0.40154   0.33427   0.22242   0.00000  Uiso   1.00
C20    C     0.40929   0.30924   0.32259   0.00000  Uiso   1.00
C21    C     0.30141   0.44606   0.12959   0.00000  Uiso   1.00
C22    C     0.32640   0.49589   0.09105   0.00000  Uiso   1.00
C23    C     0.29978   0.54478   0.13117   0.00000  Uiso   1.00
H24    H     0.19290   0.38525   0.29558   0.00000  Uiso   1.00
H25    H     0.11684   0.33079   0.16783   0.00000  Uiso   1.00
H26    H     0.26154   0.33154   0.43577   0.00000  Uiso   1.00
H27    H     0.18641   0.49313   0.30443   0.00000  Uiso   1.00
H28    H     0.05448   0.27082   0.99273   0.00000  Uiso   1.00
H29    H     0.35960   0.27243   0.55772   0.00000  Uiso   1.00
H30    H     0.20117   0.61318   0.28076   0.00000  Uiso   1.00
H31    H     0.36214   0.38856   0.03762   0.00000  Uiso   1.00
H32    H     0.29537   0.33429   0.89571   0.00000  Uiso   1.00
H33    H     0.44007   0.33504   0.16366   0.00000  Uiso   1.00
H34    H     0.36494   0.49663   0.03231   0.00000  Uiso   1.00
H35    H     0.19939   0.27366   0.77187   0.00000  Uiso   1.00
H36    H     0.50451   0.27526   0.33686   0.00000  Uiso   1.00
H37    H     0.34608   0.61601   0.05990   0.00000  Uiso   1.00
O38    O     0.07996   0.23646   0.79361   0.00000  Uiso   1.00
O39    O     0.48027   0.23857   0.53486   0.00000  Uiso   1.00
O40    O     0.27241   0.68562   0.17149   0.00000  Uiso   1.00
N41    N     0.09775   0.27895   0.96022   0.00000  Uiso   1.00
N42    N     0.38301   0.28044   0.48844   0.00000  Uiso   1.00
N43    N     0.23491   0.59901   0.22953   0.00000  Uiso   1.00
N44    N     0.17572   0.28048   0.84137   0.00000  Uiso   1.00
N45    N     0.46098   0.28197   0.36960   0.00000  Uiso   1.00
N46    N     0.31288   0.60054   0.11069   0.00000  Uiso   1.00
C47    C     0.73167   0.88601   0.23648   0.00000  Uiso   1.00
C48    C     0.71381   0.85688   0.13129   0.00000  Uiso   1.00
C49    C     0.65537   0.83154   0.10906   0.00000  Uiso   1.00
C50    C     0.64848   0.80717   0.00810   0.00000  Uiso   1.00
C51    C     0.61319   0.76178   0.85635   0.00000  Uiso   1.00
C52    C     0.79243   0.85728   0.27687   0.00000  Uiso   1.00
C53    C     0.80009   0.83229   0.37704   0.00000  Uiso   1.00
C54    C     0.85939   0.80826   0.39864   0.00000  Uiso   1.00
C55    C     0.94617   0.76353   0.47292   0.00000  Uiso   1.00
C56    C     0.75160   0.94508   0.20550   0.00000  Uiso   1.00
C57    C     0.72495   0.99390   0.24569   0.00000  Uiso   1.00
C58    C     0.74989   0.04380   0.20721   0.00000  Uiso   1.00
C59    C     0.77328   0.13538   0.17068   0.00000  Uiso   1.00
C60    C     0.82336   0.88780   0.09672   0.00000  Uiso   1.00
C61    C     0.76362   0.85786   0.05539   0.00000  Uiso   1.00
C62    C     0.75682   0.83352   0.95443   0.00000  Uiso   1.00
C63    C     0.69837   0.80815   0.93205   0.00000  Uiso   1.00
C64    C     0.84224   0.85826   0.20096   0.00000  Uiso   1.00
C65    C     0.90154   0.83427   0.22242   0.00000  Uiso   1.00
C66    C     0.90929   0.80924   0.32259   0.00000  Uiso   1.00
C67    C     0.80141   0.94606   0.12959   0.00000  Uiso   1.00
C68    C     0.82640   0.99589   0.09105   0.00000  Uiso   1.00
C69    C     0.79978   0.04478   0.13117   0.00000  Uiso   1.00
H70    H     0.69290   0.88525   0.29558   0.00000  Uiso   1.00
H71    H     0.61684   0.83079   0.16783   0.00000  Uiso   1.00
H72    H     0.76154   0.83154   0.43577   0.00000  Uiso   1.00
H73    H     0.68641   0.99313   0.30443   0.00000  Uiso   1.00
H74    H     0.55448   0.77082   0.99273   0.00000  Uiso   1.00
H75    H     0.85960   0.77243   0.55772   0.00000  Uiso   1.00
H76    H     0.70117   0.11318   0.28076   0.00000  Uiso   1.00
H77    H     0.86214   0.88856   0.03762   0.00000  Uiso   1.00
H78    H     0.79537   0.83429   0.89571   0.00000  Uiso   1.00
H79    H     0.94007   0.83504   0.16366   0.00000  Uiso   1.00
H80    H     0.86494   0.99663   0.03231   0.00000  Uiso   1.00
H81    H     0.69939   0.77366   0.77187   0.00000  Uiso   1.00
H82    H     0.00451   0.77526   0.33686   0.00000  Uiso   1.00
H83    H     0.84608   0.11601   0.05990   0.00000  Uiso   1.00
O84    O     0.57996   0.73646   0.79361   0.00000  Uiso   1.00
O85    O     0.98027   0.73857   0.53486   0.00000  Uiso   1.00
O86    O     0.77241   0.18562   0.17149   0.00000  Uiso   1.00
N87    N     0.59775   0.77895   0.96022   0.00000  Uiso   1.00
N88    N     0.88301   0.78044   0.48844   0.00000  Uiso   1.00
N89    N     0.73491   0.09901   0.22953   0.00000  Uiso   1.00
N90    N     0.67572   0.78048   0.84137   0.00000  Uiso   1.00
N91    N     0.96098   0.78197   0.36960   0.00000  Uiso   1.00
N92    N     0.81288   0.10054   0.11069   0.00000  Uiso   1.00
C93    C     0.76833   0.61399   0.23648   0.00000  Uiso   1.00
C94    C     0.78619   0.64312   0.13129   0.00000  Uiso   1.00
C95    C     0.84463   0.66846   0.10906   0.00000  Uiso   1.00
C96    C     0.85152   0.69283   0.00810   0.00000  Uiso   1.00
C97    C     0.88681   0.73822   0.85635   0.00000  Uiso   1.00
C98    C     0.70757   0.64272   0.27687   0.00000  Uiso   1.00
C99    C     0.69991   0.66771   0.37704   0.00000  Uiso   1.00
C100   C     0.64061   0.69174   0.39864   0.00000  Uiso   1.00
C101   C     0.55383   0.73647   0.47292   0.00000  Uiso   1.00
C102   C     0.74840   0.55492   0.20550   0.00000  Uiso   1.00
C103   C     0.77505   0.50610   0.24569   0.00000  Uiso   1.00
C104   C     0.75011   0.45620   0.20721   0.00000  Uiso   1.00
C105   C     0.72672   0.36462   0.17068   0.00000  Uiso   1.00
C106   C     0.67664   0.61220   0.09672   0.00000  Uiso   1.00
C107   C     0.73638   0.64214   0.05539   0.00000  Uiso   1.00
C108   C     0.74318   0.66648   0.95443   0.00000  Uiso   1.00
C109   C     0.80163   0.69185   0.93205   0.00000  Uiso   1.00
C110   C     0.65776   0.64174   0.20096   0.00000  Uiso   1.00
C111   C     0.59846   0.66573   0.22242   0.00000  Uiso   1.00
C112   C     0.59071   0.69076   0.32259   0.00000  Uiso   1.00
C113   C     0.69859   0.55394   0.12959   0.00000  Uiso   1.00
C114   C     0.67360   0.50411   0.09105   0.00000  Uiso   1.00
C115   C     0.70022   0.45522   0.13117   0.00000  Uiso   1.00
H116   H     0.80710   0.61475   0.29558   0.00000  Uiso   1.00
H117   H     0.88316   0.66921   0.16783   0.00000  Uiso   1.00
H118   H     0.73846   0.66846   0.43577   0.00000  Uiso   1.00
H119   H     0.81359   0.50687   0.30443   0.00000  Uiso   1.00
H120   H     0.94552   0.72918   0.99273   0.00000  Uiso   1.00
H121   H     0.64040   0.72757   0.55772   0.00000  Uiso   1.00
H122   H     0.79883   0.38682   0.28076   0.00000  Uiso   1.00
H123   H     0.63786   0.61144   0.03762   0.00000  Uiso   1.00
H124   H     0.70463   0.66571   0.89571   0.00000  Uiso   1.00
H125   H     0.55993   0.66496   0.16366   0.00000  Uiso   1.00
H126   H     0.63506   0.50337   0.03231   0.00000  Uiso   1.00
H127   H     0.80061   0.72634   0.77187   0.00000  Uiso   1.00
H128   H     0.49549   0.72474   0.33686   0.00000  Uiso   1.00
H129   H     0.65392   0.38399   0.05990   0.00000  Uiso   1.00
O130   O     0.92004   0.76354   0.79361   0.00000  Uiso   1.00
O131   O     0.51973   0.76143   0.53486   0.00000  Uiso   1.00
O132   O     0.72759   0.31438   0.17149   0.00000  Uiso   1.00
N133   N     0.90225   0.72105   0.96022   0.00000  Uiso   1.00
N134   N     0.61699   0.71956   0.48844   0.00000  Uiso   1.00
N135   N     0.76509   0.40099   0.22953   0.00000  Uiso   1.00
N136   N     0.82428   0.71952   0.84137   0.00000  Uiso   1.00
N137   N     0.53902   0.71803   0.36960   0.00000  Uiso   1.00
N138   N     0.68712   0.39946   0.11069   0.00000  Uiso   1.00
C139   C     0.26833   0.11399   0.23648   0.00000  Uiso   1.00
C140   C     0.28619   0.14312   0.13129   0.00000  Uiso   1.00
C141   C     0.34463   0.16846   0.10906   0.00000  Uiso   1.00
C142   C     0.35152   0.19283   0.00810   0.00000  Uiso   1.00
C143   C     0.38681   0.23822   0.85635   0.00000  Uiso   1.00
C144   C     0.20757   0.14272   0.27687   0.00000  Uiso   1.00
C145   C     0.19991   0.16771   0.37704   0.00000  Uiso   1.00
C146   C     0.14061   0.19174   0.39864   0.00000  Uiso   1.00
C147   C     0.05383   0.23647   0.47292   0.00000  Uiso   1.00
C148   C     0.24840   0.05492   0.20550   0.00000  Uiso   1.00
C149   C     0.27505   0.00610   0.24569   0.00000  Uiso   1.00
C150   C     0.25011   0.95620   0.20721   0.00000  Uiso   1.00
C151   C     0.22672   0.86462   0.17068   0.00000  Uiso   1.00
C152   C     0.17664   0.11220   0.09672   0.00000  Uiso   1.00
C153   C     0.23638   0.14214   0.05539   0.00000  Uiso   1.00
C154   C     0.24318   0.16648   0.95443   0.00000  Uiso   1.00
C155   C     0.30163   0.19185   0.93205   0.00000  Uiso   1.00
C156   C     0.15776   0.14174   0.20096   0.00000  Uiso   1.00
C157   C     0.09846   0.16573   0.22242   0.00000  Uiso   1.00
C158   C     0.09071   0.19076   0.32259   0.00000  Uiso   1.00
C159   C     0.19859   0.05394   0.12959   0.00000  Uiso   1.00
C160   C     0.17360   0.00411   0.09105   0.00000  Uiso   1.00
C161   C     0.20022   0.95522   0.13117   0.00000  Uiso   1.00
H162   H     0.30710   0.11475   0.29558   0.00000  Uiso   1.00
H163   H     0.38316   0.16921   0.16783   0.00000  Uiso   1.00
H164   H     0.23846   0.16846   0.43577   0.00000  Uiso   1.00
H165   H     0.31359   0.00687   0.30443   0.00000  Uiso   1.00
H166   H     0.44552   0.22918   0.99273   0.00000  Uiso   1.00
H167   H     0.14040   0.22757   0.55772   0.00000  Uiso   1.00
H168   H     0.29883   0.88682   0.28076   0.00000  Uiso   1.00
H169   H     0.13786   0.11144   0.03762   0.00000  Uiso   1.00
H170   H     0.20463   0.16571   0.89571   0.00000  Uiso   1.00
H171   H     0.05993   0.16496   0.16366   0.00000  Uiso   1.00
H172   H     0.13506   0.00337   0.03231   0.00000  Uiso   1.00
H173   H     0.30061   0.22634   0.77187   0.00000  Uiso   1.00
H174   H     0.99549   0.22474   0.33686   0.00000  Uiso   1.00
H175   H     0.15392   0.88399   0.05990   0.00000  Uiso   1.00
O176   O     0.42004   0.26354   0.79361   0.00000  Uiso   1.00
O177   O     0.01973   0.26143   0.53486   0.00000  Uiso   1.00
O178   O     0.22759   0.81438   0.17149   0.00000  Uiso   1.00
N179   N     0.40225   0.22105   0.96022   0.00000  Uiso   1.00
N180   N     0.11699   0.21956   0.48844   0.00000  Uiso   1.00
N181   N     0.26509   0.90099   0.22953   0.00000  Uiso   1.00
N182   N     0.32428   0.21952   0.84137   0.00000  Uiso   1.00
N183   N     0.03902   0.21803   0.36960   0.00000  Uiso   1.00
N184   N     0.18712   0.89946   0.11069   0.00000  Uiso   1.00
C185   C     0.23167   0.61399   0.73648   0.00000  Uiso   1.00
C186   C     0.21381   0.64312   0.63129   0.00000  Uiso   1.00
C187   C     0.15537   0.66846   0.60906   0.00000  Uiso   1.00
C188   C     0.14848   0.69283   0.50810   0.00000  Uiso   1.00
C189   C     0.11319   0.73822   0.35635   0.00000  Uiso   1.00
C190   C     0.29243   0.64272   0.77687   0.00000  Uiso   1.00
C191   C     0.30009   0.66771   0.87704   0.00000  Uiso   1.00
C192   C     0.35939   0.69174   0.89864   0.00000  Uiso   1.00
C193   C     0.44617   0.73647   0.97292   0.00000  Uiso   1.00
C194   C     0.25160   0.55492   0.70550   0.00000  Uiso   1.00
C195   C     0.22495   0.50610   0.74569   0.00000  Uiso   1.00
C196   C     0.24989   0.45620   0.70721   0.00000  Uiso   1.00
C197   C     0.27328   0.36462   0.67068   0.00000  Uiso   1.00
C198   C     0.32336   0.61220   0.59672   0.00000  Uiso   1.00
C199   C     0.26362   0.64214   0.55539   0.00000  Uiso   1.00
C200   C     0.25682   0.66648   0.45443   0.00000  Uiso   1.00
C201   C     0.19837   0.69185   0.43205   0.00000  Uiso   1.00
C202   C     0.34224   0.64174   0.70096   0.00000  Uiso   1.00
C203   C     0.40154   0.66573   0.72242   0.00000  Uiso   1.00
C204   C     0.40929   0.69076   0.82259   0.00000  Uiso   1.00
C205   C     0.30141   0.55394   0.62959   0.00000  Uiso   1.00
C206   C     0.32640   0.50411   0.59105   0.00000  Uiso   1.00
C207   C     0.29978   0.45522   0.63117   0.00000  Uiso   1.00
H208   H     0.19290   0.61475   0.79558   0.00000  Uiso   1.00
H209   H     0.11684   0.66921   0.66783   0.00000  Uiso   1.00
H210   H     0.26154   0.66846   0.93577   0.00000  Uiso   1.00
H211   H     0.18641   0.50687   0.80443   0.00000  Uiso   1.00
H212   H     0.05448   0.72918   0.49273   0.00000  Uiso   1.00
H213   H     0.35960   0.72757   0.05772   0.00000  Uiso   1.00
H214   H     0.20117   0.38682   0.78076   0.00000  Uiso   1.00
H215   H     0.36214   0.61144   0.53762   0.00000  Uiso   1.00
H216   H     0.29537   0.66571   0.39571   0.00000  Uiso   1.00
H217   H     0.44007   0.66496   0.66366   0.00000  Uiso   1.00
H218   H     0.36494   0.50337   0.53231   0.00000  Uiso   1.00
H219   H     0.19939   0.72634   0.27187   0.00000  Uiso   1.00
H220   H     0.50451   0.72474   0.83686   0.00000  Uiso   1.00
H221   H     0.34608   0.38399   0.55990   0.00000  Uiso   1.00
O222   O     0.07996   0.76354   0.29361   0.00000  Uiso   1.00
O223   O     0.48027   0.76143   0.03486   0.00000  Uiso   1.00
O224   O     0.27241   0.31438   0.67149   0.00000  Uiso   1.00
N225   N     0.09775   0.72105   0.46022   0.00000  Uiso   1.00
N226   N     0.38301   0.71956   0.98844   0.00000  Uiso   1.00
N227   N     0.23491   0.40099   0.72953   0.00000  Uiso   1.00
N228   N     0.17572   0.71952   0.34137   0.00000  Uiso   1.00
N229   N     0.46098   0.71803   0.86960   0.00000  Uiso   1.00
N230   N     0.31288   0.39946   0.61069   0.00000  Uiso   1.00
C231   C     0.73167   0.11399   0.73648   0.00000  Uiso   1.00
C232   C     0.71381   0.14312   0.63129   0.00000  Uiso   1.00
C233   C     0.65537   0.16846   0.60906   0.00000  Uiso   1.00
C234   C     0.64848   0.19283   0.50810   0.00000  Uiso   1.00
C235   C     0.61319   0.23822   0.35635   0.00000  Uiso   1.00
C236   C     0.79243   0.14272   0.77687   0.00000  Uiso   1.00
C237   C     0.80009   0.16771   0.87704   0.00000  Uiso   1.00
C238   C     0.85939   0.19174   0.89864   0.00000  Uiso   1.00
C239   C     0.94617   0.23647   0.97292   0.00000  Uiso   1.00
C240   C     0.75160   0.05492   0.70550   0.00000  Uiso   1.00
C241   C     0.72495   0.00610   0.74569   0.00000  Uiso   1.00
C242   C     0.74989   0.95620   0.70721   0.00000  Uiso   1.00
C243   C     0.77328   0.86462   0.67068   0.00000  Uiso   1.00
C244   C     0.82336   0.11220   0.59672   0.00000  Uiso   1.00
C245   C     0.76362   0.14214   0.55539   0.00000  Uiso   1.00
C246   C     0.75682   0.16648   0.45443   0.00000  Uiso   1.00
C247   C     0.69837   0.19185   0.43205   0.00000  Uiso   1.00
C248   C     0.84224   0.14174   0.70096   0.00000  Uiso   1.00
C249   C     0.90154   0.16573   0.72242   0.00000  Uiso   1.00
C250   C     0.90929   0.19076   0.82259   0.00000  Uiso   1.00
C251   C     0.80141   0.05394   0.62959   0.00000  Uiso   1.00
C252   C     0.82640   0.00411   0.59105   0.00000  Uiso   1.00
C253   C     0.79978   0.95522   0.63117   0.00000  Uiso   1.00
H254   H     0.69290   0.11475   0.79558   0.00000  Uiso   1.00
H255   H     0.61684   0.16921   0.66783   0.00000  Uiso   1.00
H256   H     0.76154   0.16846   0.93577   0.00000  Uiso   1.00
H257   H     0.68641   0.00687   0.80443   0.00000  Uiso   1.00
H258   H     0.55448   0.22918   0.49273   0.00000  Uiso   1.00
H259   H     0.85960   0.22757   0.05772   0.00000  Uiso   1.00
H260   H     0.70117   0.88682   0.78076   0.00000  Uiso   1.00
H261   H     0.86214   0.11144   0.53762   0.00000  Uiso   1.00
H262   H     0.79537   0.16571   0.39571   0.00000  Uiso   1.00
H263   H     0.94007   0.16496   0.66366   0.00000  Uiso   1.00
H264   H     0.86494   0.00337   0.53231   0.00000  Uiso   1.00
H265   H     0.69939   0.22634   0.27187   0.00000  Uiso   1.00
H266   H     0.00451   0.22474   0.83686   0.00000  Uiso   1.00
H267   H     0.84608   0.88399   0.55990   0.00000  Uiso   1.00
O268   O     0.57996   0.26354   0.29361   0.00000  Uiso   1.00
O269   O     0.98027   0.26143   0.03486   0.00000  Uiso   1.00
O270   O     0.77241   0.81438   0.67149   0.00000  Uiso   1.00
N271   N     0.59775   0.22105   0.46022   0.00000  Uiso   1.00
N272   N     0.88301   0.21956   0.98844   0.00000  Uiso   1.00
N273   N     0.73491   0.90099   0.72953   0.00000  Uiso   1.00
N274   N     0.67572   0.21952   0.34137   0.00000  Uiso   1.00
N275   N     0.96098   0.21803   0.86960   0.00000  Uiso   1.00
N276   N     0.81288   0.89946   0.61069   0.00000  Uiso   1.00
C277   C     0.76833   0.38601   0.73648   0.00000  Uiso   1.00
C278   C     0.78619   0.35688   0.63129   0.00000  Uiso   1.00
C279   C     0.84463   0.33154   0.60906   0.00000  Uiso   1.00
C280   C     0.85152   0.30717   0.50810   0.00000  Uiso   1.00
C281   C     0.88681   0.26178   0.35635   0.00000  Uiso   1.00
C282   C     0.70757   0.35728   0.77687   0.00000  Uiso   1.00
C283   C     0.69991   0.33229   0.87704   0.00000  Uiso   1.00
C284   C     0.64061   0.30826   0.89864   0.00000  Uiso   1.00
C285   C     0.55383   0.26353   0.97292   0.00000  Uiso   1.00
C286   C     0.74840   0.44508   0.70550   0.00000  Uiso   1.00
C287   C     0.77505   0.49390   0.74569   0.00000  Uiso   1.00
C288   C     0.75011   0.54380   0.70721   0.00000  Uiso   1.00
C289   C     0.72672   0.63538   0.67068   0.00000  Uiso   1.00
C290   C     0.67664   0.38780   0.59672   0.00000  Uiso   1.00
C291   C     0.73638   0.35786   0.55539   0.00000  Uiso   1.00
C292   C     0.74318   0.33352   0.45443   0.00000  Uiso   1.00
C293   C     0.80163   0.30815   0.43205   0.00000  Uiso   1.00
C294   C     0.65776   0.35826   0.70096   0.00000  Uiso   1.00
C295   C     0.59846   0.33427   0.72242   0.00000  Uiso   1.00
C296   C     0.59071   0.30924   0.82259   0.00000  Uiso   1.00
C297   C     0.69859   0.44606   0.62959   0.00000  Uiso   1.00
C298   C     0.67360   0.49589   0.59105   0.00000  Uiso   1.00
C299   C     0.70022   0.54478   0.63117   0.00000  Uiso   1.00
H300   H     0.80710   0.38525   0.79558   0.00000  Uiso   1.00
H301   H     0.88316   0.33079   0.66783   0.00000  Uiso   1.00
H302   H     0.73846   0.33154   0.93577   0.00000  Uiso   1.00
H303   H     0.81359   0.49313   0.80443   0.00000  Uiso   1.00
H304   H     0.94552   0.27082   0.49273   0.00000  Uiso   1.00
H305   H     0.64040   0.27243   0.05772   0.00000  Uiso   1.00
H306   H     0.79883   0.61318   0.78076   0.00000  Uiso   1.00
H307   H     0.63786   0.38856   0.53762   0.00000  Uiso   1.00
H308   H     0.70463   0.33429   0.39571   0.00000  Uiso   1.00
H309   H     0.55993   0.33504   0.66366   0.00000  Uiso   1.00
H310   H     0.63506   0.49663   0.53231   0.00000  Uiso   1.00
H311   H     0.80061   0.27366   0.27187   0.00000  Uiso   1.00
H312   H     0.49549   0.27526   0.83686   0.00000  Uiso   1.00
H313   H     0.65392   0.61601   0.55990   0.00000  Uiso   1.00
O314   O     0.92004   0.23646   0.29361   0.00000  Uiso   1.00
O315   O     0.51973   0.23857   0.03486   0.00000  Uiso   1.00
O316   O     0.72759   0.68562   0.67149   0.00000  Uiso   1.00
N317   N     0.90225   0.27895   0.46022   0.00000  Uiso   1.00
N318   N     0.61699   0.28044   0.98844   0.00000  Uiso   1.00
N319   N     0.76509   0.59901   0.72953   0.00000  Uiso   1.00
N320   N     0.82428   0.28048   0.34137   0.00000  Uiso   1.00
N321   N     0.53902   0.28197   0.86960   0.00000  Uiso   1.00
N322   N     0.68712   0.60054   0.61069   0.00000  Uiso   1.00
C323   C     0.26833   0.88601   0.73648   0.00000  Uiso   1.00
C324   C     0.28619   0.85688   0.63129   0.00000  Uiso   1.00
C325   C     0.34463   0.83154   0.60906   0.00000  Uiso   1.00
C326   C     0.35152   0.80717   0.50810   0.00000  Uiso   1.00
C327   C     0.38681   0.76178   0.35635   0.00000  Uiso   1.00
C328   C     0.20757   0.85728   0.77687   0.00000  Uiso   1.00
C329   C     0.19991   0.83229   0.87704   0.00000  Uiso   1.00
C330   C     0.14061   0.80826   0.89864   0.00000  Uiso   1.00
C331   C     0.05383   0.76353   0.97292   0.00000  Uiso   1.00
C332   C     0.24840   0.94508   0.70550   0.00000  Uiso   1.00
C333   C     0.27505   0.99390   0.74569   0.00000  Uiso   1.00
C334   C     0.25011   0.04380   0.70721   0.00000  Uiso   1.00
C335   C     0.22672   0.13538   0.67068   0.00000  Uiso   1.00
C336   C     0.17664   0.88780   0.59672   0.00000  Uiso   1.00
C337   C     0.23638   0.85786   0.55539   0.00000  Uiso   1.00
C338   C     0.24318   0.83352   0.45443   0.00000  Uiso   1.00
C339   C     0.30163   0.80815   0.43205   0.00000  Uiso   1.00
C340   C     0.15776   0.85826   0.70096   0.00000  Uiso   1.00
C341   C     0.09846   0.83427   0.72242   0.00000  Uiso   1.00
C342   C     0.09071   0.80924   0.82259   0.00000  Uiso   1.00
C343   C     0.19859   0.94606   0.62959   0.00000  Uiso   1.00
C344   C     0.17360   0.99589   0.59105   0.00000  Uiso   1.00
C345   C     0.20022   0.04478   0.63117   0.00000  Uiso   1.00
H346   H     0.30710   0.88525   0.79558   0.00000  Uiso   1.00
H347   H     0.38316   0.83079   0.66783   0.00000  Uiso   1.00
H348   H     0.23846   0.83154   0.93577   0.00000  Uiso   1.00
H349   H     0.31359   0.99313   0.80443   0.00000  Uiso   1.00
H350   H     0.44552   0.77082   0.49273   0.00000  Uiso   1.00
H351   H     0.14040   0.77243   0.05772   0.00000  Uiso   1.00
H352   H     0.29883   0.11318   0.78076   0.00000  Uiso   1.00
H353   H     0.13786   0.88856   0.53762   0.00000  Uiso   1.00
H354   H     0.20463   0.83429   0.39571   0.00000  Uiso   1.00
H355   H     0.05993   0.83504   0.66366   0.00000  Uiso   1.00
H356   H     0.13506   0.99663   0.53231   0.00000  Uiso   1.00
H357   H     0.30061   0.77366   0.27187   0.00000  Uiso   1.00
H358   H     0.99549   0.77526   0.83686   0.00000  Uiso   1.00
H359   H     0.15392   0.11601   0.55990   0.00000  Uiso   1.00
O360   O     0.42004   0.73646   0.29361   0.00000  Uiso   1.00
O361   O     0.01973   0.73857   0.03486   0.00000  Uiso   1.00
O362   O     0.22759   0.18562   0.67149   0.00000  Uiso   1.00
N363   N     0.40225   0.77895   0.46022   0.00000  Uiso   1.00
N364   N     0.11699   0.78044   0.98844   0.00000  Uiso   1.00
N365   N     0.26509   0.09901   0.72953   0.00000  Uiso   1.00
N366   N     0.32428   0.78048   0.34137   0.00000  Uiso   1.00
N367   N     0.03902   0.78197   0.86960   0.00000  Uiso   1.00
N368   N     0.18712   0.10054   0.61069   0.00000  Uiso   1.00
