data_job_03700
_audit_creation_date              2018-12-19
_audit_creation_method            'Materials Studio'
_symmetry_space_group_name_H-M    'P1'
_symmetry_Int_Tables_number       1
_symmetry_cell_setting            triclinic
loop_
_symmetry_equiv_pos_as_xyz
  x,y,z
_cell_length_a                    17.8471
_cell_length_b                    15.2263
_cell_length_c                    23.8928
_cell_angle_alpha                 90.0000
_cell_angle_beta                  90.0000
_cell_angle_gamma                 90.0000
loop_
_atom_site_label
_atom_site_type_symbol
_atom_site_fract_x
_atom_site_fract_y
_atom_site_fract_z
_atom_site_U_iso_or_equiv
_atom_site_adp_type
_atom_site_occupancy
C1     C     0.40632   0.92677   0.36782   0.00000  Uiso   1.00
C2     C     0.34413   0.90745   0.32582   0.00000  Uiso   1.00
C3     C     0.34551   0.92819   0.26927   0.00000  Uiso   1.00
C4     C     0.28309   0.90501   0.23789   0.00000  Uiso   1.00
C5     C     0.19588   0.88150   0.16897   0.00000  Uiso   1.00
C6     C     0.37021   0.98067   0.41436   0.00000  Uiso   1.00
C7     C     0.39352   0.06297   0.43226   0.00000  Uiso   1.00
C8     C     0.35306   0.10142   0.47543   0.00000  Uiso   1.00
C9     C     0.30638   0.19156   0.54400   0.00000  Uiso   1.00
C10    C     0.42697   0.83870   0.39401   0.00000  Uiso   1.00
C11    C     0.49800   0.80164   0.39481   0.00000  Uiso   1.00
C12    C     0.50533   0.72057   0.42085   0.00000  Uiso   1.00
C13    C     0.54676   0.59029   0.45783   0.00000  Uiso   1.00
C14    C     0.29303   0.84872   0.41265   0.00000  Uiso   1.00
C15    C     0.28260   0.86506   0.35017   0.00000  Uiso   1.00
C16    C     0.22016   0.84184   0.31887   0.00000  Uiso   1.00
C17    C     0.22144   0.86253   0.26228   0.00000  Uiso   1.00
C18    C     0.30868   0.93828   0.43871   0.00000  Uiso   1.00
C19    C     0.26818   0.97662   0.48187   0.00000  Uiso   1.00
C20    C     0.29142   0.05895   0.49982   0.00000  Uiso   1.00
C21    C     0.36543   0.79631   0.41836   0.00000  Uiso   1.00
C22    C     0.37266   0.71529   0.44441   0.00000  Uiso   1.00
C23    C     0.44369   0.67810   0.44525   0.00000  Uiso   1.00
H24    H     0.45423   0.95977   0.34887   0.00000  Uiso   1.00
H25    H     0.39314   0.96100   0.25044   0.00000  Uiso   1.00
H26    H     0.44115   0.09575   0.41341   0.00000  Uiso   1.00
H27    H     0.54561   0.83446   0.37596   0.00000  Uiso   1.00
H28    H     0.29826   0.94369   0.15206   0.00000  Uiso   1.00
H29    H     0.39951   0.22781   0.49571   0.00000  Uiso   1.00
H30    H     0.61979   0.67683   0.41674   0.00000  Uiso   1.00
H31    H     0.24512   0.81572   0.43161   0.00000  Uiso   1.00
H32    H     0.17255   0.80903   0.33772   0.00000  Uiso   1.00
H33    H     0.22057   0.94379   0.50070   0.00000  Uiso   1.00
H34    H     0.32503   0.68250   0.46325   0.00000  Uiso   1.00
H35    H     0.11922   0.82036   0.22290   0.00000  Uiso   1.00
H36    H     0.22048   0.10448   0.56656   0.00000  Uiso   1.00
H37    H     0.44075   0.55350   0.48759   0.00000  Uiso   1.00
O38    O     0.16477   0.88026   0.12423   0.00000  Uiso   1.00
O39    O     0.29762   0.25300   0.57510   0.00000  Uiso   1.00
O40    O     0.58661   0.53013   0.47149   0.00000  Uiso   1.00
N41    N     0.26609   0.91557   0.18161   0.00000  Uiso   1.00
N42    N     0.36075   0.18121   0.50290   0.00000  Uiso   1.00
N43    N     0.56669   0.66610   0.42909   0.00000  Uiso   1.00
N44    N     0.16975   0.84920   0.21973   0.00000  Uiso   1.00
N45    N     0.26441   0.11484   0.54103   0.00000  Uiso   1.00
N46    N     0.47035   0.59973   0.46721   0.00000  Uiso   1.00
C47    C     0.09368   0.57323   0.86782   0.00000  Uiso   1.00
C48    C     0.15587   0.59255   0.82582   0.00000  Uiso   1.00
C49    C     0.15449   0.57181   0.76927   0.00000  Uiso   1.00
C50    C     0.21691   0.59499   0.73789   0.00000  Uiso   1.00
C51    C     0.30412   0.61850   0.66897   0.00000  Uiso   1.00
C52    C     0.12979   0.51933   0.91436   0.00000  Uiso   1.00
C53    C     0.10648   0.43703   0.93226   0.00000  Uiso   1.00
C54    C     0.14694   0.39858   0.97543   0.00000  Uiso   1.00
C55    C     0.19362   0.30844   0.04400   0.00000  Uiso   1.00
C56    C     0.07303   0.66130   0.89401   0.00000  Uiso   1.00
C57    C     0.00200   0.69836   0.89481   0.00000  Uiso   1.00
C58    C     0.99467   0.77943   0.92085   0.00000  Uiso   1.00
C59    C     0.95324   0.90971   0.95783   0.00000  Uiso   1.00
C60    C     0.20697   0.65128   0.91265   0.00000  Uiso   1.00
C61    C     0.21740   0.63494   0.85017   0.00000  Uiso   1.00
C62    C     0.27984   0.65816   0.81887   0.00000  Uiso   1.00
C63    C     0.27856   0.63747   0.76228   0.00000  Uiso   1.00
C64    C     0.19132   0.56172   0.93871   0.00000  Uiso   1.00
C65    C     0.23182   0.52338   0.98187   0.00000  Uiso   1.00
C66    C     0.20858   0.44105   0.99982   0.00000  Uiso   1.00
C67    C     0.13457   0.70369   0.91836   0.00000  Uiso   1.00
C68    C     0.12734   0.78471   0.94441   0.00000  Uiso   1.00
C69    C     0.05631   0.82190   0.94525   0.00000  Uiso   1.00
H70    H     0.04577   0.54023   0.84887   0.00000  Uiso   1.00
H71    H     0.10686   0.53900   0.75044   0.00000  Uiso   1.00
H72    H     0.05885   0.40425   0.91341   0.00000  Uiso   1.00
H73    H     0.95439   0.66554   0.87596   0.00000  Uiso   1.00
H74    H     0.20174   0.55631   0.65206   0.00000  Uiso   1.00
H75    H     0.10049   0.27219   0.99571   0.00000  Uiso   1.00
H76    H     0.88021   0.82317   0.91674   0.00000  Uiso   1.00
H77    H     0.25488   0.68428   0.93161   0.00000  Uiso   1.00
H78    H     0.32745   0.69097   0.83772   0.00000  Uiso   1.00
H79    H     0.27943   0.55621   0.00070   0.00000  Uiso   1.00
H80    H     0.17497   0.81750   0.96325   0.00000  Uiso   1.00
H81    H     0.38078   0.67964   0.72290   0.00000  Uiso   1.00
H82    H     0.27952   0.39552   0.06656   0.00000  Uiso   1.00
H83    H     0.05925   0.94650   0.98759   0.00000  Uiso   1.00
O84    O     0.33523   0.61974   0.62423   0.00000  Uiso   1.00
O85    O     0.20238   0.24700   0.07510   0.00000  Uiso   1.00
O86    O     0.91339   0.96987   0.97149   0.00000  Uiso   1.00
N87    N     0.23391   0.58443   0.68161   0.00000  Uiso   1.00
N88    N     0.13925   0.31879   0.00290   0.00000  Uiso   1.00
N89    N     0.93331   0.83390   0.92909   0.00000  Uiso   1.00
N90    N     0.33025   0.65080   0.71973   0.00000  Uiso   1.00
N91    N     0.23559   0.38516   0.04103   0.00000  Uiso   1.00
N92    N     0.02965   0.90027   0.96721   0.00000  Uiso   1.00
C93    C     0.59368   0.92677   0.13218   0.00000  Uiso   1.00
C94    C     0.65587   0.90745   0.17418   0.00000  Uiso   1.00
C95    C     0.65449   0.92819   0.23073   0.00000  Uiso   1.00
C96    C     0.71691   0.90501   0.26211   0.00000  Uiso   1.00
C97    C     0.80412   0.88150   0.33103   0.00000  Uiso   1.00
C98    C     0.62979   0.98067   0.08564   0.00000  Uiso   1.00
C99    C     0.60648   0.06297   0.06774   0.00000  Uiso   1.00
C100   C     0.64694   0.10142   0.02457   0.00000  Uiso   1.00
C101   C     0.69362   0.19156   0.95600   0.00000  Uiso   1.00
C102   C     0.57303   0.83870   0.10599   0.00000  Uiso   1.00
C103   C     0.50200   0.80164   0.10519   0.00000  Uiso   1.00
C104   C     0.49467   0.72057   0.07915   0.00000  Uiso   1.00
C105   C     0.45324   0.59029   0.04217   0.00000  Uiso   1.00
C106   C     0.70697   0.84872   0.08735   0.00000  Uiso   1.00
C107   C     0.71740   0.86506   0.14983   0.00000  Uiso   1.00
C108   C     0.77984   0.84184   0.18113   0.00000  Uiso   1.00
C109   C     0.77856   0.86253   0.23772   0.00000  Uiso   1.00
C110   C     0.69132   0.93828   0.06129   0.00000  Uiso   1.00
C111   C     0.73182   0.97662   0.01813   0.00000  Uiso   1.00
C112   C     0.70858   0.05895   0.00018   0.00000  Uiso   1.00
C113   C     0.63457   0.79631   0.08164   0.00000  Uiso   1.00
C114   C     0.62734   0.71529   0.05559   0.00000  Uiso   1.00
C115   C     0.55631   0.67810   0.05475   0.00000  Uiso   1.00
H116   H     0.54577   0.95977   0.15113   0.00000  Uiso   1.00
H117   H     0.60686   0.96100   0.24956   0.00000  Uiso   1.00
H118   H     0.55885   0.09575   0.08659   0.00000  Uiso   1.00
H119   H     0.45439   0.83446   0.12404   0.00000  Uiso   1.00
H120   H     0.70174   0.94369   0.34794   0.00000  Uiso   1.00
H121   H     0.60049   0.22781   0.00429   0.00000  Uiso   1.00
H122   H     0.38021   0.67683   0.08326   0.00000  Uiso   1.00
H123   H     0.75488   0.81572   0.06839   0.00000  Uiso   1.00
H124   H     0.82745   0.80903   0.16228   0.00000  Uiso   1.00
H125   H     0.77943   0.94379   0.99930   0.00000  Uiso   1.00
H126   H     0.67497   0.68250   0.03675   0.00000  Uiso   1.00
H127   H     0.88078   0.82036   0.27710   0.00000  Uiso   1.00
H128   H     0.77952   0.10448   0.93344   0.00000  Uiso   1.00
H129   H     0.55925   0.55350   0.01241   0.00000  Uiso   1.00
O130   O     0.83523   0.88026   0.37577   0.00000  Uiso   1.00
O131   O     0.70238   0.25300   0.92490   0.00000  Uiso   1.00
O132   O     0.41339   0.53013   0.02851   0.00000  Uiso   1.00
N133   N     0.73391   0.91557   0.31839   0.00000  Uiso   1.00
N134   N     0.63925   0.18121   0.99710   0.00000  Uiso   1.00
N135   N     0.43331   0.66610   0.07091   0.00000  Uiso   1.00
N136   N     0.83025   0.84920   0.28027   0.00000  Uiso   1.00
N137   N     0.73559   0.11484   0.95897   0.00000  Uiso   1.00
N138   N     0.52965   0.59973   0.03279   0.00000  Uiso   1.00
C139   C     0.90632   0.57323   0.63218   0.00000  Uiso   1.00
C140   C     0.84413   0.59255   0.67418   0.00000  Uiso   1.00
C141   C     0.84551   0.57181   0.73073   0.00000  Uiso   1.00
C142   C     0.78309   0.59499   0.76211   0.00000  Uiso   1.00
C143   C     0.69588   0.61850   0.83103   0.00000  Uiso   1.00
C144   C     0.87021   0.51933   0.58564   0.00000  Uiso   1.00
C145   C     0.89352   0.43703   0.56774   0.00000  Uiso   1.00
C146   C     0.85306   0.39858   0.52457   0.00000  Uiso   1.00
C147   C     0.80638   0.30844   0.45600   0.00000  Uiso   1.00
C148   C     0.92697   0.66130   0.60599   0.00000  Uiso   1.00
C149   C     0.99800   0.69836   0.60519   0.00000  Uiso   1.00
C150   C     0.00533   0.77943   0.57915   0.00000  Uiso   1.00
C151   C     0.04676   0.90971   0.54217   0.00000  Uiso   1.00
C152   C     0.79303   0.65128   0.58735   0.00000  Uiso   1.00
C153   C     0.78260   0.63494   0.64983   0.00000  Uiso   1.00
C154   C     0.72016   0.65816   0.68113   0.00000  Uiso   1.00
C155   C     0.72144   0.63747   0.73772   0.00000  Uiso   1.00
C156   C     0.80868   0.56172   0.56129   0.00000  Uiso   1.00
C157   C     0.76818   0.52338   0.51813   0.00000  Uiso   1.00
C158   C     0.79142   0.44105   0.50018   0.00000  Uiso   1.00
C159   C     0.86543   0.70369   0.58164   0.00000  Uiso   1.00
C160   C     0.87266   0.78471   0.55559   0.00000  Uiso   1.00
C161   C     0.94369   0.82190   0.55475   0.00000  Uiso   1.00
H162   H     0.95423   0.54023   0.65113   0.00000  Uiso   1.00
H163   H     0.89314   0.53900   0.74956   0.00000  Uiso   1.00
H164   H     0.94115   0.40425   0.58659   0.00000  Uiso   1.00
H165   H     0.04561   0.66554   0.62404   0.00000  Uiso   1.00
H166   H     0.79826   0.55631   0.84794   0.00000  Uiso   1.00
H167   H     0.89951   0.27219   0.50429   0.00000  Uiso   1.00
H168   H     0.11979   0.82317   0.58326   0.00000  Uiso   1.00
H169   H     0.74512   0.68428   0.56839   0.00000  Uiso   1.00
H170   H     0.67255   0.69097   0.66228   0.00000  Uiso   1.00
H171   H     0.72057   0.55621   0.49930   0.00000  Uiso   1.00
H172   H     0.82503   0.81750   0.53675   0.00000  Uiso   1.00
H173   H     0.61922   0.67964   0.77710   0.00000  Uiso   1.00
H174   H     0.72048   0.39552   0.43344   0.00000  Uiso   1.00
H175   H     0.94075   0.94650   0.51241   0.00000  Uiso   1.00
O176   O     0.66477   0.61974   0.87577   0.00000  Uiso   1.00
O177   O     0.79762   0.24700   0.42490   0.00000  Uiso   1.00
O178   O     0.08661   0.96987   0.52851   0.00000  Uiso   1.00
N179   N     0.76609   0.58443   0.81839   0.00000  Uiso   1.00
N180   N     0.86075   0.31879   0.49710   0.00000  Uiso   1.00
N181   N     0.06669   0.83390   0.57091   0.00000  Uiso   1.00
N182   N     0.66975   0.65080   0.78027   0.00000  Uiso   1.00
N183   N     0.76441   0.38516   0.45897   0.00000  Uiso   1.00
N184   N     0.97035   0.90027   0.53279   0.00000  Uiso   1.00
C185   C     0.59368   0.07323   0.63218   0.00000  Uiso   1.00
C186   C     0.65587   0.09255   0.67418   0.00000  Uiso   1.00
C187   C     0.65449   0.07181   0.73073   0.00000  Uiso   1.00
C188   C     0.71691   0.09499   0.76211   0.00000  Uiso   1.00
C189   C     0.80412   0.11850   0.83103   0.00000  Uiso   1.00
C190   C     0.62979   0.01933   0.58564   0.00000  Uiso   1.00
C191   C     0.60648   0.93703   0.56774   0.00000  Uiso   1.00
C192   C     0.64694   0.89858   0.52457   0.00000  Uiso   1.00
C193   C     0.69362   0.80844   0.45600   0.00000  Uiso   1.00
C194   C     0.57303   0.16130   0.60599   0.00000  Uiso   1.00
C195   C     0.50200   0.19836   0.60519   0.00000  Uiso   1.00
C196   C     0.49467   0.27943   0.57915   0.00000  Uiso   1.00
C197   C     0.45324   0.40971   0.54217   0.00000  Uiso   1.00
C198   C     0.70697   0.15128   0.58735   0.00000  Uiso   1.00
C199   C     0.71740   0.13494   0.64983   0.00000  Uiso   1.00
C200   C     0.77984   0.15816   0.68113   0.00000  Uiso   1.00
C201   C     0.77856   0.13747   0.73772   0.00000  Uiso   1.00
C202   C     0.69132   0.06172   0.56129   0.00000  Uiso   1.00
C203   C     0.73182   0.02338   0.51813   0.00000  Uiso   1.00
C204   C     0.70858   0.94105   0.50018   0.00000  Uiso   1.00
C205   C     0.63457   0.20369   0.58164   0.00000  Uiso   1.00
C206   C     0.62734   0.28471   0.55559   0.00000  Uiso   1.00
C207   C     0.55631   0.32190   0.55475   0.00000  Uiso   1.00
H208   H     0.54577   0.04023   0.65113   0.00000  Uiso   1.00
H209   H     0.60686   0.03900   0.74956   0.00000  Uiso   1.00
H210   H     0.55885   0.90425   0.58659   0.00000  Uiso   1.00
H211   H     0.45439   0.16554   0.62404   0.00000  Uiso   1.00
H212   H     0.70174   0.05631   0.84794   0.00000  Uiso   1.00
H213   H     0.60049   0.77219   0.50429   0.00000  Uiso   1.00
H214   H     0.38021   0.32317   0.58326   0.00000  Uiso   1.00
H215   H     0.75488   0.18428   0.56839   0.00000  Uiso   1.00
H216   H     0.82745   0.19097   0.66228   0.00000  Uiso   1.00
H217   H     0.77943   0.05621   0.49930   0.00000  Uiso   1.00
H218   H     0.67497   0.31750   0.53675   0.00000  Uiso   1.00
H219   H     0.88078   0.17964   0.77710   0.00000  Uiso   1.00
H220   H     0.77952   0.89552   0.43344   0.00000  Uiso   1.00
H221   H     0.55925   0.44650   0.51241   0.00000  Uiso   1.00
O222   O     0.83523   0.11974   0.87577   0.00000  Uiso   1.00
O223   O     0.70238   0.74700   0.42490   0.00000  Uiso   1.00
O224   O     0.41339   0.46987   0.52851   0.00000  Uiso   1.00
N225   N     0.73391   0.08443   0.81839   0.00000  Uiso   1.00
N226   N     0.63925   0.81879   0.49710   0.00000  Uiso   1.00
N227   N     0.43331   0.33390   0.57091   0.00000  Uiso   1.00
N228   N     0.83025   0.15080   0.78027   0.00000  Uiso   1.00
N229   N     0.73559   0.88516   0.45897   0.00000  Uiso   1.00
N230   N     0.52965   0.40027   0.53279   0.00000  Uiso   1.00
C231   C     0.90632   0.42677   0.13218   0.00000  Uiso   1.00
C232   C     0.84413   0.40745   0.17418   0.00000  Uiso   1.00
C233   C     0.84551   0.42819   0.23073   0.00000  Uiso   1.00
C234   C     0.78309   0.40501   0.26211   0.00000  Uiso   1.00
C235   C     0.69588   0.38150   0.33103   0.00000  Uiso   1.00
C236   C     0.87021   0.48067   0.08564   0.00000  Uiso   1.00
C237   C     0.89352   0.56297   0.06774   0.00000  Uiso   1.00
C238   C     0.85306   0.60142   0.02457   0.00000  Uiso   1.00
C239   C     0.80638   0.69156   0.95600   0.00000  Uiso   1.00
C240   C     0.92697   0.33870   0.10599   0.00000  Uiso   1.00
C241   C     0.99800   0.30164   0.10519   0.00000  Uiso   1.00
C242   C     0.00533   0.22057   0.07915   0.00000  Uiso   1.00
C243   C     0.04676   0.09029   0.04217   0.00000  Uiso   1.00
C244   C     0.79303   0.34872   0.08735   0.00000  Uiso   1.00
C245   C     0.78260   0.36506   0.14983   0.00000  Uiso   1.00
C246   C     0.72016   0.34184   0.18113   0.00000  Uiso   1.00
C247   C     0.72144   0.36253   0.23772   0.00000  Uiso   1.00
C248   C     0.80868   0.43828   0.06129   0.00000  Uiso   1.00
C249   C     0.76818   0.47662   0.01813   0.00000  Uiso   1.00
C250   C     0.79142   0.55895   0.00018   0.00000  Uiso   1.00
C251   C     0.86543   0.29631   0.08164   0.00000  Uiso   1.00
C252   C     0.87266   0.21529   0.05559   0.00000  Uiso   1.00
C253   C     0.94369   0.17810   0.05475   0.00000  Uiso   1.00
H254   H     0.95423   0.45977   0.15113   0.00000  Uiso   1.00
H255   H     0.89314   0.46100   0.24956   0.00000  Uiso   1.00
H256   H     0.94115   0.59575   0.08659   0.00000  Uiso   1.00
H257   H     0.04561   0.33446   0.12404   0.00000  Uiso   1.00
H258   H     0.79826   0.44369   0.34794   0.00000  Uiso   1.00
H259   H     0.89951   0.72781   0.00429   0.00000  Uiso   1.00
H260   H     0.11979   0.17683   0.08326   0.00000  Uiso   1.00
H261   H     0.74512   0.31572   0.06839   0.00000  Uiso   1.00
H262   H     0.67255   0.30903   0.16228   0.00000  Uiso   1.00
H263   H     0.72057   0.44379   0.99930   0.00000  Uiso   1.00
H264   H     0.82503   0.18250   0.03675   0.00000  Uiso   1.00
H265   H     0.61922   0.32036   0.27710   0.00000  Uiso   1.00
H266   H     0.72048   0.60448   0.93344   0.00000  Uiso   1.00
H267   H     0.94075   0.05350   0.01241   0.00000  Uiso   1.00
O268   O     0.66477   0.38026   0.37577   0.00000  Uiso   1.00
O269   O     0.79762   0.75300   0.92490   0.00000  Uiso   1.00
O270   O     0.08661   0.03013   0.02851   0.00000  Uiso   1.00
N271   N     0.76609   0.41557   0.31839   0.00000  Uiso   1.00
N272   N     0.86075   0.68121   0.99710   0.00000  Uiso   1.00
N273   N     0.06669   0.16610   0.07091   0.00000  Uiso   1.00
N274   N     0.66975   0.34920   0.28027   0.00000  Uiso   1.00
N275   N     0.76441   0.61484   0.95897   0.00000  Uiso   1.00
N276   N     0.97035   0.09973   0.03279   0.00000  Uiso   1.00
C277   C     0.40632   0.07323   0.86782   0.00000  Uiso   1.00
C278   C     0.34413   0.09255   0.82582   0.00000  Uiso   1.00
C279   C     0.34551   0.07181   0.76927   0.00000  Uiso   1.00
C280   C     0.28309   0.09499   0.73789   0.00000  Uiso   1.00
C281   C     0.19588   0.11850   0.66897   0.00000  Uiso   1.00
C282   C     0.37021   0.01933   0.91436   0.00000  Uiso   1.00
C283   C     0.39352   0.93703   0.93226   0.00000  Uiso   1.00
C284   C     0.35306   0.89858   0.97543   0.00000  Uiso   1.00
C285   C     0.30638   0.80844   0.04400   0.00000  Uiso   1.00
C286   C     0.42697   0.16130   0.89401   0.00000  Uiso   1.00
C287   C     0.49800   0.19836   0.89481   0.00000  Uiso   1.00
C288   C     0.50533   0.27943   0.92085   0.00000  Uiso   1.00
C289   C     0.54676   0.40971   0.95783   0.00000  Uiso   1.00
C290   C     0.29303   0.15128   0.91265   0.00000  Uiso   1.00
C291   C     0.28260   0.13494   0.85017   0.00000  Uiso   1.00
C292   C     0.22016   0.15816   0.81887   0.00000  Uiso   1.00
C293   C     0.22144   0.13747   0.76228   0.00000  Uiso   1.00
C294   C     0.30868   0.06172   0.93871   0.00000  Uiso   1.00
C295   C     0.26818   0.02338   0.98187   0.00000  Uiso   1.00
C296   C     0.29142   0.94105   0.99982   0.00000  Uiso   1.00
C297   C     0.36543   0.20369   0.91836   0.00000  Uiso   1.00
C298   C     0.37266   0.28471   0.94441   0.00000  Uiso   1.00
C299   C     0.44369   0.32190   0.94525   0.00000  Uiso   1.00
H300   H     0.45423   0.04023   0.84887   0.00000  Uiso   1.00
H301   H     0.39314   0.03900   0.75044   0.00000  Uiso   1.00
H302   H     0.44115   0.90425   0.91341   0.00000  Uiso   1.00
H303   H     0.54561   0.16554   0.87596   0.00000  Uiso   1.00
H304   H     0.29826   0.05631   0.65206   0.00000  Uiso   1.00
H305   H     0.39951   0.77219   0.99571   0.00000  Uiso   1.00
H306   H     0.61979   0.32317   0.91674   0.00000  Uiso   1.00
H307   H     0.24512   0.18428   0.93161   0.00000  Uiso   1.00
H308   H     0.17255   0.19097   0.83772   0.00000  Uiso   1.00
H309   H     0.22057   0.05621   0.00070   0.00000  Uiso   1.00
H310   H     0.32503   0.31750   0.96325   0.00000  Uiso   1.00
H311   H     0.11922   0.17964   0.72290   0.00000  Uiso   1.00
H312   H     0.22048   0.89552   0.06656   0.00000  Uiso   1.00
H313   H     0.44075   0.44650   0.98759   0.00000  Uiso   1.00
O314   O     0.16477   0.11974   0.62423   0.00000  Uiso   1.00
O315   O     0.29762   0.74700   0.07510   0.00000  Uiso   1.00
O316   O     0.58661   0.46987   0.97149   0.00000  Uiso   1.00
N317   N     0.26609   0.08443   0.68161   0.00000  Uiso   1.00
N318   N     0.36075   0.81879   0.00290   0.00000  Uiso   1.00
N319   N     0.56669   0.33390   0.92909   0.00000  Uiso   1.00
N320   N     0.16975   0.15080   0.71973   0.00000  Uiso   1.00
N321   N     0.26441   0.88516   0.04103   0.00000  Uiso   1.00
N322   N     0.47035   0.40027   0.96721   0.00000  Uiso   1.00
C323   C     0.09368   0.42677   0.36782   0.00000  Uiso   1.00
C324   C     0.15587   0.40745   0.32582   0.00000  Uiso   1.00
C325   C     0.15449   0.42819   0.26927   0.00000  Uiso   1.00
C326   C     0.21691   0.40501   0.23789   0.00000  Uiso   1.00
C327   C     0.30412   0.38150   0.16897   0.00000  Uiso   1.00
C328   C     0.12979   0.48067   0.41436   0.00000  Uiso   1.00
C329   C     0.10648   0.56297   0.43226   0.00000  Uiso   1.00
C330   C     0.14694   0.60142   0.47543   0.00000  Uiso   1.00
C331   C     0.19362   0.69156   0.54400   0.00000  Uiso   1.00
C332   C     0.07303   0.33870   0.39401   0.00000  Uiso   1.00
C333   C     0.00200   0.30164   0.39481   0.00000  Uiso   1.00
C334   C     0.99467   0.22057   0.42085   0.00000  Uiso   1.00
C335   C     0.95324   0.09029   0.45783   0.00000  Uiso   1.00
C336   C     0.20697   0.34872   0.41265   0.00000  Uiso   1.00
C337   C     0.21740   0.36506   0.35017   0.00000  Uiso   1.00
C338   C     0.27984   0.34184   0.31887   0.00000  Uiso   1.00
C339   C     0.27856   0.36253   0.26228   0.00000  Uiso   1.00
C340   C     0.19132   0.43828   0.43871   0.00000  Uiso   1.00
C341   C     0.23182   0.47662   0.48187   0.00000  Uiso   1.00
C342   C     0.20858   0.55895   0.49982   0.00000  Uiso   1.00
C343   C     0.13457   0.29631   0.41836   0.00000  Uiso   1.00
C344   C     0.12734   0.21529   0.44441   0.00000  Uiso   1.00
C345   C     0.05631   0.17810   0.44525   0.00000  Uiso   1.00
H346   H     0.04577   0.45977   0.34887   0.00000  Uiso   1.00
H347   H     0.10686   0.46100   0.25044   0.00000  Uiso   1.00
H348   H     0.05885   0.59575   0.41341   0.00000  Uiso   1.00
H349   H     0.95439   0.33446   0.37596   0.00000  Uiso   1.00
H350   H     0.20174   0.44369   0.15206   0.00000  Uiso   1.00
H351   H     0.10049   0.72781   0.49571   0.00000  Uiso   1.00
H352   H     0.88021   0.17683   0.41674   0.00000  Uiso   1.00
H353   H     0.25488   0.31572   0.43161   0.00000  Uiso   1.00
H354   H     0.32745   0.30903   0.33772   0.00000  Uiso   1.00
H355   H     0.27943   0.44379   0.50070   0.00000  Uiso   1.00
H356   H     0.17497   0.18250   0.46325   0.00000  Uiso   1.00
H357   H     0.38078   0.32036   0.22290   0.00000  Uiso   1.00
H358   H     0.27952   0.60448   0.56656   0.00000  Uiso   1.00
H359   H     0.05925   0.05350   0.48759   0.00000  Uiso   1.00
O360   O     0.33523   0.38026   0.12423   0.00000  Uiso   1.00
O361   O     0.20238   0.75300   0.57510   0.00000  Uiso   1.00
O362   O     0.91339   0.03013   0.47149   0.00000  Uiso   1.00
N363   N     0.23391   0.41557   0.18161   0.00000  Uiso   1.00
N364   N     0.13925   0.68121   0.50290   0.00000  Uiso   1.00
N365   N     0.93331   0.16610   0.42909   0.00000  Uiso   1.00
N366   N     0.33025   0.34920   0.21973   0.00000  Uiso   1.00
N367   N     0.23559   0.61484   0.54103   0.00000  Uiso   1.00
N368   N     0.02965   0.09973   0.46721   0.00000  Uiso   1.00
