data_job_05561
_audit_creation_date              2018-12-19
_audit_creation_method            'Materials Studio'
_symmetry_space_group_name_H-M    'P1'
_symmetry_Int_Tables_number       1
_symmetry_cell_setting            triclinic
loop_
_symmetry_equiv_pos_as_xyz
  x,y,z
_cell_length_a                    22.5014
_cell_length_b                    22.4293
_cell_length_c                    11.3615
_cell_angle_alpha                 90.0000
_cell_angle_beta                  90.0000
_cell_angle_gamma                 90.0000
loop_
_atom_site_label
_atom_site_type_symbol
_atom_site_fract_x
_atom_site_fract_y
_atom_site_fract_z
_atom_site_U_iso_or_equiv
_atom_site_adp_type
_atom_site_occupancy
C1     C     0.51562   0.86122   0.56891   0.00000  Uiso   1.00
C2     C     0.58074   0.84561   0.58969   0.00000  Uiso   1.00
C3     C     0.61380   0.86074   0.68838   0.00000  Uiso   1.00
C4     C     0.67269   0.84231   0.69064   0.00000  Uiso   1.00
C5     C     0.77003   0.82303   0.73704   0.00000  Uiso   1.00
C6     C     0.51365   0.89499   0.45248   0.00000  Uiso   1.00
C7     C     0.49030   0.95163   0.43581   0.00000  Uiso   1.00
C8     C     0.49271   0.97476   0.32256   0.00000  Uiso   1.00
C9     C     0.48586   0.03212   0.15593   0.00000  Uiso   1.00
C10    C     0.48385   0.80220   0.54703   0.00000  Uiso   1.00
C11    C     0.43543   0.78083   0.60984   0.00000  Uiso   1.00
C12    C     0.41274   0.72584   0.57617   0.00000  Uiso   1.00
C13    C     0.35962   0.63913   0.55636   0.00000  Uiso   1.00
C14    C     0.56142   0.80158   0.39742   0.00000  Uiso   1.00
C15    C     0.60561   0.81322   0.49654   0.00000  Uiso   1.00
C16    C     0.66447   0.79476   0.49865   0.00000  Uiso   1.00
C17    C     0.69761   0.80986   0.59733   0.00000  Uiso   1.00
C18    C     0.53853   0.86260   0.35933   0.00000  Uiso   1.00
C19    C     0.54097   0.88565   0.24608   0.00000  Uiso   1.00
C20    C     0.51763   0.94231   0.22924   0.00000  Uiso   1.00
C21    C     0.50873   0.76980   0.45389   0.00000  Uiso   1.00
C22    C     0.48611   0.71484   0.42011   0.00000  Uiso   1.00
C23    C     0.43767   0.69339   0.48286   0.00000  Uiso   1.00
H24    H     0.49625   0.88644   0.64142   0.00000  Uiso   1.00
H25    H     0.59453   0.88582   0.76044   0.00000  Uiso   1.00
H26    H     0.47104   0.97669   0.50790   0.00000  Uiso   1.00
H27    H     0.41619   0.80591   0.68191   0.00000  Uiso   1.00
H28    H     0.71447   0.87086   0.85130   0.00000  Uiso   1.00
H29    H     0.45408   0.06245   0.31881   0.00000  Uiso   1.00
H30    H     0.33840   0.70233   0.68574   0.00000  Uiso   1.00
H31    H     0.58078   0.77636   0.32489   0.00000  Uiso   1.00
H32    H     0.68371   0.76969   0.42655   0.00000  Uiso   1.00
H33    H     0.56022   0.86056   0.17402   0.00000  Uiso   1.00
H34    H     0.50537   0.68979   0.34802   0.00000  Uiso   1.00
H35    H     0.78685   0.77661   0.58030   0.00000  Uiso   1.00
H36    H     0.52645   0.96821   0.04781   0.00000  Uiso   1.00
H37    H     0.41079   0.60808   0.41474   0.00000  Uiso   1.00
O38    O     0.81685   0.82135   0.78837   0.00000  Uiso   1.00
O39    O     0.47521   0.07271   0.08976   0.00000  Uiso   1.00
O40    O     0.32345   0.60024   0.57116   0.00000  Uiso   1.00
N41    N     0.71738   0.84958   0.77358   0.00000  Uiso   1.00
N42    N     0.47393   0.02872   0.27574   0.00000  Uiso   1.00
N43    N     0.36578   0.69204   0.61876   0.00000  Uiso   1.00
N44    N     0.75633   0.79886   0.62776   0.00000  Uiso   1.00
N45    N     0.51288   0.97800   0.12992   0.00000  Uiso   1.00
N46    N     0.40473   0.64133   0.47294   0.00000  Uiso   1.00
C47    C     0.49616   0.18224   0.43255   0.00000  Uiso   1.00
C48    C     0.42999   0.19358   0.41410   0.00000  Uiso   1.00
C49    C     0.39730   0.17717   0.31573   0.00000  Uiso   1.00
C50    C     0.33729   0.19157   0.31574   0.00000  Uiso   1.00
C51    C     0.23854   0.20463   0.27267   0.00000  Uiso   1.00
C52    C     0.50125   0.14759   0.54759   0.00000  Uiso   1.00
C53    C     0.52848   0.09251   0.56144   0.00000  Uiso   1.00
C54    C     0.52847   0.06821   0.67383   0.00000  Uiso   1.00
C55    C     0.54040   0.00988   0.83801   0.00000  Uiso   1.00
C56    C     0.52404   0.24307   0.45586   0.00000  Uiso   1.00
C57    C     0.57044   0.26827   0.39261   0.00000  Uiso   1.00
C58    C     0.58963   0.32434   0.42779   0.00000  Uiso   1.00
C59    C     0.63694   0.41426   0.44955   0.00000  Uiso   1.00
C60    C     0.44773   0.23700   0.60751   0.00000  Uiso   1.00
C61    C     0.40369   0.22332   0.50914   0.00000  Uiso   1.00
C62    C     0.34371   0.23776   0.50930   0.00000  Uiso   1.00
C63    C     0.31093   0.22137   0.41094   0.00000  Uiso   1.00
C64    C     0.47495   0.17733   0.64262   0.00000  Uiso   1.00
C65    C     0.47490   0.15310   0.75501   0.00000  Uiso   1.00
C66    C     0.50212   0.09800   0.76903   0.00000  Uiso   1.00
C67    C     0.49773   0.27281   0.55089   0.00000  Uiso   1.00
C68    C     0.51685   0.32886   0.58618   0.00000  Uiso   1.00
C69    C     0.56327   0.35414   0.52300   0.00000  Uiso   1.00
H70    H     0.51664   0.15908   0.35857   0.00000  Uiso   1.00
H71    H     0.41767   0.15415   0.24221   0.00000  Uiso   1.00
H72    H     0.54884   0.06951   0.48789   0.00000  Uiso   1.00
H73    H     0.59079   0.24524   0.31908   0.00000  Uiso   1.00
H74    H     0.29634   0.16178   0.15513   0.00000  Uiso   1.00
H75    H     0.57294   0.98332   0.67316   0.00000  Uiso   1.00
H76    H     0.66140   0.35388   0.31720   0.00000  Uiso   1.00
H77    H     0.42725   0.26016   0.68150   0.00000  Uiso   1.00
H78    H     0.32337   0.26077   0.58285   0.00000  Uiso   1.00
H79    H     0.45454   0.17613   0.82853   0.00000  Uiso   1.00
H80    H     0.49649   0.35186   0.65973   0.00000  Uiso   1.00
H81    H     0.21979   0.24832   0.43161   0.00000  Uiso   1.00
H82    H     0.49640   0.06986   0.94965   0.00000  Uiso   1.00
H83    H     0.58486   0.44042   0.59368   0.00000  Uiso   1.00
O84    O     0.19134   0.20361   0.22267   0.00000  Uiso   1.00
O85    O     0.55424   0.96949   0.90231   0.00000  Uiso   1.00
O86    O     0.67029   0.45565   0.43529   0.00000  Uiso   1.00
N87    N     0.29258   0.18207   0.23372   0.00000  Uiso   1.00
N88    N     0.55118   0.01522   0.71805   0.00000  Uiso   1.00
N89    N     0.63389   0.36165   0.38528   0.00000  Uiso   1.00
N90    N     0.25139   0.22864   0.38250   0.00000  Uiso   1.00
N91    N     0.50999   0.06179   0.86683   0.00000  Uiso   1.00
N92    N     0.59271   0.40822   0.53405   0.00000  Uiso   1.00
C93    C     0.98438   0.13878   0.06891   0.00000  Uiso   1.00
C94    C     0.91926   0.15439   0.08969   0.00000  Uiso   1.00
C95    C     0.88620   0.13926   0.18838   0.00000  Uiso   1.00
C96    C     0.82731   0.15769   0.19064   0.00000  Uiso   1.00
C97    C     0.72997   0.17697   0.23704   0.00000  Uiso   1.00
C98    C     0.98635   0.10501   0.95248   0.00000  Uiso   1.00
C99    C     0.00970   0.04837   0.93581   0.00000  Uiso   1.00
C100   C     0.00729   0.02524   0.82256   0.00000  Uiso   1.00
C101   C     0.01414   0.96788   0.65593   0.00000  Uiso   1.00
C102   C     0.01615   0.19780   0.04703   0.00000  Uiso   1.00
C103   C     0.06457   0.21917   0.10984   0.00000  Uiso   1.00
C104   C     0.08726   0.27416   0.07617   0.00000  Uiso   1.00
C105   C     0.14038   0.36087   0.05636   0.00000  Uiso   1.00
C106   C     0.93858   0.19842   0.89742   0.00000  Uiso   1.00
C107   C     0.89439   0.18678   0.99654   0.00000  Uiso   1.00
C108   C     0.83553   0.20524   0.99865   0.00000  Uiso   1.00
C109   C     0.80239   0.19014   0.09733   0.00000  Uiso   1.00
C110   C     0.96147   0.13740   0.85933   0.00000  Uiso   1.00
C111   C     0.95903   0.11435   0.74608   0.00000  Uiso   1.00
C112   C     0.98237   0.05769   0.72924   0.00000  Uiso   1.00
C113   C     0.99127   0.23020   0.95389   0.00000  Uiso   1.00
C114   C     0.01389   0.28516   0.92011   0.00000  Uiso   1.00
C115   C     0.06233   0.30661   0.98286   0.00000  Uiso   1.00
H116   H     0.00375   0.11356   0.14142   0.00000  Uiso   1.00
H117   H     0.90547   0.11418   0.26044   0.00000  Uiso   1.00
H118   H     0.02896   0.02331   0.00790   0.00000  Uiso   1.00
H119   H     0.08381   0.19409   0.18191   0.00000  Uiso   1.00
H120   H     0.78553   0.12914   0.35130   0.00000  Uiso   1.00
H121   H     0.04592   0.93755   0.81881   0.00000  Uiso   1.00
H122   H     0.16160   0.29767   0.18574   0.00000  Uiso   1.00
H123   H     0.91922   0.22364   0.82489   0.00000  Uiso   1.00
H124   H     0.81629   0.23031   0.92655   0.00000  Uiso   1.00
H125   H     0.93978   0.13944   0.67402   0.00000  Uiso   1.00
H126   H     0.99463   0.31021   0.84802   0.00000  Uiso   1.00
H127   H     0.71315   0.22339   0.08030   0.00000  Uiso   1.00
H128   H     0.97355   0.03179   0.54781   0.00000  Uiso   1.00
H129   H     0.08921   0.39192   0.91474   0.00000  Uiso   1.00
O130   O     0.68315   0.17865   0.28837   0.00000  Uiso   1.00
O131   O     0.02479   0.92729   0.58976   0.00000  Uiso   1.00
O132   O     0.17655   0.39976   0.07116   0.00000  Uiso   1.00
N133   N     0.78262   0.15042   0.27358   0.00000  Uiso   1.00
N134   N     0.02607   0.97128   0.77574   0.00000  Uiso   1.00
N135   N     0.13422   0.30796   0.11876   0.00000  Uiso   1.00
N136   N     0.74367   0.20114   0.12776   0.00000  Uiso   1.00
N137   N     0.98712   0.02200   0.62992   0.00000  Uiso   1.00
N138   N     0.09527   0.35867   0.97294   0.00000  Uiso   1.00
C139   C     0.00384   0.81776   0.93255   0.00000  Uiso   1.00
C140   C     0.07001   0.80642   0.91410   0.00000  Uiso   1.00
C141   C     0.10270   0.82283   0.81573   0.00000  Uiso   1.00
C142   C     0.16271   0.80843   0.81574   0.00000  Uiso   1.00
C143   C     0.26146   0.79537   0.77267   0.00000  Uiso   1.00
C144   C     0.99875   0.85241   0.04759   0.00000  Uiso   1.00
C145   C     0.97152   0.90749   0.06144   0.00000  Uiso   1.00
C146   C     0.97153   0.93179   0.17383   0.00000  Uiso   1.00
C147   C     0.95960   0.99012   0.33801   0.00000  Uiso   1.00
C148   C     0.97596   0.75693   0.95586   0.00000  Uiso   1.00
C149   C     0.92956   0.73173   0.89261   0.00000  Uiso   1.00
C150   C     0.91037   0.67566   0.92779   0.00000  Uiso   1.00
C151   C     0.86306   0.58574   0.94955   0.00000  Uiso   1.00
C152   C     0.05227   0.76300   0.10751   0.00000  Uiso   1.00
C153   C     0.09631   0.77668   0.00914   0.00000  Uiso   1.00
C154   C     0.15629   0.76224   0.00930   0.00000  Uiso   1.00
C155   C     0.18907   0.77863   0.91094   0.00000  Uiso   1.00
C156   C     0.02505   0.82267   0.14262   0.00000  Uiso   1.00
C157   C     0.02510   0.84690   0.25501   0.00000  Uiso   1.00
C158   C     0.99788   0.90200   0.26903   0.00000  Uiso   1.00
C159   C     0.00227   0.72719   0.05089   0.00000  Uiso   1.00
C160   C     0.98315   0.67114   0.08618   0.00000  Uiso   1.00
C161   C     0.93673   0.64586   0.02300   0.00000  Uiso   1.00
H162   H     0.98336   0.84092   0.85857   0.00000  Uiso   1.00
H163   H     0.08233   0.84585   0.74221   0.00000  Uiso   1.00
H164   H     0.95116   0.93049   0.98789   0.00000  Uiso   1.00
H165   H     0.90921   0.75476   0.81908   0.00000  Uiso   1.00
H166   H     0.20366   0.83822   0.65513   0.00000  Uiso   1.00
H167   H     0.92706   0.01668   0.17316   0.00000  Uiso   1.00
H168   H     0.83860   0.64612   0.81720   0.00000  Uiso   1.00
H169   H     0.07275   0.73984   0.18150   0.00000  Uiso   1.00
H170   H     0.17663   0.73923   0.08285   0.00000  Uiso   1.00
H171   H     0.04546   0.82387   0.32853   0.00000  Uiso   1.00
H172   H     0.00351   0.64814   0.15973   0.00000  Uiso   1.00
H173   H     0.28021   0.75168   0.93161   0.00000  Uiso   1.00
H174   H     0.00360   0.93014   0.44965   0.00000  Uiso   1.00
H175   H     0.91514   0.55958   0.09368   0.00000  Uiso   1.00
O176   O     0.30866   0.79639   0.72267   0.00000  Uiso   1.00
O177   O     0.94576   0.03051   0.40231   0.00000  Uiso   1.00
O178   O     0.82971   0.54435   0.93529   0.00000  Uiso   1.00
N179   N     0.20742   0.81793   0.73372   0.00000  Uiso   1.00
N180   N     0.94882   0.98478   0.21805   0.00000  Uiso   1.00
N181   N     0.86611   0.63835   0.88528   0.00000  Uiso   1.00
N182   N     0.24861   0.77136   0.88250   0.00000  Uiso   1.00
N183   N     0.99001   0.93821   0.36683   0.00000  Uiso   1.00
N184   N     0.90729   0.59178   0.03405   0.00000  Uiso   1.00
C185   C     0.48438   0.36122   0.93109   0.00000  Uiso   1.00
C186   C     0.41926   0.34561   0.91031   0.00000  Uiso   1.00
C187   C     0.38620   0.36074   0.81162   0.00000  Uiso   1.00
C188   C     0.32731   0.34231   0.80936   0.00000  Uiso   1.00
C189   C     0.22997   0.32303   0.76296   0.00000  Uiso   1.00
C190   C     0.48635   0.39499   0.04752   0.00000  Uiso   1.00
C191   C     0.50970   0.45163   0.06419   0.00000  Uiso   1.00
C192   C     0.50729   0.47476   0.17744   0.00000  Uiso   1.00
C193   C     0.51414   0.53212   0.34407   0.00000  Uiso   1.00
C194   C     0.51615   0.30220   0.95297   0.00000  Uiso   1.00
C195   C     0.56457   0.28083   0.89016   0.00000  Uiso   1.00
C196   C     0.58726   0.22584   0.92383   0.00000  Uiso   1.00
C197   C     0.64038   0.13913   0.94364   0.00000  Uiso   1.00
C198   C     0.43858   0.30158   0.10258   0.00000  Uiso   1.00
C199   C     0.39439   0.31322   0.00346   0.00000  Uiso   1.00
C200   C     0.33553   0.29476   0.00135   0.00000  Uiso   1.00
C201   C     0.30239   0.30986   0.90267   0.00000  Uiso   1.00
C202   C     0.46147   0.36260   0.14067   0.00000  Uiso   1.00
C203   C     0.45903   0.38565   0.25392   0.00000  Uiso   1.00
C204   C     0.48237   0.44231   0.27076   0.00000  Uiso   1.00
C205   C     0.49127   0.26980   0.04611   0.00000  Uiso   1.00
C206   C     0.51389   0.21484   0.07989   0.00000  Uiso   1.00
C207   C     0.56233   0.19339   0.01714   0.00000  Uiso   1.00
H208   H     0.50375   0.38644   0.85858   0.00000  Uiso   1.00
H209   H     0.40547   0.38582   0.73956   0.00000  Uiso   1.00
H210   H     0.52896   0.47669   0.99210   0.00000  Uiso   1.00
H211   H     0.58381   0.30591   0.81809   0.00000  Uiso   1.00
H212   H     0.28553   0.37086   0.64870   0.00000  Uiso   1.00
H213   H     0.54592   0.56245   0.18119   0.00000  Uiso   1.00
H214   H     0.66160   0.20233   0.81426   0.00000  Uiso   1.00
H215   H     0.41922   0.27636   0.17511   0.00000  Uiso   1.00
H216   H     0.31629   0.26969   0.07345   0.00000  Uiso   1.00
H217   H     0.43978   0.36056   0.32598   0.00000  Uiso   1.00
H218   H     0.49463   0.18979   0.15198   0.00000  Uiso   1.00
H219   H     0.21315   0.27661   0.91970   0.00000  Uiso   1.00
H220   H     0.47355   0.46821   0.45219   0.00000  Uiso   1.00
H221   H     0.58921   0.10808   0.08526   0.00000  Uiso   1.00
O222   O     0.18315   0.32135   0.71163   0.00000  Uiso   1.00
O223   O     0.52479   0.57271   0.41024   0.00000  Uiso   1.00
O224   O     0.67655   0.10024   0.92884   0.00000  Uiso   1.00
N225   N     0.28262   0.34958   0.72642   0.00000  Uiso   1.00
N226   N     0.52607   0.52872   0.22426   0.00000  Uiso   1.00
N227   N     0.63422   0.19204   0.88124   0.00000  Uiso   1.00
N228   N     0.24367   0.29886   0.87224   0.00000  Uiso   1.00
N229   N     0.48712   0.47800   0.37008   0.00000  Uiso   1.00
N230   N     0.59527   0.14133   0.02706   0.00000  Uiso   1.00
C231   C     0.50384   0.68224   0.06745   0.00000  Uiso   1.00
C232   C     0.57001   0.69358   0.08590   0.00000  Uiso   1.00
C233   C     0.60270   0.67717   0.18427   0.00000  Uiso   1.00
C234   C     0.66271   0.69157   0.18426   0.00000  Uiso   1.00
C235   C     0.76146   0.70463   0.22733   0.00000  Uiso   1.00
C236   C     0.49875   0.64759   0.95241   0.00000  Uiso   1.00
C237   C     0.47152   0.59251   0.93856   0.00000  Uiso   1.00
C238   C     0.47153   0.56821   0.82617   0.00000  Uiso   1.00
C239   C     0.45960   0.50988   0.66199   0.00000  Uiso   1.00
C240   C     0.47596   0.74307   0.04414   0.00000  Uiso   1.00
C241   C     0.42956   0.76827   0.10739   0.00000  Uiso   1.00
C242   C     0.41037   0.82434   0.07221   0.00000  Uiso   1.00
C243   C     0.36306   0.91426   0.05045   0.00000  Uiso   1.00
C244   C     0.55227   0.73700   0.89249   0.00000  Uiso   1.00
C245   C     0.59631   0.72332   0.99086   0.00000  Uiso   1.00
C246   C     0.65629   0.73776   0.99070   0.00000  Uiso   1.00
C247   C     0.68907   0.72137   0.08906   0.00000  Uiso   1.00
C248   C     0.52505   0.67733   0.85738   0.00000  Uiso   1.00
C249   C     0.52510   0.65310   0.74499   0.00000  Uiso   1.00
C250   C     0.49788   0.59800   0.73097   0.00000  Uiso   1.00
C251   C     0.50227   0.77281   0.94911   0.00000  Uiso   1.00
C252   C     0.48315   0.82886   0.91382   0.00000  Uiso   1.00
C253   C     0.43673   0.85414   0.97700   0.00000  Uiso   1.00
H254   H     0.48336   0.65908   0.14143   0.00000  Uiso   1.00
H255   H     0.58233   0.65415   0.25779   0.00000  Uiso   1.00
H256   H     0.45116   0.56951   0.01211   0.00000  Uiso   1.00
H257   H     0.40921   0.74524   0.18092   0.00000  Uiso   1.00
H258   H     0.70366   0.66178   0.34487   0.00000  Uiso   1.00
H259   H     0.42706   0.48332   0.82684   0.00000  Uiso   1.00
H260   H     0.33860   0.85388   0.18280   0.00000  Uiso   1.00
H261   H     0.57275   0.76016   0.81850   0.00000  Uiso   1.00
H262   H     0.67663   0.76077   0.91715   0.00000  Uiso   1.00
H263   H     0.54546   0.67613   0.67147   0.00000  Uiso   1.00
H264   H     0.50351   0.85186   0.84027   0.00000  Uiso   1.00
H265   H     0.78021   0.74832   0.06839   0.00000  Uiso   1.00
H266   H     0.50360   0.56986   0.55035   0.00000  Uiso   1.00
H267   H     0.41514   0.94042   0.90632   0.00000  Uiso   1.00
O268   O     0.80866   0.70361   0.27733   0.00000  Uiso   1.00
O269   O     0.44576   0.46949   0.59769   0.00000  Uiso   1.00
O270   O     0.32971   0.95565   0.06471   0.00000  Uiso   1.00
N271   N     0.70742   0.68207   0.26628   0.00000  Uiso   1.00
N272   N     0.44882   0.51522   0.78195   0.00000  Uiso   1.00
N273   N     0.36611   0.86165   0.11472   0.00000  Uiso   1.00
N274   N     0.74861   0.72864   0.11750   0.00000  Uiso   1.00
N275   N     0.49001   0.56179   0.63317   0.00000  Uiso   1.00
N276   N     0.40729   0.90822   0.96595   0.00000  Uiso   1.00
C277   C     0.01562   0.63878   0.43109   0.00000  Uiso   1.00
C278   C     0.08074   0.65439   0.41031   0.00000  Uiso   1.00
C279   C     0.11380   0.63926   0.31162   0.00000  Uiso   1.00
C280   C     0.17269   0.65769   0.30936   0.00000  Uiso   1.00
C281   C     0.27003   0.67697   0.26296   0.00000  Uiso   1.00
C282   C     0.01365   0.60501   0.54752   0.00000  Uiso   1.00
C283   C     0.99030   0.54837   0.56419   0.00000  Uiso   1.00
C284   C     0.99271   0.52524   0.67744   0.00000  Uiso   1.00
C285   C     0.98586   0.46788   0.84407   0.00000  Uiso   1.00
C286   C     0.98385   0.69780   0.45297   0.00000  Uiso   1.00
C287   C     0.93543   0.71917   0.39016   0.00000  Uiso   1.00
C288   C     0.91274   0.77416   0.42383   0.00000  Uiso   1.00
C289   C     0.85962   0.86087   0.44364   0.00000  Uiso   1.00
C290   C     0.06142   0.69842   0.60258   0.00000  Uiso   1.00
C291   C     0.10561   0.68678   0.50346   0.00000  Uiso   1.00
C292   C     0.16447   0.70524   0.50135   0.00000  Uiso   1.00
C293   C     0.19761   0.69014   0.40267   0.00000  Uiso   1.00
C294   C     0.03853   0.63740   0.64067   0.00000  Uiso   1.00
C295   C     0.04097   0.61435   0.75392   0.00000  Uiso   1.00
C296   C     0.01763   0.55769   0.77076   0.00000  Uiso   1.00
C297   C     0.00873   0.73020   0.54611   0.00000  Uiso   1.00
C298   C     0.98611   0.78516   0.57989   0.00000  Uiso   1.00
C299   C     0.93767   0.80661   0.51714   0.00000  Uiso   1.00
H300   H     0.99625   0.61356   0.35858   0.00000  Uiso   1.00
H301   H     0.09453   0.61418   0.23956   0.00000  Uiso   1.00
H302   H     0.97104   0.52331   0.49210   0.00000  Uiso   1.00
H303   H     0.91619   0.69409   0.31809   0.00000  Uiso   1.00
H304   H     0.21447   0.62914   0.14870   0.00000  Uiso   1.00
H305   H     0.95408   0.43755   0.68119   0.00000  Uiso   1.00
H306   H     0.83840   0.79767   0.31426   0.00000  Uiso   1.00
H307   H     0.08078   0.72364   0.67511   0.00000  Uiso   1.00
H308   H     0.18371   0.73031   0.57345   0.00000  Uiso   1.00
H309   H     0.06022   0.63944   0.82598   0.00000  Uiso   1.00
H310   H     0.00537   0.81021   0.65198   0.00000  Uiso   1.00
H311   H     0.28685   0.72339   0.41970   0.00000  Uiso   1.00
H312   H     0.02645   0.53179   0.95219   0.00000  Uiso   1.00
H313   H     0.91079   0.89192   0.58526   0.00000  Uiso   1.00
O314   O     0.31685   0.67865   0.21163   0.00000  Uiso   1.00
O315   O     0.97521   0.42729   0.91024   0.00000  Uiso   1.00
O316   O     0.82345   0.89976   0.42884   0.00000  Uiso   1.00
N317   N     0.21738   0.65042   0.22642   0.00000  Uiso   1.00
N318   N     0.97393   0.47128   0.72426   0.00000  Uiso   1.00
N319   N     0.86578   0.80796   0.38124   0.00000  Uiso   1.00
N320   N     0.25633   0.70114   0.37224   0.00000  Uiso   1.00
N321   N     0.01288   0.52200   0.87008   0.00000  Uiso   1.00
N322   N     0.90473   0.85867   0.52706   0.00000  Uiso   1.00
C323   C     0.99616   0.31776   0.56745   0.00000  Uiso   1.00
C324   C     0.92999   0.30642   0.58590   0.00000  Uiso   1.00
C325   C     0.89730   0.32283   0.68427   0.00000  Uiso   1.00
C326   C     0.83729   0.30843   0.68426   0.00000  Uiso   1.00
C327   C     0.73854   0.29537   0.72733   0.00000  Uiso   1.00
C328   C     0.00125   0.35241   0.45241   0.00000  Uiso   1.00
C329   C     0.02848   0.40749   0.43856   0.00000  Uiso   1.00
C330   C     0.02847   0.43179   0.32617   0.00000  Uiso   1.00
C331   C     0.04040   0.49012   0.16199   0.00000  Uiso   1.00
C332   C     0.02404   0.25693   0.54414   0.00000  Uiso   1.00
C333   C     0.07044   0.23173   0.60739   0.00000  Uiso   1.00
C334   C     0.08963   0.17566   0.57221   0.00000  Uiso   1.00
C335   C     0.13694   0.08574   0.55045   0.00000  Uiso   1.00
C336   C     0.94773   0.26300   0.39249   0.00000  Uiso   1.00
C337   C     0.90369   0.27668   0.49086   0.00000  Uiso   1.00
C338   C     0.84371   0.26224   0.49070   0.00000  Uiso   1.00
C339   C     0.81093   0.27863   0.58906   0.00000  Uiso   1.00
C340   C     0.97495   0.32267   0.35738   0.00000  Uiso   1.00
C341   C     0.97490   0.34690   0.24499   0.00000  Uiso   1.00
C342   C     0.00212   0.40200   0.23097   0.00000  Uiso   1.00
C343   C     0.99773   0.22719   0.44911   0.00000  Uiso   1.00
C344   C     0.01685   0.17114   0.41382   0.00000  Uiso   1.00
C345   C     0.06327   0.14586   0.47700   0.00000  Uiso   1.00
H346   H     0.01664   0.34092   0.64143   0.00000  Uiso   1.00
H347   H     0.91767   0.34585   0.75779   0.00000  Uiso   1.00
H348   H     0.04884   0.43049   0.51211   0.00000  Uiso   1.00
H349   H     0.09079   0.25476   0.68092   0.00000  Uiso   1.00
H350   H     0.79634   0.33822   0.84487   0.00000  Uiso   1.00
H351   H     0.07294   0.51668   0.32684   0.00000  Uiso   1.00
H352   H     0.16140   0.14612   0.68280   0.00000  Uiso   1.00
H353   H     0.92725   0.23984   0.31850   0.00000  Uiso   1.00
H354   H     0.82337   0.23923   0.41715   0.00000  Uiso   1.00
H355   H     0.95454   0.32387   0.17147   0.00000  Uiso   1.00
H356   H     0.99649   0.14814   0.34027   0.00000  Uiso   1.00
H357   H     0.71979   0.25168   0.56839   0.00000  Uiso   1.00
H358   H     0.99640   0.43014   0.05035   0.00000  Uiso   1.00
H359   H     0.08486   0.05958   0.40632   0.00000  Uiso   1.00
O360   O     0.69134   0.29639   0.77733   0.00000  Uiso   1.00
O361   O     0.05424   0.53051   0.09769   0.00000  Uiso   1.00
O362   O     0.17029   0.04435   0.56471   0.00000  Uiso   1.00
N363   N     0.79258   0.31793   0.76628   0.00000  Uiso   1.00
N364   N     0.05118   0.48478   0.28195   0.00000  Uiso   1.00
N365   N     0.13389   0.13835   0.61472   0.00000  Uiso   1.00
N366   N     0.75139   0.27136   0.61750   0.00000  Uiso   1.00
N367   N     0.00999   0.43821   0.13317   0.00000  Uiso   1.00
N368   N     0.09271   0.09178   0.46595   0.00000  Uiso   1.00
