data_job_02602
_audit_creation_date              2018-12-19
_audit_creation_method            'Materials Studio'
_symmetry_space_group_name_H-M    'P1'
_symmetry_Int_Tables_number       1
_symmetry_cell_setting            triclinic
loop_
_symmetry_equiv_pos_as_xyz
  x,y,z
_cell_length_a                    17.2899
_cell_length_b                    10.9736
_cell_length_c                    19.3342
_cell_angle_alpha                 90.0000
_cell_angle_beta                  60.3463
_cell_angle_gamma                 90.0000
loop_
_atom_site_label
_atom_site_type_symbol
_atom_site_fract_x
_atom_site_fract_y
_atom_site_fract_z
_atom_site_U_iso_or_equiv
_atom_site_adp_type
_atom_site_occupancy
C1     C     0.82265   0.50905   0.35829   0.00000  Uiso   1.00
C2     C     0.86242   0.60930   0.38573   0.00000  Uiso   1.00
C3     C     0.95000   0.64930   0.34501   0.00000  Uiso   1.00
C4     C     0.97334   0.74198   0.38008   0.00000  Uiso   1.00
C5     C     0.04454   0.88988   0.41158   0.00000  Uiso   1.00
C6     C     0.78363   0.41545   0.42534   0.00000  Uiso   1.00
C7     C     0.80496   0.29245   0.41792   0.00000  Uiso   1.00
C8     C     0.76195   0.22194   0.48633   0.00000  Uiso   1.00
C9     C     0.71078   0.06886   0.57931   0.00000  Uiso   1.00
C10    C     0.74358   0.56647   0.35611   0.00000  Uiso   1.00
C11    C     0.73121   0.57042   0.29048   0.00000  Uiso   1.00
C12    C     0.65447   0.62705   0.30061   0.00000  Uiso   1.00
C13    C     0.54111   0.70845   0.28609   0.00000  Uiso   1.00
C14    C     0.70834   0.60255   0.49298   0.00000  Uiso   1.00
C15    C     0.80033   0.66008   0.45889   0.00000  Uiso   1.00
C16    C     0.82353   0.75274   0.49403   0.00000  Uiso   1.00
C17    C     0.91114   0.79286   0.45337   0.00000  Uiso   1.00
C18    C     0.72154   0.46623   0.49850   0.00000  Uiso   1.00
C19    C     0.67849   0.39589   0.56694   0.00000  Uiso   1.00
C20    C     0.69975   0.27281   0.55962   0.00000  Uiso   1.00
C21    C     0.68148   0.61726   0.42927   0.00000  Uiso   1.00
C22    C     0.60474   0.67387   0.43950   0.00000  Uiso   1.00
C23    C     0.59227   0.67792   0.37390   0.00000  Uiso   1.00
H24    H     0.87099   0.46951   0.30134   0.00000  Uiso   1.00
H25    H     0.99804   0.60996   0.28840   0.00000  Uiso   1.00
H26    H     0.85300   0.25317   0.36129   0.00000  Uiso   1.00
H27    H     0.77927   0.53112   0.23388   0.00000  Uiso   1.00
H28    H     0.11152   0.78805   0.30633   0.00000  Uiso   1.00
H29    H     0.80569   0.03572   0.46003   0.00000  Uiso   1.00
H30    H     0.65021   0.62182   0.19134   0.00000  Uiso   1.00
H31    H     0.66000   0.64208   0.54995   0.00000  Uiso   1.00
H32    H     0.77547   0.79202   0.55065   0.00000  Uiso   1.00
H33    H     0.63044   0.43522   0.62354   0.00000  Uiso   1.00
H34    H     0.55671   0.71316   0.49612   0.00000  Uiso   1.00
H35    H     0.93088   0.93580   0.51918   0.00000  Uiso   1.00
H36    H     0.62504   0.18347   0.67288   0.00000  Uiso   1.00
H37    H     0.46957   0.76957   0.40419   0.00000  Uiso   1.00
O38    O     0.10097   0.95741   0.40875   0.00000  Uiso   1.00
O39    O     0.69972   0.97039   0.61038   0.00000  Uiso   1.00
O40    O     0.49575   0.73934   0.25788   0.00000  Uiso   1.00
N41    N     0.05315   0.80226   0.35632   0.00000  Uiso   1.00
N42    N     0.76723   0.09889   0.50002   0.00000  Uiso   1.00
N43    N     0.62186   0.64681   0.24883   0.00000  Uiso   1.00
N44    N     0.95595   0.88177   0.47086   0.00000  Uiso   1.00
N45    N     0.67003   0.17839   0.61455   0.00000  Uiso   1.00
N46    N     0.52466   0.72632   0.36336   0.00000  Uiso   1.00
C47    C     0.17735   0.00905   0.14171   0.00000  Uiso   1.00
C48    C     0.13758   0.10930   0.11427   0.00000  Uiso   1.00
C49    C     0.05000   0.14930   0.15499   0.00000  Uiso   1.00
C50    C     0.02666   0.24198   0.11992   0.00000  Uiso   1.00
C51    C     0.95546   0.38988   0.08842   0.00000  Uiso   1.00
C52    C     0.21637   0.91545   0.07466   0.00000  Uiso   1.00
C53    C     0.19504   0.79245   0.08208   0.00000  Uiso   1.00
C54    C     0.23805   0.72194   0.01367   0.00000  Uiso   1.00
C55    C     0.28922   0.56886   0.92069   0.00000  Uiso   1.00
C56    C     0.25642   0.06647   0.14389   0.00000  Uiso   1.00
C57    C     0.26879   0.07042   0.20952   0.00000  Uiso   1.00
C58    C     0.34553   0.12705   0.19939   0.00000  Uiso   1.00
C59    C     0.45889   0.20845   0.21391   0.00000  Uiso   1.00
C60    C     0.29166   0.10255   0.00702   0.00000  Uiso   1.00
C61    C     0.19967   0.16008   0.04111   0.00000  Uiso   1.00
C62    C     0.17647   0.25274   0.00597   0.00000  Uiso   1.00
C63    C     0.08886   0.29286   0.04663   0.00000  Uiso   1.00
C64    C     0.27846   0.96623   0.00150   0.00000  Uiso   1.00
C65    C     0.32151   0.89589   0.93306   0.00000  Uiso   1.00
C66    C     0.30025   0.77281   0.94038   0.00000  Uiso   1.00
C67    C     0.31852   0.11726   0.07073   0.00000  Uiso   1.00
C68    C     0.39526   0.17387   0.06050   0.00000  Uiso   1.00
C69    C     0.40773   0.17792   0.12610   0.00000  Uiso   1.00
H70    H     0.12901   0.96951   0.19866   0.00000  Uiso   1.00
H71    H     0.00196   0.10996   0.21160   0.00000  Uiso   1.00
H72    H     0.14700   0.75317   0.13871   0.00000  Uiso   1.00
H73    H     0.22073   0.03112   0.26612   0.00000  Uiso   1.00
H74    H     0.88848   0.28805   0.19367   0.00000  Uiso   1.00
H75    H     0.19431   0.53572   0.03997   0.00000  Uiso   1.00
H76    H     0.34979   0.12182   0.30866   0.00000  Uiso   1.00
H77    H     0.34000   0.14208   0.95005   0.00000  Uiso   1.00
H78    H     0.22453   0.29202   0.94935   0.00000  Uiso   1.00
H79    H     0.36956   0.93522   0.87646   0.00000  Uiso   1.00
H80    H     0.44329   0.21316   0.00388   0.00000  Uiso   1.00
H81    H     0.06912   0.43580   0.98082   0.00000  Uiso   1.00
H82    H     0.37496   0.68347   0.82712   0.00000  Uiso   1.00
H83    H     0.53043   0.26957   0.09581   0.00000  Uiso   1.00
O84    O     0.89903   0.45741   0.09125   0.00000  Uiso   1.00
O85    O     0.30028   0.47039   0.88962   0.00000  Uiso   1.00
O86    O     0.50425   0.23934   0.24212   0.00000  Uiso   1.00
N87    N     0.94685   0.30226   0.14368   0.00000  Uiso   1.00
N88    N     0.23277   0.59889   0.99998   0.00000  Uiso   1.00
N89    N     0.37814   0.14681   0.25117   0.00000  Uiso   1.00
N90    N     0.04405   0.38177   0.02914   0.00000  Uiso   1.00
N91    N     0.32997   0.67839   0.88545   0.00000  Uiso   1.00
N92    N     0.47534   0.22632   0.13664   0.00000  Uiso   1.00
C93    C     0.17735   0.49095   0.64171   0.00000  Uiso   1.00
C94    C     0.13758   0.39070   0.61427   0.00000  Uiso   1.00
C95    C     0.05000   0.35070   0.65499   0.00000  Uiso   1.00
C96    C     0.02666   0.25802   0.61992   0.00000  Uiso   1.00
C97    C     0.95546   0.11012   0.58842   0.00000  Uiso   1.00
C98    C     0.21637   0.58455   0.57466   0.00000  Uiso   1.00
C99    C     0.19504   0.70755   0.58208   0.00000  Uiso   1.00
C100   C     0.23805   0.77806   0.51367   0.00000  Uiso   1.00
C101   C     0.28922   0.93114   0.42069   0.00000  Uiso   1.00
C102   C     0.25642   0.43353   0.64389   0.00000  Uiso   1.00
C103   C     0.26879   0.42958   0.70952   0.00000  Uiso   1.00
C104   C     0.34553   0.37295   0.69939   0.00000  Uiso   1.00
C105   C     0.45889   0.29155   0.71391   0.00000  Uiso   1.00
C106   C     0.29166   0.39745   0.50702   0.00000  Uiso   1.00
C107   C     0.19967   0.33992   0.54111   0.00000  Uiso   1.00
C108   C     0.17647   0.24726   0.50597   0.00000  Uiso   1.00
C109   C     0.08886   0.20714   0.54663   0.00000  Uiso   1.00
C110   C     0.27846   0.53377   0.50150   0.00000  Uiso   1.00
C111   C     0.32151   0.60411   0.43306   0.00000  Uiso   1.00
C112   C     0.30025   0.72719   0.44038   0.00000  Uiso   1.00
C113   C     0.31852   0.38274   0.57073   0.00000  Uiso   1.00
C114   C     0.39526   0.32613   0.56050   0.00000  Uiso   1.00
C115   C     0.40773   0.32208   0.62610   0.00000  Uiso   1.00
H116   H     0.12901   0.53049   0.69866   0.00000  Uiso   1.00
H117   H     0.00196   0.39004   0.71160   0.00000  Uiso   1.00
H118   H     0.14700   0.74683   0.63871   0.00000  Uiso   1.00
H119   H     0.22073   0.46888   0.76612   0.00000  Uiso   1.00
H120   H     0.88848   0.21195   0.69367   0.00000  Uiso   1.00
H121   H     0.19431   0.96428   0.53997   0.00000  Uiso   1.00
H122   H     0.34979   0.37818   0.80866   0.00000  Uiso   1.00
H123   H     0.34000   0.35792   0.45005   0.00000  Uiso   1.00
H124   H     0.22453   0.20798   0.44935   0.00000  Uiso   1.00
H125   H     0.36956   0.56478   0.37646   0.00000  Uiso   1.00
H126   H     0.44329   0.28684   0.50388   0.00000  Uiso   1.00
H127   H     0.06912   0.06420   0.48082   0.00000  Uiso   1.00
H128   H     0.37496   0.81653   0.32712   0.00000  Uiso   1.00
H129   H     0.53043   0.23043   0.59581   0.00000  Uiso   1.00
O130   O     0.89903   0.04259   0.59125   0.00000  Uiso   1.00
O131   O     0.30028   0.02961   0.38962   0.00000  Uiso   1.00
O132   O     0.50425   0.26066   0.74212   0.00000  Uiso   1.00
N133   N     0.94685   0.19774   0.64368   0.00000  Uiso   1.00
N134   N     0.23277   0.90111   0.49998   0.00000  Uiso   1.00
N135   N     0.37814   0.35319   0.75117   0.00000  Uiso   1.00
N136   N     0.04405   0.11823   0.52914   0.00000  Uiso   1.00
N137   N     0.32997   0.82161   0.38545   0.00000  Uiso   1.00
N138   N     0.47534   0.27368   0.63664   0.00000  Uiso   1.00
C139   C     0.82265   0.99095   0.85829   0.00000  Uiso   1.00
C140   C     0.86242   0.89070   0.88573   0.00000  Uiso   1.00
C141   C     0.95000   0.85070   0.84501   0.00000  Uiso   1.00
C142   C     0.97334   0.75802   0.88008   0.00000  Uiso   1.00
C143   C     0.04454   0.61012   0.91158   0.00000  Uiso   1.00
C144   C     0.78363   0.08455   0.92534   0.00000  Uiso   1.00
C145   C     0.80496   0.20755   0.91792   0.00000  Uiso   1.00
C146   C     0.76195   0.27806   0.98633   0.00000  Uiso   1.00
C147   C     0.71078   0.43114   0.07931   0.00000  Uiso   1.00
C148   C     0.74358   0.93353   0.85611   0.00000  Uiso   1.00
C149   C     0.73121   0.92958   0.79048   0.00000  Uiso   1.00
C150   C     0.65447   0.87295   0.80061   0.00000  Uiso   1.00
C151   C     0.54111   0.79155   0.78609   0.00000  Uiso   1.00
C152   C     0.70834   0.89745   0.99298   0.00000  Uiso   1.00
C153   C     0.80033   0.83992   0.95889   0.00000  Uiso   1.00
C154   C     0.82353   0.74726   0.99403   0.00000  Uiso   1.00
C155   C     0.91114   0.70714   0.95337   0.00000  Uiso   1.00
C156   C     0.72154   0.03377   0.99850   0.00000  Uiso   1.00
C157   C     0.67849   0.10411   0.06694   0.00000  Uiso   1.00
C158   C     0.69975   0.22719   0.05962   0.00000  Uiso   1.00
C159   C     0.68148   0.88274   0.92927   0.00000  Uiso   1.00
C160   C     0.60474   0.82613   0.93950   0.00000  Uiso   1.00
C161   C     0.59227   0.82208   0.87390   0.00000  Uiso   1.00
H162   H     0.87099   0.03049   0.80134   0.00000  Uiso   1.00
H163   H     0.99804   0.89004   0.78840   0.00000  Uiso   1.00
H164   H     0.85300   0.24683   0.86129   0.00000  Uiso   1.00
H165   H     0.77927   0.96888   0.73388   0.00000  Uiso   1.00
H166   H     0.11152   0.71195   0.80633   0.00000  Uiso   1.00
H167   H     0.80569   0.46428   0.96003   0.00000  Uiso   1.00
H168   H     0.65021   0.87818   0.69134   0.00000  Uiso   1.00
H169   H     0.66000   0.85792   0.04995   0.00000  Uiso   1.00
H170   H     0.77547   0.70798   0.05065   0.00000  Uiso   1.00
H171   H     0.63044   0.06478   0.12354   0.00000  Uiso   1.00
H172   H     0.55671   0.78684   0.99612   0.00000  Uiso   1.00
H173   H     0.93088   0.56420   0.01918   0.00000  Uiso   1.00
H174   H     0.62504   0.31653   0.17288   0.00000  Uiso   1.00
H175   H     0.46957   0.73043   0.90419   0.00000  Uiso   1.00
O176   O     0.10097   0.54259   0.90875   0.00000  Uiso   1.00
O177   O     0.69972   0.52961   0.11038   0.00000  Uiso   1.00
O178   O     0.49575   0.76066   0.75788   0.00000  Uiso   1.00
N179   N     0.05315   0.69774   0.85632   0.00000  Uiso   1.00
N180   N     0.76723   0.40111   0.00002   0.00000  Uiso   1.00
N181   N     0.62186   0.85319   0.74883   0.00000  Uiso   1.00
N182   N     0.95595   0.61823   0.97086   0.00000  Uiso   1.00
N183   N     0.67003   0.32161   0.11455   0.00000  Uiso   1.00
N184   N     0.52466   0.77368   0.86336   0.00000  Uiso   1.00
