data_job_01878
_audit_creation_date              2018-12-19
_audit_creation_method            'Materials Studio'
_symmetry_space_group_name_H-M    'P1'
_symmetry_Int_Tables_number       1
_symmetry_cell_setting            triclinic
loop_
_symmetry_equiv_pos_as_xyz
  x,y,z
_cell_length_a                    27.4344
_cell_length_b                    10.4209
_cell_length_c                    19.5590
_cell_angle_alpha                 90.0000
_cell_angle_beta                  80.4490
_cell_angle_gamma                 90.0000
loop_
_atom_site_label
_atom_site_type_symbol
_atom_site_fract_x
_atom_site_fract_y
_atom_site_fract_z
_atom_site_U_iso_or_equiv
_atom_site_adp_type
_atom_site_occupancy
C1     C     0.11941   0.35395   0.41556   0.00000  Uiso   1.00
C2     C     0.16007   0.25425   0.39639   0.00000  Uiso   1.00
C3     C     0.18268   0.22334   0.32961   0.00000  Uiso   1.00
C4     C     0.21907   0.12946   0.32297   0.00000  Uiso   1.00
C5     C     0.28017   0.98384   0.28437   0.00000  Uiso   1.00
C6     C     0.07628   0.28334   0.45883   0.00000  Uiso   1.00
C7     C     0.02845   0.27692   0.44455   0.00000  Uiso   1.00
C8     C     0.99431   0.20755   0.49049   0.00000  Uiso   1.00
C9     C     0.92532   0.10718   0.54886   0.00000  Uiso   1.00
C10    C     0.13861   0.44766   0.46475   0.00000  Uiso   1.00
C11    C     0.14317   0.57941   0.45546   0.00000  Uiso   1.00
C12    C     0.16150   0.64839   0.50639   0.00000  Uiso   1.00
C13    C     0.18928   0.80315   0.57395   0.00000  Uiso   1.00
C14    C     0.14383   0.24219   0.52253   0.00000  Uiso   1.00
C15    C     0.17333   0.19354   0.45450   0.00000  Uiso   1.00
C16    C     0.20970   0.09969   0.44796   0.00000  Uiso   1.00
C17    C     0.23236   0.06865   0.38118   0.00000  Uiso   1.00
C18    C     0.08954   0.22264   0.51693   0.00000  Uiso   1.00
C19    C     0.05547   0.15327   0.56290   0.00000  Uiso   1.00
C20    C     0.00760   0.14674   0.54869   0.00000  Uiso   1.00
C21    C     0.15187   0.38696   0.52286   0.00000  Uiso   1.00
C22    C     0.17019   0.45576   0.57381   0.00000  Uiso   1.00
C23    C     0.17478   0.58758   0.56460   0.00000  Uiso   1.00
H24    H     0.10908   0.40121   0.37033   0.00000  Uiso   1.00
H25    H     0.17241   0.27033   0.28466   0.00000  Uiso   1.00
H26    H     0.01820   0.32391   0.39959   0.00000  Uiso   1.00
H27    H     0.13290   0.62635   0.41050   0.00000  Uiso   1.00
H28    H     0.24845   0.09843   0.21530   0.00000  Uiso   1.00
H29    H     0.92329   0.21145   0.45765   0.00000  Uiso   1.00
H30    H     0.16517   0.84920   0.48065   0.00000  Uiso   1.00
H31    H     0.15415   0.19493   0.56777   0.00000  Uiso   1.00
H32    H     0.21995   0.05273   0.49293   0.00000  Uiso   1.00
H33    H     0.06574   0.10631   0.60786   0.00000  Uiso   1.00
H34    H     0.18045   0.40875   0.61877   0.00000  Uiso   1.00
H35    H     0.28703   0.92181   0.38434   0.00000  Uiso   1.00
H36    H     0.96187   0.03484   0.62670   0.00000  Uiso   1.00
H37    H     0.20375   0.67258   0.64970   0.00000  Uiso   1.00
O38    O     0.31020   0.92027   0.24703   0.00000  Uiso   1.00
O39    O     0.88360   0.06857   0.56499   0.00000  Uiso   1.00
O40    O     0.20094   0.90528   0.59517   0.00000  Uiso   1.00
N41    N     0.24850   0.07639   0.26535   0.00000  Uiso   1.00
N42    N     0.94450   0.18204   0.49193   0.00000  Uiso   1.00
N43    N     0.17063   0.77829   0.51345   0.00000  Uiso   1.00
N44    N     0.26927   0.98136   0.35632   0.00000  Uiso   1.00
N45    N     0.96527   0.08701   0.58289   0.00000  Uiso   1.00
N46    N     0.19139   0.68326   0.60441   0.00000  Uiso   1.00
C47    C     0.39688   0.64187   0.92593   0.00000  Uiso   1.00
C48    C     0.36128   0.74285   0.90668   0.00000  Uiso   1.00
C49    C     0.35299   0.77006   0.84010   0.00000  Uiso   1.00
C50    C     0.31896   0.86591   0.83334   0.00000  Uiso   1.00
C51    C     0.26747   0.01269   0.79466   0.00000  Uiso   1.00
C52    C     0.43199   0.71273   0.96567   0.00000  Uiso   1.00
C53    C     0.48315   0.71460   0.94869   0.00000  Uiso   1.00
C54    C     0.50864   0.78508   0.99160   0.00000  Uiso   1.00
C55    C     0.56693   0.88503   0.04453   0.00000  Uiso   1.00
C56    C     0.36608   0.55352   0.97834   0.00000  Uiso   1.00
C57    C     0.36183   0.42151   0.97203   0.00000  Uiso   1.00
C58    C     0.33184   0.35795   0.02561   0.00000  Uiso   1.00
C59    C     0.28779   0.21069   0.09822   0.00000  Uiso   1.00
C60    C     0.35119   0.76371   0.03231   0.00000  Uiso   1.00
C61    C     0.33646   0.80904   0.96446   0.00000  Uiso   1.00
C62    C     0.30244   0.90487   0.95780   0.00000  Uiso   1.00
C63    C     0.29410   0.93221   0.89123   0.00000  Uiso   1.00
C64    C     0.40717   0.77892   0.02345   0.00000  Uiso   1.00
C65    C     0.43259   0.84941   0.06639   0.00000  Uiso   1.00
C66    C     0.48378   0.85139   0.04949   0.00000  Uiso   1.00
C67    C     0.34125   0.61970   0.03612   0.00000  Uiso   1.00
C68    C     0.31127   0.55633   0.08973   0.00000  Uiso   1.00
C69    C     0.30698   0.42425   0.08350   0.00000  Uiso   1.00
H70    H     0.41621   0.59034   0.88094   0.00000  Uiso   1.00
H71    H     0.37221   0.71883   0.79540   0.00000  Uiso   1.00
H72    H     0.50235   0.66336   0.90398   0.00000  Uiso   1.00
H73    H     0.38104   0.37033   0.92731   0.00000  Uiso   1.00
H74    H     0.31249   0.89049   0.72604   0.00000  Uiso   1.00
H75    H     0.58690   0.77351   0.95499   0.00000  Uiso   1.00
H76    H     0.33110   0.15559   0.00419   0.00000  Uiso   1.00
H77    H     0.33187   0.81524   0.07730   0.00000  Uiso   1.00
H78    H     0.28324   0.95607   0.00253   0.00000  Uiso   1.00
H79    H     0.41338   0.90061   0.11111   0.00000  Uiso   1.00
H80    H     0.29207   0.60757   0.13444   0.00000  Uiso   1.00
H81    H     0.24028   0.08305   0.89415   0.00000  Uiso   1.00
H82    H     0.51469   0.96606   0.12311   0.00000  Uiso   1.00
H83    H     0.25889   0.34815   0.17231   0.00000  Uiso   1.00
O84    O     0.24593   0.07539   0.75736   0.00000  Uiso   1.00
O85    O     0.60594   0.92188   0.05775   0.00000  Uiso   1.00
O86    O     0.27034   0.11119   0.12230   0.00000  Uiso   1.00
N87    N     0.30217   0.91647   0.77586   0.00000  Uiso   1.00
N88    N     0.55872   0.80711   0.98992   0.00000  Uiso   1.00
N89    N     0.31958   0.22940   0.03593   0.00000  Uiso   1.00
N90    N     0.26331   0.02008   0.86632   0.00000  Uiso   1.00
N91    N     0.51986   0.91073   0.08038   0.00000  Uiso   1.00
N92    N     0.28073   0.33301   0.12639   0.00000  Uiso   1.00
C93    C     0.88059   0.85395   0.08444   0.00000  Uiso   1.00
C94    C     0.83993   0.75425   0.10361   0.00000  Uiso   1.00
C95    C     0.81732   0.72334   0.17039   0.00000  Uiso   1.00
C96    C     0.78093   0.62946   0.17703   0.00000  Uiso   1.00
C97    C     0.71983   0.48384   0.21563   0.00000  Uiso   1.00
C98    C     0.92372   0.78334   0.04117   0.00000  Uiso   1.00
C99    C     0.97155   0.77692   0.05545   0.00000  Uiso   1.00
C100   C     0.00569   0.70755   0.00951   0.00000  Uiso   1.00
C101   C     0.07468   0.60718   0.95114   0.00000  Uiso   1.00
C102   C     0.86139   0.94766   0.03525   0.00000  Uiso   1.00
C103   C     0.85683   0.07941   0.04454   0.00000  Uiso   1.00
C104   C     0.83850   0.14839   0.99361   0.00000  Uiso   1.00
C105   C     0.81072   0.30315   0.92605   0.00000  Uiso   1.00
C106   C     0.85617   0.74219   0.97747   0.00000  Uiso   1.00
C107   C     0.82667   0.69354   0.04550   0.00000  Uiso   1.00
C108   C     0.79030   0.59969   0.05204   0.00000  Uiso   1.00
C109   C     0.76764   0.56865   0.11882   0.00000  Uiso   1.00
C110   C     0.91046   0.72264   0.98307   0.00000  Uiso   1.00
C111   C     0.94453   0.65327   0.93710   0.00000  Uiso   1.00
C112   C     0.99240   0.64674   0.95131   0.00000  Uiso   1.00
C113   C     0.84813   0.88696   0.97714   0.00000  Uiso   1.00
C114   C     0.82981   0.95576   0.92619   0.00000  Uiso   1.00
C115   C     0.82522   0.08758   0.93540   0.00000  Uiso   1.00
H116   H     0.89092   0.90121   0.12967   0.00000  Uiso   1.00
H117   H     0.82759   0.77033   0.21534   0.00000  Uiso   1.00
H118   H     0.98180   0.82391   0.10041   0.00000  Uiso   1.00
H119   H     0.86710   0.12635   0.08950   0.00000  Uiso   1.00
H120   H     0.75155   0.59843   0.28470   0.00000  Uiso   1.00
H121   H     0.07671   0.71145   0.04235   0.00000  Uiso   1.00
H122   H     0.83483   0.34920   0.01935   0.00000  Uiso   1.00
H123   H     0.84585   0.69493   0.93223   0.00000  Uiso   1.00
H124   H     0.78005   0.55273   0.00707   0.00000  Uiso   1.00
H125   H     0.93426   0.60631   0.89214   0.00000  Uiso   1.00
H126   H     0.81955   0.90875   0.88123   0.00000  Uiso   1.00
H127   H     0.71297   0.42181   0.11566   0.00000  Uiso   1.00
H128   H     0.03813   0.53484   0.87330   0.00000  Uiso   1.00
H129   H     0.79625   0.17258   0.85030   0.00000  Uiso   1.00
O130   O     0.68980   0.42027   0.25297   0.00000  Uiso   1.00
O131   O     0.11640   0.56857   0.93501   0.00000  Uiso   1.00
O132   O     0.79906   0.40528   0.90483   0.00000  Uiso   1.00
N133   N     0.75150   0.57639   0.23465   0.00000  Uiso   1.00
N134   N     0.05550   0.68204   0.00807   0.00000  Uiso   1.00
N135   N     0.82937   0.27829   0.98655   0.00000  Uiso   1.00
N136   N     0.73073   0.48136   0.14368   0.00000  Uiso   1.00
N137   N     0.03473   0.58701   0.91711   0.00000  Uiso   1.00
N138   N     0.80861   0.18326   0.89559   0.00000  Uiso   1.00
C139   C     0.60312   0.14187   0.57407   0.00000  Uiso   1.00
C140   C     0.63872   0.24285   0.59332   0.00000  Uiso   1.00
C141   C     0.64701   0.27006   0.65990   0.00000  Uiso   1.00
C142   C     0.68104   0.36591   0.66666   0.00000  Uiso   1.00
C143   C     0.73253   0.51269   0.70534   0.00000  Uiso   1.00
C144   C     0.56801   0.21273   0.53433   0.00000  Uiso   1.00
C145   C     0.51685   0.21460   0.55131   0.00000  Uiso   1.00
C146   C     0.49136   0.28508   0.50840   0.00000  Uiso   1.00
C147   C     0.43307   0.38503   0.45547   0.00000  Uiso   1.00
C148   C     0.63392   0.05352   0.52166   0.00000  Uiso   1.00
C149   C     0.63817   0.92151   0.52797   0.00000  Uiso   1.00
C150   C     0.66816   0.85795   0.47439   0.00000  Uiso   1.00
C151   C     0.71221   0.71069   0.40178   0.00000  Uiso   1.00
C152   C     0.64881   0.26371   0.46769   0.00000  Uiso   1.00
C153   C     0.66354   0.30904   0.53554   0.00000  Uiso   1.00
C154   C     0.69756   0.40487   0.54220   0.00000  Uiso   1.00
C155   C     0.70590   0.43221   0.60877   0.00000  Uiso   1.00
C156   C     0.59283   0.27892   0.47655   0.00000  Uiso   1.00
C157   C     0.56741   0.34941   0.43361   0.00000  Uiso   1.00
C158   C     0.51622   0.35139   0.45051   0.00000  Uiso   1.00
C159   C     0.65875   0.11970   0.46388   0.00000  Uiso   1.00
C160   C     0.68873   0.05633   0.41027   0.00000  Uiso   1.00
C161   C     0.69302   0.92425   0.41650   0.00000  Uiso   1.00
H162   H     0.58379   0.09034   0.61906   0.00000  Uiso   1.00
H163   H     0.62779   0.21883   0.70460   0.00000  Uiso   1.00
H164   H     0.49765   0.16336   0.59602   0.00000  Uiso   1.00
H165   H     0.61896   0.87033   0.57269   0.00000  Uiso   1.00
H166   H     0.68751   0.39049   0.77396   0.00000  Uiso   1.00
H167   H     0.41310   0.27351   0.54501   0.00000  Uiso   1.00
H168   H     0.66890   0.65559   0.49581   0.00000  Uiso   1.00
H169   H     0.66813   0.31524   0.42270   0.00000  Uiso   1.00
H170   H     0.71676   0.45607   0.49747   0.00000  Uiso   1.00
H171   H     0.58662   0.40061   0.38889   0.00000  Uiso   1.00
H172   H     0.70793   0.10757   0.36556   0.00000  Uiso   1.00
H173   H     0.75972   0.58305   0.60585   0.00000  Uiso   1.00
H174   H     0.48531   0.46606   0.37689   0.00000  Uiso   1.00
H175   H     0.74111   0.84815   0.32769   0.00000  Uiso   1.00
O176   O     0.75407   0.57539   0.74264   0.00000  Uiso   1.00
O177   O     0.39406   0.42188   0.44225   0.00000  Uiso   1.00
O178   O     0.72966   0.61119   0.37770   0.00000  Uiso   1.00
N179   N     0.69783   0.41647   0.72414   0.00000  Uiso   1.00
N180   N     0.44128   0.30711   0.51008   0.00000  Uiso   1.00
N181   N     0.68042   0.72940   0.46407   0.00000  Uiso   1.00
N182   N     0.73669   0.52008   0.63368   0.00000  Uiso   1.00
N183   N     0.48014   0.41073   0.41962   0.00000  Uiso   1.00
N184   N     0.71927   0.83301   0.37361   0.00000  Uiso   1.00
C185   C     0.88059   0.64605   0.58444   0.00000  Uiso   1.00
C186   C     0.83993   0.74575   0.60361   0.00000  Uiso   1.00
C187   C     0.81732   0.77666   0.67039   0.00000  Uiso   1.00
C188   C     0.78093   0.87054   0.67703   0.00000  Uiso   1.00
C189   C     0.71983   0.01616   0.71563   0.00000  Uiso   1.00
C190   C     0.92372   0.71666   0.54117   0.00000  Uiso   1.00
C191   C     0.97155   0.72308   0.55545   0.00000  Uiso   1.00
C192   C     0.00569   0.79245   0.50951   0.00000  Uiso   1.00
C193   C     0.07468   0.89282   0.45114   0.00000  Uiso   1.00
C194   C     0.86139   0.55234   0.53525   0.00000  Uiso   1.00
C195   C     0.85683   0.42059   0.54454   0.00000  Uiso   1.00
C196   C     0.83850   0.35161   0.49361   0.00000  Uiso   1.00
C197   C     0.81072   0.19685   0.42605   0.00000  Uiso   1.00
C198   C     0.85617   0.75781   0.47747   0.00000  Uiso   1.00
C199   C     0.82667   0.80646   0.54550   0.00000  Uiso   1.00
C200   C     0.79030   0.90031   0.55204   0.00000  Uiso   1.00
C201   C     0.76764   0.93135   0.61882   0.00000  Uiso   1.00
C202   C     0.91046   0.77736   0.48307   0.00000  Uiso   1.00
C203   C     0.94453   0.84673   0.43710   0.00000  Uiso   1.00
C204   C     0.99240   0.85326   0.45131   0.00000  Uiso   1.00
C205   C     0.84813   0.61304   0.47714   0.00000  Uiso   1.00
C206   C     0.82981   0.54424   0.42619   0.00000  Uiso   1.00
C207   C     0.82522   0.41242   0.43540   0.00000  Uiso   1.00
H208   H     0.89092   0.59879   0.62967   0.00000  Uiso   1.00
H209   H     0.82759   0.72967   0.71534   0.00000  Uiso   1.00
H210   H     0.98180   0.67609   0.60041   0.00000  Uiso   1.00
H211   H     0.86710   0.37365   0.58950   0.00000  Uiso   1.00
H212   H     0.75155   0.90157   0.78470   0.00000  Uiso   1.00
H213   H     0.07671   0.78855   0.54235   0.00000  Uiso   1.00
H214   H     0.83483   0.15080   0.51935   0.00000  Uiso   1.00
H215   H     0.84585   0.80507   0.43223   0.00000  Uiso   1.00
H216   H     0.78005   0.94727   0.50707   0.00000  Uiso   1.00
H217   H     0.93426   0.89369   0.39214   0.00000  Uiso   1.00
H218   H     0.81955   0.59125   0.38123   0.00000  Uiso   1.00
H219   H     0.71297   0.07819   0.61566   0.00000  Uiso   1.00
H220   H     0.03813   0.96516   0.37330   0.00000  Uiso   1.00
H221   H     0.79625   0.32742   0.35030   0.00000  Uiso   1.00
O222   O     0.68980   0.07973   0.75297   0.00000  Uiso   1.00
O223   O     0.11640   0.93143   0.43501   0.00000  Uiso   1.00
O224   O     0.79906   0.09472   0.40483   0.00000  Uiso   1.00
N225   N     0.75150   0.92361   0.73465   0.00000  Uiso   1.00
N226   N     0.05550   0.81796   0.50807   0.00000  Uiso   1.00
N227   N     0.82937   0.22171   0.48655   0.00000  Uiso   1.00
N228   N     0.73073   0.01864   0.64368   0.00000  Uiso   1.00
N229   N     0.03473   0.91299   0.41711   0.00000  Uiso   1.00
N230   N     0.80861   0.31674   0.39559   0.00000  Uiso   1.00
C231   C     0.60312   0.35813   0.07407   0.00000  Uiso   1.00
C232   C     0.63872   0.25715   0.09332   0.00000  Uiso   1.00
C233   C     0.64701   0.22994   0.15990   0.00000  Uiso   1.00
C234   C     0.68104   0.13409   0.16666   0.00000  Uiso   1.00
C235   C     0.73253   0.98731   0.20534   0.00000  Uiso   1.00
C236   C     0.56801   0.28727   0.03433   0.00000  Uiso   1.00
C237   C     0.51685   0.28540   0.05131   0.00000  Uiso   1.00
C238   C     0.49136   0.21492   0.00840   0.00000  Uiso   1.00
C239   C     0.43307   0.11497   0.95547   0.00000  Uiso   1.00
C240   C     0.63392   0.44648   0.02166   0.00000  Uiso   1.00
C241   C     0.63817   0.57849   0.02797   0.00000  Uiso   1.00
C242   C     0.66816   0.64205   0.97439   0.00000  Uiso   1.00
C243   C     0.71221   0.78931   0.90178   0.00000  Uiso   1.00
C244   C     0.64881   0.23629   0.96769   0.00000  Uiso   1.00
C245   C     0.66354   0.19096   0.03554   0.00000  Uiso   1.00
C246   C     0.69756   0.09513   0.04220   0.00000  Uiso   1.00
C247   C     0.70590   0.06779   0.10877   0.00000  Uiso   1.00
C248   C     0.59283   0.22108   0.97655   0.00000  Uiso   1.00
C249   C     0.56741   0.15059   0.93361   0.00000  Uiso   1.00
C250   C     0.51622   0.14861   0.95051   0.00000  Uiso   1.00
C251   C     0.65875   0.38030   0.96388   0.00000  Uiso   1.00
C252   C     0.68873   0.44367   0.91027   0.00000  Uiso   1.00
C253   C     0.69302   0.57575   0.91650   0.00000  Uiso   1.00
H254   H     0.58379   0.40966   0.11906   0.00000  Uiso   1.00
H255   H     0.62779   0.28117   0.20460   0.00000  Uiso   1.00
H256   H     0.49765   0.33664   0.09602   0.00000  Uiso   1.00
H257   H     0.61896   0.62967   0.07269   0.00000  Uiso   1.00
H258   H     0.68751   0.10951   0.27396   0.00000  Uiso   1.00
H259   H     0.41310   0.22649   0.04501   0.00000  Uiso   1.00
H260   H     0.66890   0.84441   0.99581   0.00000  Uiso   1.00
H261   H     0.66813   0.18476   0.92270   0.00000  Uiso   1.00
H262   H     0.71676   0.04393   0.99747   0.00000  Uiso   1.00
H263   H     0.58662   0.09939   0.88889   0.00000  Uiso   1.00
H264   H     0.70793   0.39243   0.86556   0.00000  Uiso   1.00
H265   H     0.75972   0.91695   0.10585   0.00000  Uiso   1.00
H266   H     0.48531   0.03394   0.87689   0.00000  Uiso   1.00
H267   H     0.74111   0.65185   0.82769   0.00000  Uiso   1.00
O268   O     0.75407   0.92461   0.24264   0.00000  Uiso   1.00
O269   O     0.39406   0.07812   0.94225   0.00000  Uiso   1.00
O270   O     0.72966   0.88881   0.87770   0.00000  Uiso   1.00
N271   N     0.69783   0.08353   0.22414   0.00000  Uiso   1.00
N272   N     0.44128   0.19289   0.01008   0.00000  Uiso   1.00
N273   N     0.68042   0.77060   0.96407   0.00000  Uiso   1.00
N274   N     0.73669   0.97992   0.13368   0.00000  Uiso   1.00
N275   N     0.48014   0.08927   0.91962   0.00000  Uiso   1.00
N276   N     0.71927   0.66699   0.87361   0.00000  Uiso   1.00
C277   C     0.11941   0.14605   0.91556   0.00000  Uiso   1.00
C278   C     0.16007   0.24575   0.89639   0.00000  Uiso   1.00
C279   C     0.18268   0.27666   0.82961   0.00000  Uiso   1.00
C280   C     0.21907   0.37054   0.82297   0.00000  Uiso   1.00
C281   C     0.28017   0.51616   0.78437   0.00000  Uiso   1.00
C282   C     0.07628   0.21666   0.95883   0.00000  Uiso   1.00
C283   C     0.02845   0.22308   0.94455   0.00000  Uiso   1.00
C284   C     0.99431   0.29245   0.99049   0.00000  Uiso   1.00
C285   C     0.92532   0.39282   0.04886   0.00000  Uiso   1.00
C286   C     0.13861   0.05234   0.96475   0.00000  Uiso   1.00
C287   C     0.14317   0.92059   0.95546   0.00000  Uiso   1.00
C288   C     0.16150   0.85161   0.00639   0.00000  Uiso   1.00
C289   C     0.18928   0.69685   0.07395   0.00000  Uiso   1.00
C290   C     0.14383   0.25781   0.02253   0.00000  Uiso   1.00
C291   C     0.17333   0.30646   0.95450   0.00000  Uiso   1.00
C292   C     0.20970   0.40031   0.94796   0.00000  Uiso   1.00
C293   C     0.23236   0.43135   0.88118   0.00000  Uiso   1.00
C294   C     0.08954   0.27736   0.01693   0.00000  Uiso   1.00
C295   C     0.05547   0.34673   0.06290   0.00000  Uiso   1.00
C296   C     0.00760   0.35326   0.04869   0.00000  Uiso   1.00
C297   C     0.15187   0.11304   0.02286   0.00000  Uiso   1.00
C298   C     0.17019   0.04424   0.07381   0.00000  Uiso   1.00
C299   C     0.17478   0.91242   0.06460   0.00000  Uiso   1.00
H300   H     0.10908   0.09879   0.87033   0.00000  Uiso   1.00
H301   H     0.17241   0.22967   0.78466   0.00000  Uiso   1.00
H302   H     0.01820   0.17609   0.89959   0.00000  Uiso   1.00
H303   H     0.13290   0.87365   0.91050   0.00000  Uiso   1.00
H304   H     0.24845   0.40157   0.71530   0.00000  Uiso   1.00
H305   H     0.92329   0.28855   0.95765   0.00000  Uiso   1.00
H306   H     0.16517   0.65080   0.98065   0.00000  Uiso   1.00
H307   H     0.15415   0.30507   0.06777   0.00000  Uiso   1.00
H308   H     0.21995   0.44727   0.99293   0.00000  Uiso   1.00
H309   H     0.06574   0.39369   0.10786   0.00000  Uiso   1.00
H310   H     0.18045   0.09125   0.11877   0.00000  Uiso   1.00
H311   H     0.28703   0.57819   0.88434   0.00000  Uiso   1.00
H312   H     0.96187   0.46516   0.12670   0.00000  Uiso   1.00
H313   H     0.20375   0.82742   0.14970   0.00000  Uiso   1.00
O314   O     0.31020   0.57973   0.74703   0.00000  Uiso   1.00
O315   O     0.88360   0.43143   0.06499   0.00000  Uiso   1.00
O316   O     0.20094   0.59472   0.09517   0.00000  Uiso   1.00
N317   N     0.24850   0.42361   0.76535   0.00000  Uiso   1.00
N318   N     0.94450   0.31796   0.99193   0.00000  Uiso   1.00
N319   N     0.17063   0.72171   0.01345   0.00000  Uiso   1.00
N320   N     0.26927   0.51864   0.85632   0.00000  Uiso   1.00
N321   N     0.96527   0.41299   0.08289   0.00000  Uiso   1.00
N322   N     0.19139   0.81674   0.10441   0.00000  Uiso   1.00
C323   C     0.39688   0.85813   0.42593   0.00000  Uiso   1.00
C324   C     0.36128   0.75715   0.40668   0.00000  Uiso   1.00
C325   C     0.35299   0.72994   0.34010   0.00000  Uiso   1.00
C326   C     0.31896   0.63409   0.33334   0.00000  Uiso   1.00
C327   C     0.26747   0.48731   0.29466   0.00000  Uiso   1.00
C328   C     0.43199   0.78727   0.46567   0.00000  Uiso   1.00
C329   C     0.48315   0.78540   0.44869   0.00000  Uiso   1.00
C330   C     0.50864   0.71492   0.49160   0.00000  Uiso   1.00
C331   C     0.56693   0.61497   0.54453   0.00000  Uiso   1.00
C332   C     0.36608   0.94648   0.47834   0.00000  Uiso   1.00
C333   C     0.36183   0.07849   0.47203   0.00000  Uiso   1.00
C334   C     0.33184   0.14205   0.52561   0.00000  Uiso   1.00
C335   C     0.28779   0.28931   0.59822   0.00000  Uiso   1.00
C336   C     0.35119   0.73629   0.53231   0.00000  Uiso   1.00
C337   C     0.33646   0.69096   0.46446   0.00000  Uiso   1.00
C338   C     0.30244   0.59513   0.45780   0.00000  Uiso   1.00
C339   C     0.29410   0.56779   0.39123   0.00000  Uiso   1.00
C340   C     0.40717   0.72108   0.52345   0.00000  Uiso   1.00
C341   C     0.43259   0.65059   0.56639   0.00000  Uiso   1.00
C342   C     0.48378   0.64861   0.54949   0.00000  Uiso   1.00
C343   C     0.34125   0.88030   0.53612   0.00000  Uiso   1.00
C344   C     0.31127   0.94367   0.58973   0.00000  Uiso   1.00
C345   C     0.30698   0.07575   0.58350   0.00000  Uiso   1.00
H346   H     0.41621   0.90966   0.38094   0.00000  Uiso   1.00
H347   H     0.37221   0.78117   0.29540   0.00000  Uiso   1.00
H348   H     0.50235   0.83664   0.40398   0.00000  Uiso   1.00
H349   H     0.38104   0.12967   0.42731   0.00000  Uiso   1.00
H350   H     0.31249   0.60951   0.22604   0.00000  Uiso   1.00
H351   H     0.58690   0.72649   0.45499   0.00000  Uiso   1.00
H352   H     0.33110   0.34441   0.50419   0.00000  Uiso   1.00
H353   H     0.33187   0.68476   0.57730   0.00000  Uiso   1.00
H354   H     0.28324   0.54393   0.50253   0.00000  Uiso   1.00
H355   H     0.41338   0.59939   0.61111   0.00000  Uiso   1.00
H356   H     0.29207   0.89243   0.63444   0.00000  Uiso   1.00
H357   H     0.24028   0.41695   0.39415   0.00000  Uiso   1.00
H358   H     0.51469   0.53394   0.62311   0.00000  Uiso   1.00
H359   H     0.25889   0.15185   0.67231   0.00000  Uiso   1.00
O360   O     0.24593   0.42461   0.25736   0.00000  Uiso   1.00
O361   O     0.60594   0.57812   0.55775   0.00000  Uiso   1.00
O362   O     0.27034   0.38881   0.62230   0.00000  Uiso   1.00
N363   N     0.30217   0.58353   0.27586   0.00000  Uiso   1.00
N364   N     0.55872   0.69289   0.48992   0.00000  Uiso   1.00
N365   N     0.31958   0.27060   0.53593   0.00000  Uiso   1.00
N366   N     0.26331   0.47992   0.36632   0.00000  Uiso   1.00
N367   N     0.51986   0.58927   0.58038   0.00000  Uiso   1.00
N368   N     0.28073   0.16699   0.62639   0.00000  Uiso   1.00
