data_job_01955
_audit_creation_date              2018-12-19
_audit_creation_method            'Materials Studio'
_symmetry_space_group_name_H-M    'P1'
_symmetry_Int_Tables_number       1
_symmetry_cell_setting            triclinic
loop_
_symmetry_equiv_pos_as_xyz
  x,y,z
_cell_length_a                    22.0616
_cell_length_b                    16.7236
_cell_length_c                    13.5423
_cell_angle_alpha                 90.0000
_cell_angle_beta                  90.0000
_cell_angle_gamma                 90.0000
loop_
_atom_site_label
_atom_site_type_symbol
_atom_site_fract_x
_atom_site_fract_y
_atom_site_fract_z
_atom_site_U_iso_or_equiv
_atom_site_adp_type
_atom_site_occupancy
C1     C     0.85485   0.47223   0.16708   0.00000  Uiso   1.00
C2     C     0.80053   0.43565   0.11410   0.00000  Uiso   1.00
C3     C     0.79178   0.43380   0.01265   0.00000  Uiso   1.00
C4     C     0.73911   0.39761   0.97871   0.00000  Uiso   1.00
C5     C     0.66118   0.34589   0.88652   0.00000  Uiso   1.00
C6     C     0.82900   0.53357   0.23896   0.00000  Uiso   1.00
C7     C     0.84420   0.61405   0.24249   0.00000  Uiso   1.00
C8     C     0.81551   0.66028   0.31368   0.00000  Uiso   1.00
C9     C     0.78182   0.76057   0.41539   0.00000  Uiso   1.00
C10    C     0.88160   0.40566   0.23052   0.00000  Uiso   1.00
C11    C     0.94102   0.37860   0.22697   0.00000  Uiso   1.00
C12    C     0.95662   0.31715   0.29107   0.00000  Uiso   1.00
C13    C     0.00459   0.21885   0.37966   0.00000  Uiso   1.00
C14    C     0.77688   0.41123   0.28723   0.00000  Uiso   1.00
C15    C     0.75817   0.40252   0.17936   0.00000  Uiso   1.00
C16    C     0.70551   0.36632   0.14558   0.00000  Uiso   1.00
C17    C     0.69668   0.36441   0.04409   0.00000  Uiso   1.00
C18    C     0.78665   0.50044   0.30422   0.00000  Uiso   1.00
C19    C     0.75793   0.54656   0.37543   0.00000  Uiso   1.00
C20    C     0.77308   0.62709   0.37906   0.00000  Uiso   1.00
C21    C     0.83924   0.37253   0.29578   0.00000  Uiso   1.00
C22    C     0.85475   0.31111   0.35990   0.00000  Uiso   1.00
C23    C     0.91419   0.28396   0.35645   0.00000  Uiso   1.00
H24    H     0.88783   0.49802   0.11628   0.00000  Uiso   1.00
H25    H     0.82457   0.45946   0.96216   0.00000  Uiso   1.00
H26    H     0.87699   0.63967   0.19199   0.00000  Uiso   1.00
H27    H     0.97379   0.40426   0.17646   0.00000  Uiso   1.00
H28    H     0.73574   0.40211   0.82009   0.00000  Uiso   1.00
H29    H     0.84628   0.78209   0.30470   0.00000  Uiso   1.00
H30    H     0.05041   0.28569   0.27196   0.00000  Uiso   1.00
H31    H     0.74390   0.38543   0.33804   0.00000  Uiso   1.00
H32    H     0.67274   0.34068   0.19610   0.00000  Uiso   1.00
H33    H     0.72516   0.52090   0.42592   0.00000  Uiso   1.00
H34    H     0.82196   0.28549   0.41039   0.00000  Uiso   1.00
H35    H     0.61251   0.30572   0.00995   0.00000  Uiso   1.00
H36    H     0.72305   0.68570   0.49457   0.00000  Uiso   1.00
H37    H     0.92718   0.18929   0.46183   0.00000  Uiso   1.00
O38    O     0.62990   0.32653   0.81765   0.00000  Uiso   1.00
O39    O     0.77494   0.82505   0.45345   0.00000  Uiso   1.00
O40    O     0.04275   0.17377   0.41049   0.00000  Uiso   1.00
N41    N     0.71651   0.38555   0.88425   0.00000  Uiso   1.00
N42    N     0.81985   0.74082   0.33733   0.00000  Uiso   1.00
N43    N     0.01070   0.27673   0.30674   0.00000  Uiso   1.00
N44    N     0.65020   0.33368   0.98642   0.00000  Uiso   1.00
N45    N     0.75354   0.68894   0.43949   0.00000  Uiso   1.00
N46    N     0.94439   0.22486   0.40890   0.00000  Uiso   1.00
C47    C     0.37929   0.88111   0.13880   0.00000  Uiso   1.00
C48    C     0.31553   0.85406   0.11094   0.00000  Uiso   1.00
C49    C     0.29274   0.84854   0.01567   0.00000  Uiso   1.00
C50    C     0.23328   0.82255   0.00568   0.00000  Uiso   1.00
C51    C     0.13965   0.78359   0.94989   0.00000  Uiso   1.00
C52    C     0.37123   0.95108   0.20980   0.00000  Uiso   1.00
C53    C     0.39528   0.02714   0.19766   0.00000  Uiso   1.00
C54    C     0.38272   0.08282   0.27090   0.00000  Uiso   1.00
C55    C     0.37561   0.19447   0.36863   0.00000  Uiso   1.00
C56    C     0.40652   0.81329   0.19961   0.00000  Uiso   1.00
C57    C     0.46024   0.77350   0.17891   0.00000  Uiso   1.00
C58    C     0.47739   0.71318   0.24359   0.00000  Uiso   1.00
C59    C     0.52506   0.61089   0.32548   0.00000  Uiso   1.00
C60    C     0.31424   0.84477   0.29047   0.00000  Uiso   1.00
C61    C     0.28020   0.83432   0.19332   0.00000  Uiso   1.00
C62    C     0.22076   0.80833   0.18348   0.00000  Uiso   1.00
C63    C     0.19788   0.80278   0.08821   0.00000  Uiso   1.00
C64    C     0.33590   0.93135   0.29218   0.00000  Uiso   1.00
C65    C     0.32331   0.98693   0.36546   0.00000  Uiso   1.00
C66    C     0.34733   0.06305   0.35343   0.00000  Uiso   1.00
C67    C     0.37118   0.79355   0.28199   0.00000  Uiso   1.00
C68    C     0.38826   0.73329   0.34671   0.00000  Uiso   1.00
C69    C     0.44200   0.69341   0.32612   0.00000  Uiso   1.00
H70    H     0.40680   0.89648   0.07467   0.00000  Uiso   1.00
H71    H     0.32009   0.86383   0.95194   0.00000  Uiso   1.00
H72    H     0.42263   0.04239   0.13391   0.00000  Uiso   1.00
H73    H     0.48757   0.78879   0.11515   0.00000  Uiso   1.00
H74    H     0.20838   0.81895   0.85220   0.00000  Uiso   1.00
H75    H     0.42459   0.19545   0.23590   0.00000  Uiso   1.00
H76    H     0.56154   0.66068   0.19637   0.00000  Uiso   1.00
H77    H     0.28673   0.82940   0.35461   0.00000  Uiso   1.00
H78    H     0.19343   0.79306   0.24724   0.00000  Uiso   1.00
H79    H     0.29597   0.97163   0.42921   0.00000  Uiso   1.00
H80    H     0.36091   0.71803   0.41046   0.00000  Uiso   1.00
H81    H     0.10557   0.76152   0.09188   0.00000  Uiso   1.00
H82    H     0.32179   0.13802   0.47558   0.00000  Uiso   1.00
H83    H     0.45873   0.60325   0.43604   0.00000  Uiso   1.00
O84    O     0.09776   0.76757   0.89636   0.00000  Uiso   1.00
O85    O     0.38144   0.26152   0.39977   0.00000  Uiso   1.00
O86    O     0.56110   0.55991   0.34789   0.00000  Uiso   1.00
N87    N     0.19699   0.81041   0.92334   0.00000  Uiso   1.00
N88    N     0.39913   0.16242   0.28207   0.00000  Uiso   1.00
N89    N     0.52717   0.66247   0.24512   0.00000  Uiso   1.00
N90    N     0.14167   0.77950   0.05231   0.00000  Uiso   1.00
N91    N     0.34381   0.13151   0.41104   0.00000  Uiso   1.00
N92    N     0.47185   0.63156   0.37409   0.00000  Uiso   1.00
C93    C     0.14515   0.52777   0.16708   0.00000  Uiso   1.00
C94    C     0.19947   0.56435   0.11410   0.00000  Uiso   1.00
C95    C     0.20822   0.56620   0.01265   0.00000  Uiso   1.00
C96    C     0.26089   0.60239   0.97871   0.00000  Uiso   1.00
C97    C     0.33882   0.65411   0.88652   0.00000  Uiso   1.00
C98    C     0.17100   0.46643   0.23896   0.00000  Uiso   1.00
C99    C     0.15580   0.38595   0.24249   0.00000  Uiso   1.00
C100   C     0.18449   0.33972   0.31368   0.00000  Uiso   1.00
C101   C     0.21818   0.23943   0.41539   0.00000  Uiso   1.00
C102   C     0.11840   0.59434   0.23052   0.00000  Uiso   1.00
C103   C     0.05898   0.62140   0.22697   0.00000  Uiso   1.00
C104   C     0.04338   0.68285   0.29107   0.00000  Uiso   1.00
C105   C     0.99541   0.78115   0.37966   0.00000  Uiso   1.00
C106   C     0.22312   0.58877   0.28723   0.00000  Uiso   1.00
C107   C     0.24183   0.59748   0.17936   0.00000  Uiso   1.00
C108   C     0.29449   0.63368   0.14558   0.00000  Uiso   1.00
C109   C     0.30332   0.63559   0.04409   0.00000  Uiso   1.00
C110   C     0.21335   0.49956   0.30422   0.00000  Uiso   1.00
C111   C     0.24207   0.45344   0.37543   0.00000  Uiso   1.00
C112   C     0.22692   0.37291   0.37906   0.00000  Uiso   1.00
C113   C     0.16076   0.62747   0.29578   0.00000  Uiso   1.00
C114   C     0.14525   0.68889   0.35990   0.00000  Uiso   1.00
C115   C     0.08581   0.71604   0.35645   0.00000  Uiso   1.00
H116   H     0.11217   0.50198   0.11628   0.00000  Uiso   1.00
H117   H     0.17543   0.54054   0.96216   0.00000  Uiso   1.00
H118   H     0.12301   0.36033   0.19199   0.00000  Uiso   1.00
H119   H     0.02621   0.59574   0.17646   0.00000  Uiso   1.00
H120   H     0.26426   0.59789   0.82009   0.00000  Uiso   1.00
H121   H     0.15372   0.21791   0.30470   0.00000  Uiso   1.00
H122   H     0.94959   0.71431   0.27196   0.00000  Uiso   1.00
H123   H     0.25610   0.61457   0.33804   0.00000  Uiso   1.00
H124   H     0.32726   0.65932   0.19610   0.00000  Uiso   1.00
H125   H     0.27484   0.47910   0.42592   0.00000  Uiso   1.00
H126   H     0.17804   0.71451   0.41039   0.00000  Uiso   1.00
H127   H     0.38749   0.69428   0.00995   0.00000  Uiso   1.00
H128   H     0.27695   0.31430   0.49457   0.00000  Uiso   1.00
H129   H     0.07282   0.81071   0.46183   0.00000  Uiso   1.00
O130   O     0.37010   0.67347   0.81765   0.00000  Uiso   1.00
O131   O     0.22506   0.17495   0.45345   0.00000  Uiso   1.00
O132   O     0.95725   0.82623   0.41049   0.00000  Uiso   1.00
N133   N     0.28349   0.61445   0.88425   0.00000  Uiso   1.00
N134   N     0.18015   0.25918   0.33733   0.00000  Uiso   1.00
N135   N     0.98930   0.72327   0.30674   0.00000  Uiso   1.00
N136   N     0.34980   0.66632   0.98642   0.00000  Uiso   1.00
N137   N     0.24646   0.31106   0.43949   0.00000  Uiso   1.00
N138   N     0.05561   0.77514   0.40890   0.00000  Uiso   1.00
C139   C     0.62071   0.11889   0.13880   0.00000  Uiso   1.00
C140   C     0.68447   0.14594   0.11094   0.00000  Uiso   1.00
C141   C     0.70726   0.15146   0.01567   0.00000  Uiso   1.00
C142   C     0.76672   0.17745   0.00568   0.00000  Uiso   1.00
C143   C     0.86035   0.21641   0.94989   0.00000  Uiso   1.00
C144   C     0.62877   0.04892   0.20980   0.00000  Uiso   1.00
C145   C     0.60472   0.97286   0.19766   0.00000  Uiso   1.00
C146   C     0.61728   0.91718   0.27090   0.00000  Uiso   1.00
C147   C     0.62439   0.80553   0.36863   0.00000  Uiso   1.00
C148   C     0.59348   0.18671   0.19961   0.00000  Uiso   1.00
C149   C     0.53976   0.22650   0.17891   0.00000  Uiso   1.00
C150   C     0.52261   0.28682   0.24359   0.00000  Uiso   1.00
C151   C     0.47494   0.38911   0.32548   0.00000  Uiso   1.00
C152   C     0.68576   0.15523   0.29047   0.00000  Uiso   1.00
C153   C     0.71980   0.16568   0.19332   0.00000  Uiso   1.00
C154   C     0.77924   0.19167   0.18348   0.00000  Uiso   1.00
C155   C     0.80212   0.19722   0.08821   0.00000  Uiso   1.00
C156   C     0.66410   0.06865   0.29218   0.00000  Uiso   1.00
C157   C     0.67669   0.01307   0.36546   0.00000  Uiso   1.00
C158   C     0.65267   0.93695   0.35343   0.00000  Uiso   1.00
C159   C     0.62882   0.20645   0.28199   0.00000  Uiso   1.00
C160   C     0.61174   0.26671   0.34671   0.00000  Uiso   1.00
C161   C     0.55800   0.30659   0.32612   0.00000  Uiso   1.00
H162   H     0.59320   0.10352   0.07467   0.00000  Uiso   1.00
H163   H     0.67991   0.13617   0.95194   0.00000  Uiso   1.00
H164   H     0.57737   0.95761   0.13391   0.00000  Uiso   1.00
H165   H     0.51243   0.21121   0.11515   0.00000  Uiso   1.00
H166   H     0.79162   0.18105   0.85220   0.00000  Uiso   1.00
H167   H     0.57541   0.80455   0.23590   0.00000  Uiso   1.00
H168   H     0.43846   0.33932   0.19637   0.00000  Uiso   1.00
H169   H     0.71327   0.17060   0.35461   0.00000  Uiso   1.00
H170   H     0.80657   0.20694   0.24724   0.00000  Uiso   1.00
H171   H     0.70403   0.02837   0.42921   0.00000  Uiso   1.00
H172   H     0.63909   0.28197   0.41046   0.00000  Uiso   1.00
H173   H     0.89443   0.23848   0.09188   0.00000  Uiso   1.00
H174   H     0.67821   0.86198   0.47558   0.00000  Uiso   1.00
H175   H     0.54127   0.39675   0.43604   0.00000  Uiso   1.00
O176   O     0.90224   0.23243   0.89636   0.00000  Uiso   1.00
O177   O     0.61856   0.73848   0.39977   0.00000  Uiso   1.00
O178   O     0.43890   0.44009   0.34789   0.00000  Uiso   1.00
N179   N     0.80301   0.18959   0.92334   0.00000  Uiso   1.00
N180   N     0.60087   0.83758   0.28207   0.00000  Uiso   1.00
N181   N     0.47283   0.33753   0.24512   0.00000  Uiso   1.00
N182   N     0.85833   0.22050   0.05231   0.00000  Uiso   1.00
N183   N     0.65619   0.86849   0.41104   0.00000  Uiso   1.00
N184   N     0.52815   0.36844   0.37409   0.00000  Uiso   1.00
C185   C     0.64515   0.97223   0.83292   0.00000  Uiso   1.00
C186   C     0.69947   0.93565   0.88590   0.00000  Uiso   1.00
C187   C     0.70822   0.93380   0.98735   0.00000  Uiso   1.00
C188   C     0.76089   0.89761   0.02129   0.00000  Uiso   1.00
C189   C     0.83882   0.84589   0.11348   0.00000  Uiso   1.00
C190   C     0.67100   0.03357   0.76104   0.00000  Uiso   1.00
C191   C     0.65580   0.11405   0.75751   0.00000  Uiso   1.00
C192   C     0.68449   0.16028   0.68632   0.00000  Uiso   1.00
C193   C     0.71818   0.26057   0.58461   0.00000  Uiso   1.00
C194   C     0.61840   0.90566   0.76948   0.00000  Uiso   1.00
C195   C     0.55898   0.87860   0.77303   0.00000  Uiso   1.00
C196   C     0.54338   0.81715   0.70893   0.00000  Uiso   1.00
C197   C     0.49541   0.71885   0.62034   0.00000  Uiso   1.00
C198   C     0.72312   0.91123   0.71277   0.00000  Uiso   1.00
C199   C     0.74183   0.90252   0.82064   0.00000  Uiso   1.00
C200   C     0.79449   0.86632   0.85442   0.00000  Uiso   1.00
C201   C     0.80332   0.86441   0.95591   0.00000  Uiso   1.00
C202   C     0.71335   0.00044   0.69578   0.00000  Uiso   1.00
C203   C     0.74207   0.04656   0.62457   0.00000  Uiso   1.00
C204   C     0.72692   0.12709   0.62094   0.00000  Uiso   1.00
C205   C     0.66076   0.87253   0.70422   0.00000  Uiso   1.00
C206   C     0.64525   0.81111   0.64010   0.00000  Uiso   1.00
C207   C     0.58581   0.78396   0.64355   0.00000  Uiso   1.00
H208   H     0.61217   0.99802   0.88372   0.00000  Uiso   1.00
H209   H     0.67543   0.95946   0.03784   0.00000  Uiso   1.00
H210   H     0.62301   0.13967   0.80801   0.00000  Uiso   1.00
H211   H     0.52621   0.90426   0.82354   0.00000  Uiso   1.00
H212   H     0.76426   0.90211   0.17991   0.00000  Uiso   1.00
H213   H     0.65372   0.28209   0.69530   0.00000  Uiso   1.00
H214   H     0.44959   0.78569   0.72804   0.00000  Uiso   1.00
H215   H     0.75610   0.88543   0.66196   0.00000  Uiso   1.00
H216   H     0.82726   0.84068   0.80390   0.00000  Uiso   1.00
H217   H     0.77484   0.02090   0.57408   0.00000  Uiso   1.00
H218   H     0.67804   0.78549   0.58961   0.00000  Uiso   1.00
H219   H     0.88749   0.80572   0.99005   0.00000  Uiso   1.00
H220   H     0.77695   0.18570   0.50543   0.00000  Uiso   1.00
H221   H     0.57282   0.68929   0.53817   0.00000  Uiso   1.00
O222   O     0.87010   0.82653   0.18235   0.00000  Uiso   1.00
O223   O     0.72506   0.32505   0.54655   0.00000  Uiso   1.00
O224   O     0.45725   0.67377   0.58951   0.00000  Uiso   1.00
N225   N     0.78349   0.88555   0.11575   0.00000  Uiso   1.00
N226   N     0.68015   0.24082   0.66267   0.00000  Uiso   1.00
N227   N     0.48930   0.77673   0.69326   0.00000  Uiso   1.00
N228   N     0.84980   0.83368   0.01358   0.00000  Uiso   1.00
N229   N     0.74646   0.18894   0.56051   0.00000  Uiso   1.00
N230   N     0.55561   0.72486   0.59110   0.00000  Uiso   1.00
C231   C     0.12071   0.38111   0.86120   0.00000  Uiso   1.00
C232   C     0.18447   0.35406   0.88906   0.00000  Uiso   1.00
C233   C     0.20726   0.34854   0.98433   0.00000  Uiso   1.00
C234   C     0.26672   0.32255   0.99432   0.00000  Uiso   1.00
C235   C     0.36035   0.28359   0.05011   0.00000  Uiso   1.00
C236   C     0.12877   0.45108   0.79020   0.00000  Uiso   1.00
C237   C     0.10472   0.52714   0.80234   0.00000  Uiso   1.00
C238   C     0.11728   0.58282   0.72910   0.00000  Uiso   1.00
C239   C     0.12439   0.69447   0.63137   0.00000  Uiso   1.00
C240   C     0.09348   0.31329   0.80039   0.00000  Uiso   1.00
C241   C     0.03976   0.27350   0.82109   0.00000  Uiso   1.00
C242   C     0.02261   0.21318   0.75641   0.00000  Uiso   1.00
C243   C     0.97494   0.11089   0.67452   0.00000  Uiso   1.00
C244   C     0.18576   0.34477   0.70953   0.00000  Uiso   1.00
C245   C     0.21980   0.33432   0.80668   0.00000  Uiso   1.00
C246   C     0.27924   0.30833   0.81652   0.00000  Uiso   1.00
C247   C     0.30212   0.30278   0.91179   0.00000  Uiso   1.00
C248   C     0.16410   0.43135   0.70782   0.00000  Uiso   1.00
C249   C     0.17669   0.48693   0.63454   0.00000  Uiso   1.00
C250   C     0.15267   0.56305   0.64657   0.00000  Uiso   1.00
C251   C     0.12882   0.29355   0.71801   0.00000  Uiso   1.00
C252   C     0.11174   0.23329   0.65329   0.00000  Uiso   1.00
C253   C     0.05800   0.19341   0.67388   0.00000  Uiso   1.00
H254   H     0.09320   0.39648   0.92533   0.00000  Uiso   1.00
H255   H     0.17991   0.36383   0.04806   0.00000  Uiso   1.00
H256   H     0.07737   0.54239   0.86609   0.00000  Uiso   1.00
H257   H     0.01243   0.28879   0.88485   0.00000  Uiso   1.00
H258   H     0.29162   0.31895   0.14780   0.00000  Uiso   1.00
H259   H     0.07541   0.69545   0.76410   0.00000  Uiso   1.00
H260   H     0.93846   0.16068   0.80363   0.00000  Uiso   1.00
H261   H     0.21327   0.32940   0.64539   0.00000  Uiso   1.00
H262   H     0.30657   0.29306   0.75276   0.00000  Uiso   1.00
H263   H     0.20403   0.47163   0.57079   0.00000  Uiso   1.00
H264   H     0.13909   0.21803   0.58954   0.00000  Uiso   1.00
H265   H     0.39443   0.26152   0.90812   0.00000  Uiso   1.00
H266   H     0.17821   0.63802   0.52442   0.00000  Uiso   1.00
H267   H     0.04127   0.10325   0.56396   0.00000  Uiso   1.00
O268   O     0.40224   0.26757   0.10364   0.00000  Uiso   1.00
O269   O     0.11856   0.76152   0.60023   0.00000  Uiso   1.00
O270   O     0.93890   0.05991   0.65211   0.00000  Uiso   1.00
N271   N     0.30301   0.31041   0.07666   0.00000  Uiso   1.00
N272   N     0.10087   0.66242   0.71793   0.00000  Uiso   1.00
N273   N     0.97283   0.16247   0.75488   0.00000  Uiso   1.00
N274   N     0.35833   0.27950   0.94769   0.00000  Uiso   1.00
N275   N     0.15619   0.63151   0.58896   0.00000  Uiso   1.00
N276   N     0.02815   0.13156   0.62591   0.00000  Uiso   1.00
C277   C     0.35485   0.02777   0.83292   0.00000  Uiso   1.00
C278   C     0.30053   0.06435   0.88590   0.00000  Uiso   1.00
C279   C     0.29178   0.06620   0.98735   0.00000  Uiso   1.00
C280   C     0.23911   0.10239   0.02129   0.00000  Uiso   1.00
C281   C     0.16118   0.15411   0.11348   0.00000  Uiso   1.00
C282   C     0.32900   0.96643   0.76104   0.00000  Uiso   1.00
C283   C     0.34420   0.88595   0.75751   0.00000  Uiso   1.00
C284   C     0.31551   0.83972   0.68632   0.00000  Uiso   1.00
C285   C     0.28182   0.73943   0.58461   0.00000  Uiso   1.00
C286   C     0.38160   0.09434   0.76948   0.00000  Uiso   1.00
C287   C     0.44102   0.12140   0.77303   0.00000  Uiso   1.00
C288   C     0.45662   0.18285   0.70893   0.00000  Uiso   1.00
C289   C     0.50459   0.28115   0.62034   0.00000  Uiso   1.00
C290   C     0.27688   0.08877   0.71277   0.00000  Uiso   1.00
C291   C     0.25817   0.09748   0.82064   0.00000  Uiso   1.00
C292   C     0.20551   0.13368   0.85442   0.00000  Uiso   1.00
C293   C     0.19668   0.13559   0.95591   0.00000  Uiso   1.00
C294   C     0.28665   0.99956   0.69578   0.00000  Uiso   1.00
C295   C     0.25793   0.95344   0.62457   0.00000  Uiso   1.00
C296   C     0.27308   0.87291   0.62094   0.00000  Uiso   1.00
C297   C     0.33924   0.12747   0.70422   0.00000  Uiso   1.00
C298   C     0.35475   0.18889   0.64010   0.00000  Uiso   1.00
C299   C     0.41419   0.21604   0.64355   0.00000  Uiso   1.00
H300   H     0.38783   0.00198   0.88372   0.00000  Uiso   1.00
H301   H     0.32457   0.04054   0.03784   0.00000  Uiso   1.00
H302   H     0.37699   0.86033   0.80801   0.00000  Uiso   1.00
H303   H     0.47379   0.09574   0.82354   0.00000  Uiso   1.00
H304   H     0.23574   0.09789   0.17991   0.00000  Uiso   1.00
H305   H     0.34628   0.71791   0.69530   0.00000  Uiso   1.00
H306   H     0.55041   0.21431   0.72804   0.00000  Uiso   1.00
H307   H     0.24390   0.11457   0.66196   0.00000  Uiso   1.00
H308   H     0.17274   0.15932   0.80390   0.00000  Uiso   1.00
H309   H     0.22516   0.97910   0.57408   0.00000  Uiso   1.00
H310   H     0.32196   0.21451   0.58961   0.00000  Uiso   1.00
H311   H     0.11251   0.19428   0.99005   0.00000  Uiso   1.00
H312   H     0.22305   0.81430   0.50543   0.00000  Uiso   1.00
H313   H     0.42718   0.31071   0.53817   0.00000  Uiso   1.00
O314   O     0.12990   0.17347   0.18235   0.00000  Uiso   1.00
O315   O     0.27494   0.67495   0.54655   0.00000  Uiso   1.00
O316   O     0.54275   0.32623   0.58951   0.00000  Uiso   1.00
N317   N     0.21651   0.11445   0.11575   0.00000  Uiso   1.00
N318   N     0.31985   0.75918   0.66267   0.00000  Uiso   1.00
N319   N     0.51070   0.22327   0.69326   0.00000  Uiso   1.00
N320   N     0.15020   0.16632   0.01358   0.00000  Uiso   1.00
N321   N     0.25354   0.81106   0.56051   0.00000  Uiso   1.00
N322   N     0.44439   0.27514   0.59110   0.00000  Uiso   1.00
C323   C     0.87929   0.61889   0.86120   0.00000  Uiso   1.00
C324   C     0.81553   0.64594   0.88906   0.00000  Uiso   1.00
C325   C     0.79274   0.65146   0.98433   0.00000  Uiso   1.00
C326   C     0.73328   0.67745   0.99432   0.00000  Uiso   1.00
C327   C     0.63965   0.71641   0.05011   0.00000  Uiso   1.00
C328   C     0.87123   0.54892   0.79020   0.00000  Uiso   1.00
C329   C     0.89528   0.47286   0.80234   0.00000  Uiso   1.00
C330   C     0.88272   0.41718   0.72910   0.00000  Uiso   1.00
C331   C     0.87561   0.30553   0.63137   0.00000  Uiso   1.00
C332   C     0.90652   0.68671   0.80039   0.00000  Uiso   1.00
C333   C     0.96024   0.72650   0.82109   0.00000  Uiso   1.00
C334   C     0.97739   0.78682   0.75641   0.00000  Uiso   1.00
C335   C     0.02506   0.88911   0.67452   0.00000  Uiso   1.00
C336   C     0.81424   0.65523   0.70953   0.00000  Uiso   1.00
C337   C     0.78020   0.66568   0.80668   0.00000  Uiso   1.00
C338   C     0.72076   0.69167   0.81652   0.00000  Uiso   1.00
C339   C     0.69788   0.69722   0.91179   0.00000  Uiso   1.00
C340   C     0.83590   0.56865   0.70782   0.00000  Uiso   1.00
C341   C     0.82331   0.51307   0.63454   0.00000  Uiso   1.00
C342   C     0.84733   0.43695   0.64657   0.00000  Uiso   1.00
C343   C     0.87118   0.70645   0.71801   0.00000  Uiso   1.00
C344   C     0.88826   0.76671   0.65329   0.00000  Uiso   1.00
C345   C     0.94200   0.80659   0.67388   0.00000  Uiso   1.00
H346   H     0.90680   0.60352   0.92533   0.00000  Uiso   1.00
H347   H     0.82009   0.63617   0.04806   0.00000  Uiso   1.00
H348   H     0.92263   0.45761   0.86609   0.00000  Uiso   1.00
H349   H     0.98757   0.71121   0.88485   0.00000  Uiso   1.00
H350   H     0.70838   0.68105   0.14780   0.00000  Uiso   1.00
H351   H     0.92459   0.30455   0.76410   0.00000  Uiso   1.00
H352   H     0.06154   0.83932   0.80363   0.00000  Uiso   1.00
H353   H     0.78673   0.67060   0.64539   0.00000  Uiso   1.00
H354   H     0.69343   0.70694   0.75276   0.00000  Uiso   1.00
H355   H     0.79597   0.52837   0.57079   0.00000  Uiso   1.00
H356   H     0.86091   0.78197   0.58954   0.00000  Uiso   1.00
H357   H     0.60557   0.73848   0.90812   0.00000  Uiso   1.00
H358   H     0.82179   0.36198   0.52442   0.00000  Uiso   1.00
H359   H     0.95873   0.89675   0.56396   0.00000  Uiso   1.00
O360   O     0.59776   0.73243   0.10364   0.00000  Uiso   1.00
O361   O     0.88144   0.23848   0.60023   0.00000  Uiso   1.00
O362   O     0.06110   0.94009   0.65211   0.00000  Uiso   1.00
N363   N     0.69699   0.68959   0.07666   0.00000  Uiso   1.00
N364   N     0.89913   0.33758   0.71793   0.00000  Uiso   1.00
N365   N     0.02717   0.83753   0.75488   0.00000  Uiso   1.00
N366   N     0.64167   0.72050   0.94769   0.00000  Uiso   1.00
N367   N     0.84381   0.36849   0.58896   0.00000  Uiso   1.00
N368   N     0.97185   0.86844   0.62591   0.00000  Uiso   1.00
