data_job_04016
_audit_creation_date              2018-12-19
_audit_creation_method            'Materials Studio'
_symmetry_space_group_name_H-M    'P1'
_symmetry_Int_Tables_number       1
_symmetry_cell_setting            triclinic
loop_
_symmetry_equiv_pos_as_xyz
  x,y,z
_cell_length_a                    21.8799
_cell_length_b                    10.1326
_cell_length_c                    17.9443
_cell_angle_alpha                 90.0000
_cell_angle_beta                  139.9553
_cell_angle_gamma                 90.0000
loop_
_atom_site_label
_atom_site_type_symbol
_atom_site_fract_x
_atom_site_fract_y
_atom_site_fract_z
_atom_site_U_iso_or_equiv
_atom_site_adp_type
_atom_site_occupancy
C1     C     0.19512   0.42176   0.68832   0.00000  Uiso   1.00
C2     C     0.25505   0.34328   0.68907   0.00000  Uiso   1.00
C3     C     0.23932   0.33478   0.59818   0.00000  Uiso   1.00
C4     C     0.30216   0.25791   0.61596   0.00000  Uiso   1.00
C5     C     0.38366   0.14602   0.60113   0.00000  Uiso   1.00
C6     C     0.16250   0.32332   0.71685   0.00000  Uiso   1.00
C7     C     0.06895   0.29805   0.64932   0.00000  Uiso   1.00
C8     C     0.05389   0.20439   0.69050   0.00000  Uiso   1.00
C9     C     0.99171   0.06158   0.71884   0.00000  Uiso   1.00
C10    C     0.26345   0.51548   0.79144   0.00000  Uiso   1.00
C11    C     0.25477   0.65179   0.78664   0.00000  Uiso   1.00
C12    C     0.32469   0.71992   0.89062   0.00000  Uiso   1.00
C13    C     0.41925   0.87548   0.03477   0.00000  Uiso   1.00
C14    C     0.33471   0.30037   0.88151   0.00000  Uiso   1.00
C15    C     0.33087   0.27734   0.79400   0.00000  Uiso   1.00
C16    C     0.39376   0.20047   0.81192   0.00000  Uiso   1.00
C17    C     0.37812   0.19186   0.72108   0.00000  Uiso   1.00
C18    C     0.23832   0.25738   0.82177   0.00000  Uiso   1.00
C19    C     0.22340   0.16374   0.86306   0.00000  Uiso   1.00
C20    C     0.12985   0.13833   0.79562   0.00000  Uiso   1.00
C21    C     0.33928   0.44955   0.89637   0.00000  Uiso   1.00
C22    C     0.40922   0.51748   0.00038   0.00000  Uiso   1.00
C23    C     0.40065   0.65387   0.99574   0.00000  Uiso   1.00
H24    H     0.13608   0.47309   0.60663   0.00000  Uiso   1.00
H25    H     0.18062   0.38581   0.51699   0.00000  Uiso   1.00
H26    H     0.01029   0.34910   0.56813   0.00000  Uiso   1.00
H27    H     0.19609   0.70278   0.70542   0.00000  Uiso   1.00
H28    H     0.26342   0.25992   0.46386   0.00000  Uiso   1.00
H29    H     0.90427   0.18255   0.57172   0.00000  Uiso   1.00
H30    H     0.29605   0.92836   0.86123   0.00000  Uiso   1.00
H31    H     0.39374   0.24903   0.96321   0.00000  Uiso   1.00
H32    H     0.45243   0.14946   0.89313   0.00000  Uiso   1.00
H33    H     0.28209   0.11274   0.94427   0.00000  Uiso   1.00
H34    H     0.46789   0.46643   0.08156   0.00000  Uiso   1.00
H35    H     0.48403   0.06809   0.76915   0.00000  Uiso   1.00
H36    H     0.12487   0.99072   0.87701   0.00000  Uiso   1.00
H37    H     0.51665   0.73653   0.16652   0.00000  Uiso   1.00
O38    O     0.40766   0.10251   0.56396   0.00000  Uiso   1.00
O39    O     0.93646   0.00102   0.70547   0.00000  Uiso   1.00
O40    O     0.45047   0.97950   0.08530   0.00000  Uiso   1.00
N41    N     0.30730   0.22846   0.54534   0.00000  Uiso   1.00
N42    N     0.97151   0.15611   0.64617   0.00000  Uiso   1.00
N43    N     0.33778   0.85338   0.91684   0.00000  Uiso   1.00
N44    N     0.42601   0.12524   0.70961   0.00000  Uiso   1.00
N45    N     0.09022   0.05288   0.81044   0.00000  Uiso   1.00
N46    N     0.45648   0.75015   0.08111   0.00000  Uiso   1.00
C47    C     0.69512   0.92176   0.68832   0.00000  Uiso   1.00
C48    C     0.75505   0.84328   0.68907   0.00000  Uiso   1.00
C49    C     0.73932   0.83478   0.59818   0.00000  Uiso   1.00
C50    C     0.80216   0.75791   0.61596   0.00000  Uiso   1.00
C51    C     0.88366   0.64602   0.60113   0.00000  Uiso   1.00
C52    C     0.66250   0.82332   0.71685   0.00000  Uiso   1.00
C53    C     0.56895   0.79805   0.64932   0.00000  Uiso   1.00
C54    C     0.55389   0.70439   0.69050   0.00000  Uiso   1.00
C55    C     0.49171   0.56158   0.71884   0.00000  Uiso   1.00
C56    C     0.76345   0.01548   0.79144   0.00000  Uiso   1.00
C57    C     0.75477   0.15179   0.78664   0.00000  Uiso   1.00
C58    C     0.82469   0.21992   0.89062   0.00000  Uiso   1.00
C59    C     0.91925   0.37548   0.03477   0.00000  Uiso   1.00
C60    C     0.83471   0.80037   0.88151   0.00000  Uiso   1.00
C61    C     0.83087   0.77734   0.79400   0.00000  Uiso   1.00
C62    C     0.89376   0.70047   0.81192   0.00000  Uiso   1.00
C63    C     0.87812   0.69186   0.72108   0.00000  Uiso   1.00
C64    C     0.73832   0.75738   0.82177   0.00000  Uiso   1.00
C65    C     0.72340   0.66374   0.86306   0.00000  Uiso   1.00
C66    C     0.62985   0.63833   0.79562   0.00000  Uiso   1.00
C67    C     0.83928   0.94955   0.89637   0.00000  Uiso   1.00
C68    C     0.90922   0.01748   0.00038   0.00000  Uiso   1.00
C69    C     0.90065   0.15387   0.99574   0.00000  Uiso   1.00
H70    H     0.63608   0.97309   0.60663   0.00000  Uiso   1.00
H71    H     0.68062   0.88581   0.51699   0.00000  Uiso   1.00
H72    H     0.51029   0.84910   0.56813   0.00000  Uiso   1.00
H73    H     0.69609   0.20278   0.70542   0.00000  Uiso   1.00
H74    H     0.76342   0.75992   0.46386   0.00000  Uiso   1.00
H75    H     0.40427   0.68255   0.57172   0.00000  Uiso   1.00
H76    H     0.79605   0.42836   0.86123   0.00000  Uiso   1.00
H77    H     0.89374   0.74903   0.96321   0.00000  Uiso   1.00
H78    H     0.95243   0.64946   0.89313   0.00000  Uiso   1.00
H79    H     0.78209   0.61274   0.94427   0.00000  Uiso   1.00
H80    H     0.96789   0.96643   0.08156   0.00000  Uiso   1.00
H81    H     0.98403   0.56809   0.76915   0.00000  Uiso   1.00
H82    H     0.62487   0.49072   0.87701   0.00000  Uiso   1.00
H83    H     0.01665   0.23653   0.16652   0.00000  Uiso   1.00
O84    O     0.90766   0.60251   0.56396   0.00000  Uiso   1.00
O85    O     0.43646   0.50102   0.70547   0.00000  Uiso   1.00
O86    O     0.95047   0.47950   0.08530   0.00000  Uiso   1.00
N87    N     0.80730   0.72846   0.54534   0.00000  Uiso   1.00
N88    N     0.47151   0.65611   0.64617   0.00000  Uiso   1.00
N89    N     0.83778   0.35338   0.91684   0.00000  Uiso   1.00
N90    N     0.92601   0.62524   0.70961   0.00000  Uiso   1.00
N91    N     0.59022   0.55288   0.81044   0.00000  Uiso   1.00
N92    N     0.95648   0.25015   0.08111   0.00000  Uiso   1.00
C93    C     0.80488   0.42176   0.31168   0.00000  Uiso   1.00
C94    C     0.74495   0.34328   0.31093   0.00000  Uiso   1.00
C95    C     0.76068   0.33478   0.40182   0.00000  Uiso   1.00
C96    C     0.69784   0.25791   0.38404   0.00000  Uiso   1.00
C97    C     0.61634   0.14602   0.39887   0.00000  Uiso   1.00
C98    C     0.83750   0.32332   0.28315   0.00000  Uiso   1.00
C99    C     0.93105   0.29805   0.35068   0.00000  Uiso   1.00
C100   C     0.94611   0.20439   0.30950   0.00000  Uiso   1.00
C101   C     0.00829   0.06158   0.28116   0.00000  Uiso   1.00
C102   C     0.73655   0.51548   0.20856   0.00000  Uiso   1.00
C103   C     0.74523   0.65179   0.21336   0.00000  Uiso   1.00
C104   C     0.67531   0.71992   0.10938   0.00000  Uiso   1.00
C105   C     0.58075   0.87548   0.96523   0.00000  Uiso   1.00
C106   C     0.66529   0.30037   0.11849   0.00000  Uiso   1.00
C107   C     0.66913   0.27734   0.20600   0.00000  Uiso   1.00
C108   C     0.60624   0.20047   0.18808   0.00000  Uiso   1.00
C109   C     0.62188   0.19186   0.27892   0.00000  Uiso   1.00
C110   C     0.76168   0.25738   0.17823   0.00000  Uiso   1.00
C111   C     0.77660   0.16374   0.13694   0.00000  Uiso   1.00
C112   C     0.87015   0.13833   0.20438   0.00000  Uiso   1.00
C113   C     0.66072   0.44955   0.10363   0.00000  Uiso   1.00
C114   C     0.59078   0.51748   0.99962   0.00000  Uiso   1.00
C115   C     0.59935   0.65387   0.00426   0.00000  Uiso   1.00
H116   H     0.86392   0.47309   0.39337   0.00000  Uiso   1.00
H117   H     0.81938   0.38581   0.48301   0.00000  Uiso   1.00
H118   H     0.98971   0.34910   0.43187   0.00000  Uiso   1.00
H119   H     0.80391   0.70278   0.29458   0.00000  Uiso   1.00
H120   H     0.73658   0.25992   0.53614   0.00000  Uiso   1.00
H121   H     0.09573   0.18255   0.42828   0.00000  Uiso   1.00
H122   H     0.70395   0.92836   0.13877   0.00000  Uiso   1.00
H123   H     0.60626   0.24903   0.03679   0.00000  Uiso   1.00
H124   H     0.54757   0.14946   0.10687   0.00000  Uiso   1.00
H125   H     0.71791   0.11274   0.05573   0.00000  Uiso   1.00
H126   H     0.53211   0.46643   0.91844   0.00000  Uiso   1.00
H127   H     0.51597   0.06809   0.23085   0.00000  Uiso   1.00
H128   H     0.87513   0.99072   0.12299   0.00000  Uiso   1.00
H129   H     0.48335   0.73653   0.83348   0.00000  Uiso   1.00
O130   O     0.59234   0.10251   0.43604   0.00000  Uiso   1.00
O131   O     0.06354   0.00102   0.29453   0.00000  Uiso   1.00
O132   O     0.54953   0.97950   0.91470   0.00000  Uiso   1.00
N133   N     0.69270   0.22846   0.45466   0.00000  Uiso   1.00
N134   N     0.02849   0.15611   0.35383   0.00000  Uiso   1.00
N135   N     0.66222   0.85338   0.08316   0.00000  Uiso   1.00
N136   N     0.57399   0.12524   0.29039   0.00000  Uiso   1.00
N137   N     0.90978   0.05288   0.18956   0.00000  Uiso   1.00
N138   N     0.54352   0.75015   0.91889   0.00000  Uiso   1.00
C139   C     0.30488   0.92176   0.31168   0.00000  Uiso   1.00
C140   C     0.24495   0.84328   0.31093   0.00000  Uiso   1.00
C141   C     0.26068   0.83478   0.40182   0.00000  Uiso   1.00
C142   C     0.19784   0.75791   0.38404   0.00000  Uiso   1.00
C143   C     0.11634   0.64602   0.39887   0.00000  Uiso   1.00
C144   C     0.33750   0.82332   0.28315   0.00000  Uiso   1.00
C145   C     0.43105   0.79805   0.35068   0.00000  Uiso   1.00
C146   C     0.44611   0.70439   0.30950   0.00000  Uiso   1.00
C147   C     0.50829   0.56158   0.28116   0.00000  Uiso   1.00
C148   C     0.23655   0.01548   0.20856   0.00000  Uiso   1.00
C149   C     0.24523   0.15179   0.21336   0.00000  Uiso   1.00
C150   C     0.17531   0.21992   0.10938   0.00000  Uiso   1.00
C151   C     0.08075   0.37548   0.96523   0.00000  Uiso   1.00
C152   C     0.16529   0.80037   0.11849   0.00000  Uiso   1.00
C153   C     0.16913   0.77734   0.20600   0.00000  Uiso   1.00
C154   C     0.10624   0.70047   0.18808   0.00000  Uiso   1.00
C155   C     0.12188   0.69186   0.27892   0.00000  Uiso   1.00
C156   C     0.26168   0.75738   0.17823   0.00000  Uiso   1.00
C157   C     0.27660   0.66374   0.13694   0.00000  Uiso   1.00
C158   C     0.37015   0.63833   0.20438   0.00000  Uiso   1.00
C159   C     0.16072   0.94955   0.10363   0.00000  Uiso   1.00
C160   C     0.09078   0.01748   0.99962   0.00000  Uiso   1.00
C161   C     0.09935   0.15387   0.00426   0.00000  Uiso   1.00
H162   H     0.36392   0.97309   0.39337   0.00000  Uiso   1.00
H163   H     0.31938   0.88581   0.48301   0.00000  Uiso   1.00
H164   H     0.48971   0.84910   0.43187   0.00000  Uiso   1.00
H165   H     0.30391   0.20278   0.29458   0.00000  Uiso   1.00
H166   H     0.23658   0.75992   0.53614   0.00000  Uiso   1.00
H167   H     0.59573   0.68255   0.42828   0.00000  Uiso   1.00
H168   H     0.20395   0.42836   0.13877   0.00000  Uiso   1.00
H169   H     0.10626   0.74903   0.03679   0.00000  Uiso   1.00
H170   H     0.04757   0.64946   0.10687   0.00000  Uiso   1.00
H171   H     0.21791   0.61274   0.05573   0.00000  Uiso   1.00
H172   H     0.03211   0.96643   0.91844   0.00000  Uiso   1.00
H173   H     0.01597   0.56809   0.23085   0.00000  Uiso   1.00
H174   H     0.37513   0.49072   0.12299   0.00000  Uiso   1.00
H175   H     0.98335   0.23653   0.83348   0.00000  Uiso   1.00
O176   O     0.09234   0.60251   0.43604   0.00000  Uiso   1.00
O177   O     0.56354   0.50102   0.29453   0.00000  Uiso   1.00
O178   O     0.04953   0.47950   0.91470   0.00000  Uiso   1.00
N179   N     0.19270   0.72846   0.45466   0.00000  Uiso   1.00
N180   N     0.52849   0.65611   0.35383   0.00000  Uiso   1.00
N181   N     0.16222   0.35338   0.08316   0.00000  Uiso   1.00
N182   N     0.07399   0.62524   0.29039   0.00000  Uiso   1.00
N183   N     0.40978   0.55288   0.18956   0.00000  Uiso   1.00
N184   N     0.04352   0.25015   0.91889   0.00000  Uiso   1.00
