data_job_06606
_audit_creation_date              2018-12-19
_audit_creation_method            'Materials Studio'
_symmetry_space_group_name_H-M    'P1'
_symmetry_Int_Tables_number       1
_symmetry_cell_setting            triclinic
loop_
_symmetry_equiv_pos_as_xyz
  x,y,z
_cell_length_a                    19.0458
_cell_length_b                    21.7400
_cell_length_c                    23.7814
_cell_angle_alpha                 74.6459
_cell_angle_beta                  104.4084
_cell_angle_gamma                 70.9311
loop_
_atom_site_label
_atom_site_type_symbol
_atom_site_fract_x
_atom_site_fract_y
_atom_site_fract_z
_atom_site_U_iso_or_equiv
_atom_site_adp_type
_atom_site_occupancy
C1     C     0.20623   0.14057   0.22630   0.00000  Uiso   1.00
C2     C     0.14559   0.12296   0.18615   0.00000  Uiso   1.00
C3     C     0.10955   0.08082   0.20844   0.00000  Uiso   1.00
C4     C     0.05571   0.07111   0.16413   0.00000  Uiso   1.00
C5     C     0.96419   0.03898   0.11158   0.00000  Uiso   1.00
C6     C     0.27990   0.11768   0.20898   0.00000  Uiso   1.00
C7     C     0.35679   0.07111   0.25047   0.00000  Uiso   1.00
C8     C     0.41601   0.05697   0.22539   0.00000  Uiso   1.00
C9     C     0.53301   0.01668   0.20829   0.00000  Uiso   1.00
C10    C     0.17160   0.22058   0.20268   0.00000  Uiso   1.00
C11    C     0.15744   0.26054   0.23886   0.00000  Uiso   1.00
C12    C     0.12549   0.33304   0.20847   0.00000  Uiso   1.00
C13    C     0.07434   0.45252   0.18158   0.00000  Uiso   1.00
C14    C     0.17469   0.19826   0.10799   0.00000  Uiso   1.00
C15    C     0.12846   0.15430   0.12189   0.00000  Uiso   1.00
C16    C     0.07466   0.14465   0.07754   0.00000  Uiso   1.00
C17    C     0.03855   0.10251   0.09976   0.00000  Uiso   1.00
C18    C     0.26277   0.14902   0.14473   0.00000  Uiso   1.00
C19    C     0.32189   0.13494   0.11958   0.00000  Uiso   1.00
C20    C     0.39885   0.08836   0.16102   0.00000  Uiso   1.00
C21    C     0.15446   0.25192   0.13842   0.00000  Uiso   1.00
C22    C     0.12254   0.32437   0.10797   0.00000  Uiso   1.00
C23    C     0.10833   0.36443   0.14410   0.00000  Uiso   1.00
H24    H     0.21957   0.11617   0.27632   0.00000  Uiso   1.00
H25    H     0.12283   0.05658   0.25817   0.00000  Uiso   1.00
H26    H     0.37003   0.04688   0.30020   0.00000  Uiso   1.00
H27    H     0.17071   0.23627   0.28859   0.00000  Uiso   1.00
H28    H     0.00805   0.00431   0.20970   0.00000  Uiso   1.00
H29    H     0.52928   0.98387   0.29833   0.00000  Uiso   1.00
H30    H     0.10897   0.38325   0.27384   0.00000  Uiso   1.00
H31    H     0.16136   0.22266   0.05796   0.00000  Uiso   1.00
H32    H     0.06141   0.16891   0.02782   0.00000  Uiso   1.00
H33    H     0.30861   0.15921   0.06985   0.00000  Uiso   1.00
H34    H     0.10929   0.34860   0.05824   0.00000  Uiso   1.00
H35    H     0.95820   0.09548   0.02274   0.00000  Uiso   1.00
H36    H     0.47943   0.07504   0.11137   0.00000  Uiso   1.00
H37    H     0.05912   0.47442   0.08688   0.00000  Uiso   1.00
O38    O     0.91845   0.01259   0.10034   0.00000  Uiso   1.00
O39    O     0.60229   0.98580   0.21661   0.00000  Uiso   1.00
O40    O     0.05084   0.50977   0.18449   0.00000  Uiso   1.00
N41    N     0.01002   0.03315   0.16984   0.00000  Uiso   1.00
N42    N     0.49734   0.01404   0.25270   0.00000  Uiso   1.00
N43    N     0.10440   0.38742   0.22981   0.00000  Uiso   1.00
N44    N     0.98319   0.08221   0.06924   0.00000  Uiso   1.00
N45    N     0.47051   0.06310   0.15209   0.00000  Uiso   1.00
N46    N     0.07758   0.43648   0.12921   0.00000  Uiso   1.00
C47    C     0.84180   0.99767   0.54124   0.00000  Uiso   1.00
C48    C     0.91233   0.94448   0.60099   0.00000  Uiso   1.00
C49    C     0.95237   0.96010   0.64867   0.00000  Uiso   1.00
C50    C     0.01536   0.90402   0.69945   0.00000  Uiso   1.00
C51    C     0.12153   0.83197   0.79177   0.00000  Uiso   1.00
C52    C     0.86647   0.98720   0.48697   0.00000  Uiso   1.00
C53    C     0.86795   0.03875   0.43879   0.00000  Uiso   1.00
C54    C     0.89233   0.01863   0.39358   0.00000  Uiso   1.00
C55    C     0.92725   0.01291   0.30886   0.00000  Uiso   1.00
C56    C     0.77448   0.97402   0.53944   0.00000  Uiso   1.00
C57    C     0.69860   0.01448   0.53535   0.00000  Uiso   1.00
C58    C     0.64553   0.98326   0.53430   0.00000  Uiso   1.00
C59    C     0.53762   0.95707   0.53104   0.00000  Uiso   1.00
C60    C     0.88247   0.87028   0.54661   0.00000  Uiso   1.00
C61    C     0.93441   0.87529   0.60390   0.00000  Uiso   1.00
C62    C     0.99736   0.81916   0.65462   0.00000  Uiso   1.00
C63    C     0.03749   0.83470   0.70238   0.00000  Uiso   1.00
C64    C     0.88856   0.91801   0.48989   0.00000  Uiso   1.00
C65    C     0.91294   0.89781   0.44474   0.00000  Uiso   1.00
C66    C     0.91445   0.94931   0.39650   0.00000  Uiso   1.00
C67    C     0.79657   0.90482   0.54236   0.00000  Uiso   1.00
C68    C     0.74360   0.87354   0.54130   0.00000  Uiso   1.00
C69    C     0.66765   0.91395   0.53722   0.00000  Uiso   1.00
H70    H     0.82461   0.05153   0.53896   0.00000  Uiso   1.00
H71    H     0.93527   0.01366   0.64640   0.00000  Uiso   1.00
H72    H     0.85085   0.09229   0.43654   0.00000  Uiso   1.00
H73    H     0.68154   0.06802   0.53309   0.00000  Uiso   1.00
H74    H     0.06771   0.94116   0.76678   0.00000  Uiso   1.00
H75    H     0.88968   0.10696   0.32428   0.00000  Uiso   1.00
H76    H     0.53265   0.05579   0.52788   0.00000  Uiso   1.00
H77    H     0.89966   0.81641   0.54888   0.00000  Uiso   1.00
H78    H     0.01444   0.76563   0.65687   0.00000  Uiso   1.00
H79    H     0.93002   0.84426   0.44701   0.00000  Uiso   1.00
H80    H     0.76071   0.81999   0.54356   0.00000  Uiso   1.00
H81    H     0.13197   0.73984   0.77528   0.00000  Uiso   1.00
H82    H     0.95393   0.90565   0.33277   0.00000  Uiso   1.00
H83    H     0.59691   0.85448   0.53637   0.00000  Uiso   1.00
O84    O     0.17400   0.81134   0.84188   0.00000  Uiso   1.00
O85    O     0.94042   0.02888   0.26132   0.00000  Uiso   1.00
O86    O     0.47201   0.96174   0.52844   0.00000  Uiso   1.00
N87    N     0.06707   0.90074   0.75397   0.00000  Uiso   1.00
N88    N     0.90063   0.05576   0.34026   0.00000  Uiso   1.00
N89    N     0.56683   0.00793   0.53059   0.00000  Uiso   1.00
N90    N     0.10165   0.79242   0.75854   0.00000  Uiso   1.00
N91    N     0.93521   0.94744   0.34483   0.00000  Uiso   1.00
N92    N     0.60141   0.89960   0.53516   0.00000  Uiso   1.00
C93    C     0.54717   0.38444   0.46304   0.00000  Uiso   1.00
C94    C     0.49690   0.46226   0.42257   0.00000  Uiso   1.00
C95    C     0.41466   0.49381   0.39121   0.00000  Uiso   1.00
C96    C     0.37984   0.56567   0.35664   0.00000  Uiso   1.00
C97    C     0.29482   0.68057   0.29424   0.00000  Uiso   1.00
C98    C     0.61011   0.35885   0.43546   0.00000  Uiso   1.00
C99    C     0.62306   0.30346   0.41494   0.00000  Uiso   1.00
C100   C     0.68354   0.28827   0.39122   0.00000  Uiso   1.00
C101   C     0.77431   0.24261   0.34887   0.00000  Uiso   1.00
C102   C     0.59234   0.38122   0.52722   0.00000  Uiso   1.00
C103   C     0.59037   0.34461   0.58386   0.00000  Uiso   1.00
C104   C     0.63591   0.34823   0.63740   0.00000  Uiso   1.00
C105   C     0.69909   0.33730   0.73754   0.00000  Uiso   1.00
C106   C     0.63158   0.45594   0.45741   0.00000  Uiso   1.00
C107   C     0.54275   0.50109   0.41952   0.00000  Uiso   1.00
C108   C     0.50805   0.57291   0.38499   0.00000  Uiso   1.00
C109   C     0.42577   0.60457   0.35358   0.00000  Uiso   1.00
C110   C     0.65596   0.39769   0.43240   0.00000  Uiso   1.00
C111   C     0.71644   0.38257   0.40871   0.00000  Uiso   1.00
C112   C     0.72947   0.32717   0.38816   0.00000  Uiso   1.00
C113   C     0.63819   0.42005   0.52417   0.00000  Uiso   1.00
C114   C     0.68374   0.42372   0.57764   0.00000  Uiso   1.00
C115   C     0.68183   0.38714   0.63434   0.00000  Uiso   1.00
H116   H     0.51148   0.35421   0.46542   0.00000  Uiso   1.00
H117   H     0.37921   0.46374   0.39358   0.00000  Uiso   1.00
H118   H     0.58757   0.27342   0.41731   0.00000  Uiso   1.00
H119   H     0.55488   0.31457   0.58621   0.00000  Uiso   1.00
H120   H     0.25278   0.60230   0.31257   0.00000  Uiso   1.00
H121   H     0.69215   0.20098   0.36263   0.00000  Uiso   1.00
H122   H     0.62321   0.28775   0.71878   0.00000  Uiso   1.00
H123   H     0.66727   0.48617   0.45504   0.00000  Uiso   1.00
H124   H     0.54354   0.60295   0.38263   0.00000  Uiso   1.00
H125   H     0.75191   0.41263   0.40636   0.00000  Uiso   1.00
H126   H     0.71921   0.45378   0.57525   0.00000  Uiso   1.00
H127   H     0.38615   0.71529   0.30368   0.00000  Uiso   1.00
H128   H     0.82553   0.31396   0.35374   0.00000  Uiso   1.00
H129   H     0.75659   0.40074   0.70989   0.00000  Uiso   1.00
O130   O     0.23526   0.73322   0.26067   0.00000  Uiso   1.00
O131   O     0.81171   0.20670   0.32635   0.00000  Uiso   1.00
O132   O     0.72126   0.32055   0.79361   0.00000  Uiso   1.00
N133   N     0.30114   0.61286   0.32043   0.00000  Uiso   1.00
N134   N     0.71192   0.23766   0.36722   0.00000  Uiso   1.00
N135   N     0.64749   0.31877   0.70019   0.00000  Uiso   1.00
N136   N     0.37291   0.67366   0.31564   0.00000  Uiso   1.00
N137   N     0.78369   0.29846   0.36243   0.00000  Uiso   1.00
N138   N     0.71926   0.37957   0.69541   0.00000  Uiso   1.00
C139   C     0.63129   0.83472   0.06822   0.00000  Uiso   1.00
C140   C     0.61389   0.81225   0.12774   0.00000  Uiso   1.00
C141   C     0.54186   0.81218   0.13016   0.00000  Uiso   1.00
C142   C     0.53797   0.78973   0.18920   0.00000  Uiso   1.00
C143   C     0.50095   0.75810   0.27332   0.00000  Uiso   1.00
C144   C     0.70375   0.77221   0.07498   0.00000  Uiso   1.00
C145   C     0.70728   0.73848   0.03303   0.00000  Uiso   1.00
C146   C     0.77904   0.68233   0.04765   0.00000  Uiso   1.00
C147   C     0.88155   0.58856   0.04983   0.00000  Uiso   1.00
C148   C     0.65928   0.89244   0.07084   0.00000  Uiso   1.00
C149   C     0.62544   0.95980   0.02540   0.00000  Uiso   1.00
C150   C     0.65978   0.00487   0.03654   0.00000  Uiso   1.00
C151   C     0.69324   0.09779   0.03229   0.00000  Uiso   1.00
C152   C     0.75247   0.79498   0.16877   0.00000  Uiso   1.00
C153   C     0.67971   0.79067   0.18236   0.00000  Uiso   1.00
C154   C     0.67593   0.76821   0.24141   0.00000  Uiso   1.00
C155   C     0.60391   0.76811   0.24392   0.00000  Uiso   1.00
C156   C     0.76957   0.75063   0.12959   0.00000  Uiso   1.00
C157   C     0.84135   0.69451   0.14427   0.00000  Uiso   1.00
C158   C     0.84498   0.66070   0.10236   0.00000  Uiso   1.00
C159   C     0.72510   0.87086   0.12546   0.00000  Uiso   1.00
C160   C     0.75950   0.91584   0.13666   0.00000  Uiso   1.00
C161   C     0.72572   0.98325   0.09125   0.00000  Uiso   1.00
H162   H     0.58005   0.85152   0.02570   0.00000  Uiso   1.00
H163   H     0.49094   0.82888   0.08788   0.00000  Uiso   1.00
H164   H     0.65634   0.75520   0.99076   0.00000  Uiso   1.00
H165   H     0.57451   0.97648   0.98315   0.00000  Uiso   1.00
H166   H     0.42118   0.79424   0.18092   0.00000  Uiso   1.00
H167   H     0.76993   0.63889   0.97612   0.00000  Uiso   1.00
H168   H     0.59738   0.10552   0.96006   0.00000  Uiso   1.00
H169   H     0.80372   0.77817   0.21129   0.00000  Uiso   1.00
H170   H     0.72687   0.75151   0.28367   0.00000  Uiso   1.00
H171   H     0.89227   0.67783   0.18654   0.00000  Uiso   1.00
H172   H     0.81044   0.89912   0.17892   0.00000  Uiso   1.00
H173   H     0.61267   0.73144   0.33982   0.00000  Uiso   1.00
H174   H     0.96143   0.57610   0.13502   0.00000  Uiso   1.00
H175   H     0.78887   0.04272   0.11896   0.00000  Uiso   1.00
O176   O     0.46235   0.74661   0.30463   0.00000  Uiso   1.00
O177   O     0.91990   0.54280   0.03594   0.00000  Uiso   1.00
O178   O     0.69351   0.15501   0.01486   0.00000  Uiso   1.00
N179   N     0.47678   0.78313   0.20838   0.00000  Uiso   1.00
N180   N     0.80285   0.63788   0.01692   0.00000  Uiso   1.00
N181   N     0.64153   0.07414   0.00189   0.00000  Uiso   1.00
N182   N     0.57983   0.74935   0.29389   0.00000  Uiso   1.00
N183   N     0.90589   0.60409   0.10242   0.00000  Uiso   1.00
N184   N     0.74458   0.04035   0.08739   0.00000  Uiso   1.00
C185   C     0.58529   0.63339   0.96245   0.00000  Uiso   1.00
C186   C     0.51236   0.62082   0.93477   0.00000  Uiso   1.00
C187   C     0.43331   0.66916   0.91246   0.00000  Uiso   1.00
C188   C     0.37524   0.64754   0.88896   0.00000  Uiso   1.00
C189   C     0.25891   0.63832   0.84612   0.00000  Uiso   1.00
C190   C     0.63680   0.61854   0.92355   0.00000  Uiso   1.00
C191   C     0.66238   0.66495   0.89182   0.00000  Uiso   1.00
C192   C     0.70907   0.64141   0.85888   0.00000  Uiso   1.00
C193   C     0.78598   0.62862   0.79866   0.00000  Uiso   1.00
C194   C     0.63236   0.57559   0.02761   0.00000  Uiso   1.00
C195   C     0.65424   0.58589   0.08338   0.00000  Uiso   1.00
C196   C     0.69721   0.52619   0.13805   0.00000  Uiso   1.00
C197   C     0.76723   0.44672   0.23940   0.00000  Uiso   1.00
C198   C     0.62272   0.50904   0.96038   0.00000  Uiso   1.00
C199   C     0.53269   0.55328   0.93364   0.00000  Uiso   1.00
C200   C     0.47473   0.53158   0.91017   0.00000  Uiso   1.00
C201   C     0.39561   0.57988   0.88784   0.00000  Uiso   1.00
C202   C     0.65713   0.55100   0.92242   0.00000  Uiso   1.00
C203   C     0.70380   0.52737   0.88953   0.00000  Uiso   1.00
C204   C     0.72944   0.57374   0.85776   0.00000  Uiso   1.00
C205   C     0.65269   0.50805   0.02649   0.00000  Uiso   1.00
C206   C     0.69564   0.44831   0.08109   0.00000  Uiso   1.00
C207   C     0.71758   0.45852   0.13693   0.00000  Uiso   1.00
H208   H     0.56946   0.68597   0.96332   0.00000  Uiso   1.00
H209   H     0.41760   0.72143   0.91334   0.00000  Uiso   1.00
H210   H     0.64665   0.71722   0.89270   0.00000  Uiso   1.00
H211   H     0.63849   0.63817   0.08423   0.00000  Uiso   1.00
H212   H     0.25821   0.73096   0.85740   0.00000  Uiso   1.00
H213   H     0.74118   0.72207   0.81391   0.00000  Uiso   1.00
H214   H     0.72399   0.55539   0.21778   0.00000  Uiso   1.00
H215   H     0.63855   0.45645   0.95950   0.00000  Uiso   1.00
H216   H     0.49048   0.47931   0.90931   0.00000  Uiso   1.00
H217   H     0.71952   0.47510   0.88867   0.00000  Uiso   1.00
H218   H     0.71137   0.39605   0.08020   0.00000  Uiso   1.00
H219   H     0.31735   0.53445   0.85413   0.00000  Uiso   1.00
H220   H     0.80033   0.52556   0.81064   0.00000  Uiso   1.00
H221   H     0.78313   0.35888   0.21451   0.00000  Uiso   1.00
O222   O     0.18913   0.65189   0.82279   0.00000  Uiso   1.00
O223   O     0.82278   0.64023   0.76575   0.00000  Uiso   1.00
O224   O     0.80022   0.42154   0.29562   0.00000  Uiso   1.00
N225   N     0.29245   0.68157   0.86353   0.00000  Uiso   1.00
N226   N     0.74399   0.67326   0.82286   0.00000  Uiso   1.00
N227   N     0.72793   0.51743   0.20045   0.00000  Uiso   1.00
N228   N     0.32427   0.57583   0.86177   0.00000  Uiso   1.00
N229   N     0.77581   0.56752   0.82110   0.00000  Uiso   1.00
N230   N     0.75976   0.41169   0.19869   0.00000  Uiso   1.00
C231   C     0.52493   0.88176   0.81372   0.00000  Uiso   1.00
C232   C     0.47000   0.95914   0.79337   0.00000  Uiso   1.00
C233   C     0.44032   0.99036   0.83138   0.00000  Uiso   1.00
C234   C     0.39100   0.06184   0.80392   0.00000  Uiso   1.00
C235   C     0.30861   0.17609   0.78194   0.00000  Uiso   1.00
C236   C     0.59852   0.88043   0.79857   0.00000  Uiso   1.00
C237   C     0.67690   0.84546   0.84095   0.00000  Uiso   1.00
C238   C     0.73576   0.85069   0.81785   0.00000  Uiso   1.00
C239   C     0.85291   0.84270   0.80394   0.00000  Uiso   1.00
C240   C     0.48241   0.85467   0.76948   0.00000  Uiso   1.00
C241   C     0.46319   0.79804   0.78740   0.00000  Uiso   1.00
C242   C     0.42431   0.78156   0.73982   0.00000  Uiso   1.00
C243   C     0.36118   0.73359   0.68074   0.00000  Uiso   1.00
C244   C     0.49010   0.95320   0.69735   0.00000  Uiso   1.00
C245   C     0.45109   0.99794   0.73016   0.00000  Uiso   1.00
C246   C     0.40179   0.06940   0.70263   0.00000  Uiso   1.00
C247   C     0.37204   0.10072   0.74060   0.00000  Uiso   1.00
C248   C     0.57960   0.91923   0.73536   0.00000  Uiso   1.00
C249   C     0.63836   0.92450   0.71220   0.00000  Uiso   1.00
C250   C     0.71681   0.88956   0.75453   0.00000  Uiso   1.00
C251   C     0.46349   0.89347   0.70627   0.00000  Uiso   1.00
C252   C     0.42464   0.87708   0.65865   0.00000  Uiso   1.00
C253   C     0.40536   0.82044   0.67650   0.00000  Uiso   1.00
H254   H     0.53967   0.85155   0.86293   0.00000  Uiso   1.00
H255   H     0.45499   0.96031   0.88030   0.00000  Uiso   1.00
H256   H     0.69152   0.81544   0.88985   0.00000  Uiso   1.00
H257   H     0.47784   0.76802   0.83632   0.00000  Uiso   1.00
H258   H     0.35278   0.09801   0.87168   0.00000  Uiso   1.00
H259   H     0.85153   0.79251   0.89184   0.00000  Uiso   1.00
H260   H     0.40094   0.69253   0.77894   0.00000  Uiso   1.00
H261   H     0.47537   0.98341   0.64814   0.00000  Uiso   1.00
H262   H     0.38716   0.09941   0.65372   0.00000  Uiso   1.00
H263   H     0.62370   0.95453   0.66328   0.00000  Uiso   1.00
H264   H     0.41001   0.90712   0.60975   0.00000  Uiso   1.00
H265   H     0.29773   0.21091   0.68779   0.00000  Uiso   1.00
H266   H     0.79649   0.90541   0.70794   0.00000  Uiso   1.00
H267   H     0.34589   0.80543   0.59505   0.00000  Uiso   1.00
O268   O     0.26841   0.22840   0.78729   0.00000  Uiso   1.00
O269   O     0.92275   0.82758   0.81373   0.00000  Uiso   1.00
O270   O     0.33158   0.69641   0.66561   0.00000  Uiso   1.00
N271   N     0.35192   0.10866   0.82763   0.00000  Uiso   1.00
N272   N     0.81822   0.82305   0.84648   0.00000  Uiso   1.00
N273   N     0.39697   0.72956   0.74093   0.00000  Uiso   1.00
N274   N     0.32230   0.16941   0.72868   0.00000  Uiso   1.00
N275   N     0.78860   0.88379   0.74753   0.00000  Uiso   1.00
N276   N     0.36735   0.79031   0.64198   0.00000  Uiso   1.00
C277   C     0.31792   0.54651   0.03275   0.00000  Uiso   1.00
C278   C     0.37324   0.54965   0.08952   0.00000  Uiso   1.00
C279   C     0.42559   0.58141   0.08825   0.00000  Uiso   1.00
C280   C     0.47105   0.57860   0.14524   0.00000  Uiso   1.00
C281   C     0.55794   0.58858   0.22484   0.00000  Uiso   1.00
C282   C     0.23380   0.57898   0.03273   0.00000  Uiso   1.00
C283   C     0.16892   0.63540   0.98370   0.00000  Uiso   1.00
C284   C     0.09701   0.65728   0.99287   0.00000  Uiso   1.00
C285   C     0.96741   0.71277   0.98429   0.00000  Uiso   1.00
C286   C     0.33824   0.46878   0.04689   0.00000  Uiso   1.00
C287   C     0.36115   0.43255   0.00976   0.00000  Uiso   1.00
C288   C     0.37715   0.36165   0.03085   0.00000  Uiso   1.00
C289   C     0.40971   0.24604   0.04425   0.00000  Uiso   1.00
C290   C     0.30556   0.48504   0.13621   0.00000  Uiso   1.00
C291   C     0.36652   0.51626   0.14572   0.00000  Uiso   1.00
C292   C     0.41192   0.51340   0.20272   0.00000  Uiso   1.00
C293   C     0.46433   0.54515   0.20153   0.00000  Uiso   1.00
C294   C     0.22709   0.54560   0.08892   0.00000  Uiso   1.00
C295   C     0.15525   0.56739   0.09817   0.00000  Uiso   1.00
C296   C     0.09028   0.62384   0.04917   0.00000  Uiso   1.00
C297   C     0.33153   0.43539   0.10309   0.00000  Uiso   1.00
C298   C     0.34748   0.36454   0.12423   0.00000  Uiso   1.00
C299   C     0.37042   0.32820   0.08715   0.00000  Uiso   1.00
H300   H     0.32314   0.57251   0.98900   0.00000  Uiso   1.00
H301   H     0.43076   0.60725   0.04475   0.00000  Uiso   1.00
H302   H     0.17414   0.66123   0.94022   0.00000  Uiso   1.00
H303   H     0.36634   0.45840   0.96628   0.00000  Uiso   1.00
H304   H     0.54710   0.63106   0.13135   0.00000  Uiso   1.00
H305   H     0.00598   0.74487   0.91092   0.00000  Uiso   1.00
H306   H     0.41128   0.31717   0.96587   0.00000  Uiso   1.00
H307   H     0.30033   0.45904   0.17996   0.00000  Uiso   1.00
H308   H     0.40671   0.48756   0.24620   0.00000  Uiso   1.00
H309   H     0.15008   0.54154   0.14166   0.00000  Uiso   1.00
H310   H     0.34228   0.33872   0.16772   0.00000  Uiso   1.00
H311   H     0.52758   0.53392   0.29485   0.00000  Uiso   1.00
H312   H     0.98645   0.64772   0.07442   0.00000  Uiso   1.00
H313   H     0.39176   0.22003   0.12938   0.00000  Uiso   1.00
O314   O     0.60771   0.60332   0.25322   0.00000  Uiso   1.00
O315   O     0.89778   0.75261   0.96403   0.00000  Uiso   1.00
O316   O     0.42953   0.19149   0.03613   0.00000  Uiso   1.00
N317   N     0.52792   0.60427   0.16074   0.00000  Uiso   1.00
N318   N     0.02201   0.71068   0.95466   0.00000  Uiso   1.00
N319   N     0.40091   0.31083   0.00603   0.00000  Uiso   1.00
N320   N     0.51741   0.55200   0.24872   0.00000  Uiso   1.00
N321   N     0.01150   0.65841   0.04264   0.00000  Uiso   1.00
N322   N     0.39040   0.25856   0.09400   0.00000  Uiso   1.00
C323   C     0.56521   0.62820   0.54254   0.00000  Uiso   1.00
C324   C     0.50914   0.70627   0.51314   0.00000  Uiso   1.00
C325   C     0.44699   0.74012   0.45514   0.00000  Uiso   1.00
C326   C     0.40259   0.81180   0.43662   0.00000  Uiso   1.00
C327   C     0.31289   0.92746   0.38517   0.00000  Uiso   1.00
C328   C     0.55862   0.60017   0.60606   0.00000  Uiso   1.00
C329   C     0.53809   0.54481   0.62618   0.00000  Uiso   1.00
C330   C     0.53535   0.52718   0.68589   0.00000  Uiso   1.00
C331   C     0.52252   0.47809   0.77872   0.00000  Uiso   1.00
C332   C     0.64956   0.62415   0.55659   0.00000  Uiso   1.00
C333   C     0.70551   0.58893   0.53514   0.00000  Uiso   1.00
C334   C     0.77935   0.59146   0.55321   0.00000  Uiso   1.00
C335   C     0.90772   0.57961   0.56923   0.00000  Uiso   1.00
C336   C     0.59687   0.69530   0.61280   0.00000  Uiso   1.00
C337   C     0.52634   0.74271   0.55130   0.00000  Uiso   1.00
C338   C     0.48202   0.81436   0.53287   0.00000  Uiso   1.00
C339   C     0.41982   0.84831   0.47485   0.00000  Uiso   1.00
C340   C     0.57582   0.63662   0.64422   0.00000  Uiso   1.00
C341   C     0.57311   0.61905   0.70392   0.00000  Uiso   1.00
C342   C     0.55257   0.56369   0.72413   0.00000  Uiso   1.00
C343   C     0.66676   0.66060   0.59475   0.00000  Uiso   1.00
C344   C     0.74053   0.66318   0.61287   0.00000  Uiso   1.00
C345   C     0.79658   0.62797   0.59145   0.00000  Uiso   1.00
H346   H     0.55182   0.59982   0.51284   0.00000  Uiso   1.00
H347   H     0.43370   0.71189   0.42562   0.00000  Uiso   1.00
H348   H     0.52479   0.51661   0.59664   0.00000  Uiso   1.00
H349   H     0.69218   0.56073   0.50561   0.00000  Uiso   1.00
H350   H     0.31030   0.85221   0.34577   0.00000  Uiso   1.00
H351   H     0.50239   0.44044   0.70638   0.00000  Uiso   1.00
H352   H     0.85538   0.53346   0.51442   0.00000  Uiso   1.00
H353   H     0.61026   0.72368   0.64252   0.00000  Uiso   1.00
H354   H     0.49534   0.84255   0.56241   0.00000  Uiso   1.00
H355   H     0.58643   0.64727   0.73344   0.00000  Uiso   1.00
H356   H     0.75382   0.69139   0.64240   0.00000  Uiso   1.00
H357   H     0.36033   0.95826   0.45679   0.00000  Uiso   1.00
H358   H     0.55242   0.54648   0.81741   0.00000  Uiso   1.00
H359   H     0.90540   0.63951   0.62544   0.00000  Uiso   1.00
O360   O     0.25865   0.98119   0.34626   0.00000  Uiso   1.00
O361   O     0.51068   0.44095   0.81937   0.00000  Uiso   1.00
O362   O     0.97378   0.56300   0.56752   0.00000  Uiso   1.00
N363   N     0.33786   0.86086   0.38288   0.00000  Uiso   1.00
N364   N     0.51744   0.47588   0.72003   0.00000  Uiso   1.00
N365   N     0.84745   0.56284   0.54058   0.00000  Uiso   1.00
N366   N     0.36478   0.91792   0.44263   0.00000  Uiso   1.00
N367   N     0.54436   0.53294   0.77978   0.00000  Uiso   1.00
N368   N     0.87437   0.61990   0.60032   0.00000  Uiso   1.00
C369   C     0.07764   0.32835   0.87233   0.00000  Uiso   1.00
C370   C     0.14016   0.25235   0.90482   0.00000  Uiso   1.00
C371   C     0.22233   0.23072   0.92693   0.00000  Uiso   1.00
C372   C     0.26942   0.15881   0.95528   0.00000  Uiso   1.00
C373   C     0.37166   0.04818   0.00485   0.00000  Uiso   1.00
C374   C     0.02410   0.33747   0.91047   0.00000  Uiso   1.00
C375   C     0.00870   0.38743   0.93733   0.00000  Uiso   1.00
C376   C     0.95807   0.38718   0.97043   0.00000  Uiso   1.00
C377   C     0.88009   0.40874   0.02874   0.00000  Uiso   1.00
C378   C     0.02581   0.33406   0.80923   0.00000  Uiso   1.00
C379   C     0.01182   0.38116   0.75097   0.00000  Uiso   1.00
C380   C     0.96262   0.37805   0.69883   0.00000  Uiso   1.00
C381   C     0.88729   0.39431   0.59995   0.00000  Uiso   1.00
C382   C     0.01512   0.23909   0.88333   0.00000  Uiso   1.00
C383   C     0.10620   0.20387   0.91080   0.00000  Uiso   1.00
C384   C     0.15317   0.13197   0.93911   0.00000  Uiso   1.00
C385   C     0.23540   0.11024   0.96126   0.00000  Uiso   1.00
C386   C     0.99015   0.28899   0.91645   0.00000  Uiso   1.00
C387   C     0.93953   0.28867   0.94951   0.00000  Uiso   1.00
C388   C     0.92406   0.33861   0.97641   0.00000  Uiso   1.00
C389   C     0.99185   0.28558   0.81521   0.00000  Uiso   1.00
C390   C     0.94266   0.28240   0.76315   0.00000  Uiso   1.00
C391   C     0.92860   0.32949   0.70481   0.00000  Uiso   1.00
H392   H     0.10407   0.36610   0.86768   0.00000  Uiso   1.00
H393   H     0.24859   0.26826   0.92231   0.00000  Uiso   1.00
H394   H     0.03498   0.42494   0.93270   0.00000  Uiso   1.00
H395   H     0.03811   0.41867   0.74636   0.00000  Uiso   1.00
H396   H     0.39384   0.13841   0.98553   0.00000  Uiso   1.00
H397   H     0.94341   0.46880   0.00742   0.00000  Uiso   1.00
H398   H     0.95000   0.45558   0.61450   0.00000  Uiso   1.00
H399   H     0.98868   0.20134   0.88798   0.00000  Uiso   1.00
H400   H     0.12687   0.09446   0.94373   0.00000  Uiso   1.00
H401   H     0.91326   0.25115   0.95412   0.00000  Uiso   1.00
H402   H     0.91639   0.24488   0.76779   0.00000  Uiso   1.00
H403   H     0.29505   0.99735   0.00292   0.00000  Uiso   1.00
H404   H     0.84461   0.32775   0.02481   0.00000  Uiso   1.00
H405   H     0.85121   0.31452   0.63189   0.00000  Uiso   1.00
O406   O     0.43743   0.00055   0.03055   0.00000  Uiso   1.00
O407   O     0.84647   0.43402   0.05926   0.00000  Uiso   1.00
O408   O     0.85513   0.41667   0.54376   0.00000  Uiso   1.00
N409   N     0.35162   0.11988   0.98196   0.00000  Uiso   1.00
N410   N     0.93051   0.42877   0.00244   0.00000  Uiso   1.00
N411   N     0.93666   0.41642   0.63509   0.00000  Uiso   1.00
N412   N     0.29847   0.04398   0.99132   0.00000  Uiso   1.00
N413   N     0.87735   0.35287   0.01179   0.00000  Uiso   1.00
N414   N     0.88350   0.34052   0.64445   0.00000  Uiso   1.00
C415   C     0.72069   0.13677   0.85582   0.00000  Uiso   1.00
C416   C     0.71092   0.13340   0.79123   0.00000  Uiso   1.00
C417   C     0.74707   0.15803   0.75203   0.00000  Uiso   1.00
C418   C     0.73052   0.15006   0.69482   0.00000  Uiso   1.00
C419   C     0.72306   0.14965   0.59715   0.00000  Uiso   1.00
C420   C     0.63658   0.17584   0.85323   0.00000  Uiso   1.00
C421   C     0.61023   0.23616   0.86616   0.00000  Uiso   1.00
C422   C     0.53110   0.26390   0.86115   0.00000  Uiso   1.00
C423   C     0.40825   0.32936   0.85978   0.00000  Uiso   1.00
C424   C     0.75036   0.06134   0.90114   0.00000  Uiso   1.00
C425   C     0.81967   0.02539   0.95437   0.00000  Uiso   1.00
C426   C     0.83633   0.95674   0.98971   0.00000  Uiso   1.00
C427   C     0.89013   0.84442   0.06273   0.00000  Uiso   1.00
C428   C     0.62702   0.07880   0.82393   0.00000  Uiso   1.00
C429   C     0.66004   0.10191   0.77391   0.00000  Uiso   1.00
C430   C     0.64343   0.09390   0.71675   0.00000  Uiso   1.00
C431   C     0.67955   0.11851   0.67747   0.00000  Uiso   1.00
C432   C     0.58570   0.14436   0.83591   0.00000  Uiso   1.00
C433   C     0.50660   0.17202   0.83088   0.00000  Uiso   1.00
C434   C     0.48013   0.23236   0.84379   0.00000  Uiso   1.00
C435   C     0.69949   0.02985   0.88382   0.00000  Uiso   1.00
C436   C     0.71604   0.96125   0.91909   0.00000  Uiso   1.00
C437   C     0.78536   0.92520   0.97235   0.00000  Uiso   1.00
H438   H     0.76029   0.16128   0.86931   0.00000  Uiso   1.00
H439   H     0.78643   0.18240   0.76545   0.00000  Uiso   1.00
H440   H     0.64962   0.26050   0.87957   0.00000  Uiso   1.00
H441   H     0.85902   0.04977   0.96776   0.00000  Uiso   1.00
H442   H     0.79295   0.19196   0.64266   0.00000  Uiso   1.00
H443   H     0.50448   0.35663   0.88330   0.00000  Uiso   1.00
H444   H     0.94605   0.91225   0.06928   0.00000  Uiso   1.00
H445   H     0.58741   0.05428   0.81045   0.00000  Uiso   1.00
H446   H     0.60406   0.06953   0.70336   0.00000  Uiso   1.00
H447   H     0.46725   0.14764   0.81748   0.00000  Uiso   1.00
H448   H     0.67665   0.93690   0.90567   0.00000  Uiso   1.00
H449   H     0.64493   0.10035   0.59226   0.00000  Uiso   1.00
H450   H     0.35646   0.26502   0.83291   0.00000  Uiso   1.00
H451   H     0.79803   0.82064   0.01888   0.00000  Uiso   1.00
O452   O     0.73299   0.15813   0.54807   0.00000  Uiso   1.00
O453   O     0.35454   0.37417   0.86380   0.00000  Uiso   1.00
O454   O     0.93387   0.79116   0.10778   0.00000  Uiso   1.00
N455   N     0.75584   0.16829   0.64550   0.00000  Uiso   1.00
N456   N     0.48613   0.32226   0.87048   0.00000  Uiso   1.00
N457   N     0.89896   0.90681   0.04436   0.00000  Uiso   1.00
N458   N     0.67619   0.11900   0.61838   0.00000  Uiso   1.00
N459   N     0.40649   0.27296   0.84336   0.00000  Uiso   1.00
N460   N     0.81931   0.85751   0.01724   0.00000  Uiso   1.00
C461   C     0.07055   0.14220   0.42159   0.00000  Uiso   1.00
C462   C     0.14476   0.15684   0.43544   0.00000  Uiso   1.00
C463   C     0.22320   0.10641   0.46419   0.00000  Uiso   1.00
C464   C     0.28267   0.13050   0.47266   0.00000  Uiso   1.00
C465   C     0.40070   0.14230   0.49717   0.00000  Uiso   1.00
C466   C     0.01986   0.17914   0.45336   0.00000  Uiso   1.00
C467   C     0.99328   0.14746   0.49716   0.00000  Uiso   1.00
C468   C     0.94760   0.19033   0.52070   0.00000  Uiso   1.00
C469   C     0.87167   0.23676   0.57300   0.00000  Uiso   1.00
C470   C     0.02381   0.18138   0.35125   0.00000  Uiso   1.00
C471   C     0.00053   0.15159   0.30920   0.00000  Uiso   1.00
C472   C     0.95816   0.19635   0.24677   0.00000  Uiso   1.00
C473   C     0.88836   0.24626   0.14053   0.00000  Uiso   1.00
C474   C     0.03667   0.27466   0.38550   0.00000  Uiso   1.00
C475   C     0.12636   0.22879   0.41584   0.00000  Uiso   1.00
C476   C     0.18572   0.25297   0.42426   0.00000  Uiso   1.00
C477   C     0.26424   0.20258   0.45301   0.00000  Uiso   1.00
C478   C     0.00146   0.25109   0.43376   0.00000  Uiso   1.00
C479   C     0.95580   0.29402   0.45723   0.00000  Uiso   1.00
C480   C     0.92917   0.26241   0.50106   0.00000  Uiso   1.00
C481   C     0.00541   0.25333   0.33165   0.00000  Uiso   1.00
C482   C     0.96306   0.29815   0.26927   0.00000  Uiso   1.00
C483   C     0.93972   0.26843   0.22714   0.00000  Uiso   1.00
H484   H     0.08487   0.08618   0.43686   0.00000  Uiso   1.00
H485   H     0.23742   0.05073   0.47936   0.00000  Uiso   1.00
H486   H     0.00753   0.09178   0.51232   0.00000  Uiso   1.00
H487   H     0.01478   0.09591   0.32439   0.00000  Uiso   1.00
H488   H     0.39843   0.04316   0.51786   0.00000  Uiso   1.00
H489   H     0.91367   0.12972   0.58734   0.00000  Uiso   1.00
H490   H     0.92896   0.13842   0.19105   0.00000  Uiso   1.00
H491   H     0.02235   0.33068   0.37024   0.00000  Uiso   1.00
H492   H     0.17147   0.30865   0.40909   0.00000  Uiso   1.00
H493   H     0.94157   0.34970   0.44205   0.00000  Uiso   1.00
H494   H     0.94883   0.35383   0.25412   0.00000  Uiso   1.00
H495   H     0.34490   0.25250   0.46082   0.00000  Uiso   1.00
H496   H     0.86013   0.33905   0.53031   0.00000  Uiso   1.00
H497   H     0.87543   0.34776   0.13402   0.00000  Uiso   1.00
O498   O     0.47088   0.12892   0.51612   0.00000  Uiso   1.00
O499   O     0.83489   0.24249   0.60726   0.00000  Uiso   1.00
O500   O     0.85496   0.25390   0.08735   0.00000  Uiso   1.00
N501   N     0.36536   0.09545   0.49909   0.00000  Uiso   1.00
N502   N     0.91215   0.17638   0.56406   0.00000  Uiso   1.00
N503   N     0.92643   0.18452   0.19357   0.00000  Uiso   1.00
N504   N     0.33656   0.20809   0.46840   0.00000  Uiso   1.00
N505   N     0.88335   0.28902   0.53337   0.00000  Uiso   1.00
N506   N     0.89763   0.29716   0.16288   0.00000  Uiso   1.00
C507   C     0.98029   0.75264   0.34785   0.00000  Uiso   1.00
C508   C     0.00636   0.67487   0.35891   0.00000  Uiso   1.00
C509   C     0.01571   0.64545   0.31462   0.00000  Uiso   1.00
C510   C     0.04000   0.57323   0.33398   0.00000  Uiso   1.00
C511   C     0.07825   0.45875   0.34180   0.00000  Uiso   1.00
C512   C     0.90677   0.77416   0.36553   0.00000  Uiso   1.00
C513   C     0.83240   0.82824   0.32680   0.00000  Uiso   1.00
C514   C     0.77286   0.83962   0.35174   0.00000  Uiso   1.00
C515   C     0.65652   0.87933   0.36985   0.00000  Uiso   1.00
C516   C     0.04590   0.75685   0.39664   0.00000  Uiso   1.00
C517   C     0.08848   0.79638   0.38407   0.00000  Uiso   1.00
C518   C     0.14606   0.79319   0.43520   0.00000  Uiso   1.00
C519   C     0.24573   0.80602   0.50161   0.00000  Uiso   1.00
C520   C     0.00680   0.67670   0.46099   0.00000  Uiso   1.00
C521   C     0.02076   0.63362   0.42037   0.00000  Uiso   1.00
C522   C     0.04504   0.56143   0.43980   0.00000  Uiso   1.00
C523   C     0.05443   0.53191   0.39554   0.00000  Uiso   1.00
C524   C     0.92117   0.73292   0.42698   0.00000  Uiso   1.00
C525   C     0.86173   0.74422   0.45198   0.00000  Uiso   1.00
C526   C     0.78728   0.79829   0.41330   0.00000  Uiso   1.00
C527   C     0.06030   0.71560   0.45809   0.00000  Uiso   1.00
C528   C     0.11782   0.71235   0.50925   0.00000  Uiso   1.00
C529   C     0.16049   0.75187   0.49676   0.00000  Uiso   1.00
H530   H     0.96908   0.78476   0.30000   0.00000  Uiso   1.00
H531   H     0.00456   0.67740   0.26706   0.00000  Uiso   1.00
H532   H     0.82128   0.86016   0.27925   0.00000  Uiso   1.00
H533   H     0.07732   0.82830   0.33651   0.00000  Uiso   1.00
H534   H     0.05021   0.54017   0.25764   0.00000  Uiso   1.00
H535   H     0.66377   0.92556   0.28334   0.00000  Uiso   1.00
H536   H     0.20369   0.85838   0.40408   0.00000  Uiso   1.00
H537   H     0.01801   0.64458   0.50884   0.00000  Uiso   1.00
H538   H     0.05618   0.52952   0.48736   0.00000  Uiso   1.00
H539   H     0.87290   0.71228   0.49954   0.00000  Uiso   1.00
H540   H     0.12894   0.68042   0.55680   0.00000  Uiso   1.00
H541   H     0.09211   0.42015   0.43644   0.00000  Uiso   1.00
H542   H     0.70566   0.80554   0.46214   0.00000  Uiso   1.00
H543   H     0.24559   0.73835   0.58288   0.00000  Uiso   1.00
O544   O     0.09536   0.40700   0.32913   0.00000  Uiso   1.00
O545   O     0.58836   0.91262   0.36286   0.00000  Uiso   1.00
O546   O     0.29673   0.82448   0.52126   0.00000  Uiso   1.00
N547   N     0.05485   0.52771   0.30267   0.00000  Uiso   1.00
N548   N     0.69354   0.88802   0.32670   0.00000  Uiso   1.00
N549   N     0.19831   0.82523   0.43958   0.00000  Uiso   1.00
N550   N     0.07740   0.46313   0.39888   0.00000  Uiso   1.00
N551   N     0.71609   0.82343   0.42291   0.00000  Uiso   1.00
N552   N     0.22086   0.76064   0.53579   0.00000  Uiso   1.00
