data_job_04842
_audit_creation_date              2018-12-19
_audit_creation_method            'Materials Studio'
_symmetry_space_group_name_H-M    'P1'
_symmetry_Int_Tables_number       1
_symmetry_cell_setting            triclinic
loop_
_symmetry_equiv_pos_as_xyz
  x,y,z
_cell_length_a                    23.9588
_cell_length_b                    12.7747
_cell_length_c                    15.7631
_cell_angle_alpha                 90.0000
_cell_angle_beta                  139.4030
_cell_angle_gamma                 90.0000
loop_
_atom_site_label
_atom_site_type_symbol
_atom_site_fract_x
_atom_site_fract_y
_atom_site_fract_z
_atom_site_U_iso_or_equiv
_atom_site_adp_type
_atom_site_occupancy
C1     C     0.25359   0.76808   0.23865   0.00000  Uiso   1.00
C2     C     0.27496   0.88397   0.27293   0.00000  Uiso   1.00
C3     C     0.23369   0.96584   0.18429   0.00000  Uiso   1.00
C4     C     0.26280   0.06631   0.23517   0.00000  Uiso   1.00
C5     C     0.28567   0.24353   0.26790   0.00000  Uiso   1.00
C6     C     0.33649   0.71486   0.30648   0.00000  Uiso   1.00
C7     C     0.34694   0.65455   0.24604   0.00000  Uiso   1.00
C8     C     0.42784   0.61266   0.32517   0.00000  Uiso   1.00
C9     C     0.54623   0.52728   0.41001   0.00000  Uiso   1.00
C10    C     0.23505   0.72793   0.30648   0.00000  Uiso   1.00
C11    C     0.16021   0.67857   0.24606   0.00000  Uiso   1.00
C12    C     0.15572   0.64765   0.32520   0.00000  Uiso   1.00
C13    C     0.11660   0.58256   0.41004   0.00000  Uiso   1.00
C14    C     0.37868   0.80092   0.48664   0.00000  Uiso   1.00
C15    C     0.34291   0.90180   0.40763   0.00000  Uiso   1.00
C16    C     0.37209   0.00217   0.45866   0.00000  Uiso   1.00
C17    C     0.33086   0.08418   0.37010   0.00000  Uiso   1.00
C18    C     0.40443   0.73270   0.44117   0.00000  Uiso   1.00
C19    C     0.48534   0.69088   0.52041   0.00000  Uiso   1.00
C20    C     0.49591   0.63053   0.46011   0.00000  Uiso   1.00
C21    C     0.30299   0.74576   0.44118   0.00000  Uiso   1.00
C22    C     0.29861   0.71491   0.52043   0.00000  Uiso   1.00
C23    C     0.22379   0.66552   0.46014   0.00000  Uiso   1.00
H24    H     0.20069   0.75419   0.13378   0.00000  Uiso   1.00
H25    H     0.18111   0.95200   0.08005   0.00000  Uiso   1.00
H26    H     0.29434   0.64075   0.14180   0.00000  Uiso   1.00
H27    H     0.10765   0.66478   0.14182   0.00000  Uiso   1.00
H28    H     0.18938   0.17918   0.07988   0.00000  Uiso   1.00
H29    H     0.42813   0.52286   0.21009   0.00000  Uiso   1.00
H30    H     0.03445   0.57351   0.21013   0.00000  Uiso   1.00
H31    H     0.43158   0.81481   0.59151   0.00000  Uiso   1.00
H32    H     0.42467   0.01595   0.56290   0.00000  Uiso   1.00
H33    H     0.53790   0.70470   0.62464   0.00000  Uiso   1.00
H34    H     0.35121   0.72872   0.62466   0.00000  Uiso   1.00
H35    H     0.38707   0.23108   0.47178   0.00000  Uiso   1.00
H36    H     0.62582   0.57476   0.60199   0.00000  Uiso   1.00
H37    H     0.23213   0.62542   0.60203   0.00000  Uiso   1.00
O38    O     0.27953   0.33635   0.24875   0.00000  Uiso   1.00
O39    O     0.59275   0.47527   0.41958   0.00000  Uiso   1.00
O40    O     0.07625   0.54174   0.41963   0.00000  Uiso   1.00
N41    N     0.23685   0.16379   0.17604   0.00000  Uiso   1.00
N42    N     0.46007   0.55018   0.29778   0.00000  Uiso   1.00
N43    N     0.09201   0.59752   0.29782   0.00000  Uiso   1.00
N44    N     0.34322   0.19172   0.38692   0.00000  Uiso   1.00
N45    N     0.56644   0.57811   0.50865   0.00000  Uiso   1.00
N46    N     0.19838   0.62545   0.50870   0.00000  Uiso   1.00
C47    C     0.74641   0.76808   0.26135   0.00000  Uiso   1.00
C48    C     0.72504   0.88397   0.22707   0.00000  Uiso   1.00
C49    C     0.76631   0.96584   0.31571   0.00000  Uiso   1.00
C50    C     0.73720   0.06631   0.26483   0.00000  Uiso   1.00
C51    C     0.71433   0.24353   0.23210   0.00000  Uiso   1.00
C52    C     0.66351   0.71486   0.19352   0.00000  Uiso   1.00
C53    C     0.65306   0.65455   0.25396   0.00000  Uiso   1.00
C54    C     0.57216   0.61266   0.17483   0.00000  Uiso   1.00
C55    C     0.45377   0.52728   0.08999   0.00000  Uiso   1.00
C56    C     0.76495   0.72793   0.19352   0.00000  Uiso   1.00
C57    C     0.83979   0.67857   0.25394   0.00000  Uiso   1.00
C58    C     0.84428   0.64765   0.17480   0.00000  Uiso   1.00
C59    C     0.88340   0.58256   0.08996   0.00000  Uiso   1.00
C60    C     0.62132   0.80092   0.01336   0.00000  Uiso   1.00
C61    C     0.65709   0.90180   0.09237   0.00000  Uiso   1.00
C62    C     0.62791   0.00217   0.04134   0.00000  Uiso   1.00
C63    C     0.66914   0.08418   0.12990   0.00000  Uiso   1.00
C64    C     0.59557   0.73270   0.05883   0.00000  Uiso   1.00
C65    C     0.51466   0.69088   0.97959   0.00000  Uiso   1.00
C66    C     0.50409   0.63053   0.03989   0.00000  Uiso   1.00
C67    C     0.69701   0.74576   0.05882   0.00000  Uiso   1.00
C68    C     0.70139   0.71491   0.97957   0.00000  Uiso   1.00
C69    C     0.77621   0.66552   0.03986   0.00000  Uiso   1.00
H70    H     0.79931   0.75419   0.36622   0.00000  Uiso   1.00
H71    H     0.81889   0.95200   0.41995   0.00000  Uiso   1.00
H72    H     0.70566   0.64075   0.35820   0.00000  Uiso   1.00
H73    H     0.89235   0.66478   0.35818   0.00000  Uiso   1.00
H74    H     0.81062   0.17918   0.42012   0.00000  Uiso   1.00
H75    H     0.57187   0.52286   0.28991   0.00000  Uiso   1.00
H76    H     0.96555   0.57351   0.28987   0.00000  Uiso   1.00
H77    H     0.56842   0.81481   0.90849   0.00000  Uiso   1.00
H78    H     0.57533   0.01595   0.93710   0.00000  Uiso   1.00
H79    H     0.46210   0.70470   0.87536   0.00000  Uiso   1.00
H80    H     0.64879   0.72872   0.87534   0.00000  Uiso   1.00
H81    H     0.61293   0.23108   0.02822   0.00000  Uiso   1.00
H82    H     0.37418   0.57476   0.89801   0.00000  Uiso   1.00
H83    H     0.76787   0.62542   0.89797   0.00000  Uiso   1.00
O84    O     0.72047   0.33635   0.25125   0.00000  Uiso   1.00
O85    O     0.40725   0.47527   0.08042   0.00000  Uiso   1.00
O86    O     0.92375   0.54174   0.08037   0.00000  Uiso   1.00
N87    N     0.76315   0.16379   0.32396   0.00000  Uiso   1.00
N88    N     0.53993   0.55018   0.20222   0.00000  Uiso   1.00
N89    N     0.90799   0.59752   0.20218   0.00000  Uiso   1.00
N90    N     0.65678   0.19172   0.11308   0.00000  Uiso   1.00
N91    N     0.43356   0.57811   0.99135   0.00000  Uiso   1.00
N92    N     0.80162   0.62545   0.99130   0.00000  Uiso   1.00
C93    C     0.74641   0.23192   0.76135   0.00000  Uiso   1.00
C94    C     0.72504   0.11603   0.72707   0.00000  Uiso   1.00
C95    C     0.76631   0.03416   0.81571   0.00000  Uiso   1.00
C96    C     0.73720   0.93369   0.76483   0.00000  Uiso   1.00
C97    C     0.71433   0.75647   0.73210   0.00000  Uiso   1.00
C98    C     0.66351   0.28514   0.69352   0.00000  Uiso   1.00
C99    C     0.65306   0.34545   0.75396   0.00000  Uiso   1.00
C100   C     0.57216   0.38734   0.67483   0.00000  Uiso   1.00
C101   C     0.45377   0.47272   0.58999   0.00000  Uiso   1.00
C102   C     0.76495   0.27207   0.69352   0.00000  Uiso   1.00
C103   C     0.83979   0.32143   0.75394   0.00000  Uiso   1.00
C104   C     0.84428   0.35235   0.67480   0.00000  Uiso   1.00
C105   C     0.88340   0.41744   0.58996   0.00000  Uiso   1.00
C106   C     0.62132   0.19908   0.51336   0.00000  Uiso   1.00
C107   C     0.65709   0.09820   0.59237   0.00000  Uiso   1.00
C108   C     0.62791   0.99783   0.54134   0.00000  Uiso   1.00
C109   C     0.66914   0.91582   0.62990   0.00000  Uiso   1.00
C110   C     0.59557   0.26730   0.55883   0.00000  Uiso   1.00
C111   C     0.51466   0.30912   0.47959   0.00000  Uiso   1.00
C112   C     0.50409   0.36947   0.53989   0.00000  Uiso   1.00
C113   C     0.69701   0.25424   0.55882   0.00000  Uiso   1.00
C114   C     0.70139   0.28509   0.47957   0.00000  Uiso   1.00
C115   C     0.77621   0.33448   0.53986   0.00000  Uiso   1.00
H116   H     0.79931   0.24581   0.86622   0.00000  Uiso   1.00
H117   H     0.81889   0.04800   0.91995   0.00000  Uiso   1.00
H118   H     0.70566   0.35925   0.85820   0.00000  Uiso   1.00
H119   H     0.89235   0.33522   0.85818   0.00000  Uiso   1.00
H120   H     0.81062   0.82082   0.92012   0.00000  Uiso   1.00
H121   H     0.57187   0.47714   0.78991   0.00000  Uiso   1.00
H122   H     0.96555   0.42649   0.78987   0.00000  Uiso   1.00
H123   H     0.56842   0.18519   0.40849   0.00000  Uiso   1.00
H124   H     0.57533   0.98405   0.43710   0.00000  Uiso   1.00
H125   H     0.46210   0.29530   0.37536   0.00000  Uiso   1.00
H126   H     0.64879   0.27128   0.37534   0.00000  Uiso   1.00
H127   H     0.61293   0.76892   0.52822   0.00000  Uiso   1.00
H128   H     0.37418   0.42524   0.39801   0.00000  Uiso   1.00
H129   H     0.76787   0.37458   0.39797   0.00000  Uiso   1.00
O130   O     0.72047   0.66365   0.75125   0.00000  Uiso   1.00
O131   O     0.40725   0.52473   0.58042   0.00000  Uiso   1.00
O132   O     0.92375   0.45826   0.58037   0.00000  Uiso   1.00
N133   N     0.76315   0.83621   0.82396   0.00000  Uiso   1.00
N134   N     0.53993   0.44982   0.70222   0.00000  Uiso   1.00
N135   N     0.90799   0.40248   0.70218   0.00000  Uiso   1.00
N136   N     0.65678   0.80828   0.61308   0.00000  Uiso   1.00
N137   N     0.43356   0.42189   0.49135   0.00000  Uiso   1.00
N138   N     0.80162   0.37455   0.49130   0.00000  Uiso   1.00
C139   C     0.25359   0.23192   0.73865   0.00000  Uiso   1.00
C140   C     0.27496   0.11603   0.77293   0.00000  Uiso   1.00
C141   C     0.23369   0.03416   0.68429   0.00000  Uiso   1.00
C142   C     0.26280   0.93369   0.73517   0.00000  Uiso   1.00
C143   C     0.28567   0.75647   0.76790   0.00000  Uiso   1.00
C144   C     0.33649   0.28514   0.80648   0.00000  Uiso   1.00
C145   C     0.34694   0.34545   0.74604   0.00000  Uiso   1.00
C146   C     0.42784   0.38734   0.82517   0.00000  Uiso   1.00
C147   C     0.54623   0.47272   0.91001   0.00000  Uiso   1.00
C148   C     0.23505   0.27207   0.80648   0.00000  Uiso   1.00
C149   C     0.16021   0.32143   0.74606   0.00000  Uiso   1.00
C150   C     0.15572   0.35235   0.82520   0.00000  Uiso   1.00
C151   C     0.11660   0.41744   0.91004   0.00000  Uiso   1.00
C152   C     0.37868   0.19908   0.98664   0.00000  Uiso   1.00
C153   C     0.34291   0.09820   0.90763   0.00000  Uiso   1.00
C154   C     0.37209   0.99783   0.95866   0.00000  Uiso   1.00
C155   C     0.33086   0.91582   0.87010   0.00000  Uiso   1.00
C156   C     0.40443   0.26730   0.94117   0.00000  Uiso   1.00
C157   C     0.48534   0.30912   0.02041   0.00000  Uiso   1.00
C158   C     0.49591   0.36947   0.96011   0.00000  Uiso   1.00
C159   C     0.30299   0.25424   0.94118   0.00000  Uiso   1.00
C160   C     0.29861   0.28509   0.02043   0.00000  Uiso   1.00
C161   C     0.22379   0.33448   0.96014   0.00000  Uiso   1.00
H162   H     0.20069   0.24581   0.63378   0.00000  Uiso   1.00
H163   H     0.18111   0.04800   0.58005   0.00000  Uiso   1.00
H164   H     0.29434   0.35925   0.64180   0.00000  Uiso   1.00
H165   H     0.10765   0.33522   0.64182   0.00000  Uiso   1.00
H166   H     0.18938   0.82082   0.57988   0.00000  Uiso   1.00
H167   H     0.42813   0.47714   0.71009   0.00000  Uiso   1.00
H168   H     0.03445   0.42649   0.71013   0.00000  Uiso   1.00
H169   H     0.43158   0.18519   0.09151   0.00000  Uiso   1.00
H170   H     0.42467   0.98405   0.06290   0.00000  Uiso   1.00
H171   H     0.53790   0.29530   0.12464   0.00000  Uiso   1.00
H172   H     0.35121   0.27128   0.12466   0.00000  Uiso   1.00
H173   H     0.38707   0.76892   0.97178   0.00000  Uiso   1.00
H174   H     0.62582   0.42524   0.10199   0.00000  Uiso   1.00
H175   H     0.23213   0.37458   0.10203   0.00000  Uiso   1.00
O176   O     0.27953   0.66365   0.74875   0.00000  Uiso   1.00
O177   O     0.59275   0.52473   0.91958   0.00000  Uiso   1.00
O178   O     0.07625   0.45826   0.91963   0.00000  Uiso   1.00
N179   N     0.23685   0.83621   0.67604   0.00000  Uiso   1.00
N180   N     0.46007   0.44982   0.79778   0.00000  Uiso   1.00
N181   N     0.09201   0.40248   0.79782   0.00000  Uiso   1.00
N182   N     0.34322   0.80828   0.88692   0.00000  Uiso   1.00
N183   N     0.56644   0.42189   0.00865   0.00000  Uiso   1.00
N184   N     0.19838   0.37455   0.00870   0.00000  Uiso   1.00
