data_job_05052
_audit_creation_date              2018-12-19
_audit_creation_method            'Materials Studio'
_symmetry_space_group_name_H-M    'P1'
_symmetry_Int_Tables_number       1
_symmetry_cell_setting            triclinic
loop_
_symmetry_equiv_pos_as_xyz
  x,y,z
_cell_length_a                    11.1472
_cell_length_b                    26.5468
_cell_length_c                    17.9381
_cell_angle_alpha                 90.0869
_cell_angle_beta                  90.5660
_cell_angle_gamma                 90.0296
loop_
_atom_site_label
_atom_site_type_symbol
_atom_site_fract_x
_atom_site_fract_y
_atom_site_fract_z
_atom_site_U_iso_or_equiv
_atom_site_adp_type
_atom_site_occupancy
C1     C     0.91711   0.07708   0.14684   0.00000  Uiso   1.00
C2     C     0.86225   0.12041   0.10243   0.00000  Uiso   1.00
C3     C     0.77784   0.11575   0.04545   0.00000  Uiso   1.00
C4     C     0.73885   0.15993   0.01174   0.00000  Uiso   1.00
C5     C     0.64703   0.22004   0.93933   0.00000  Uiso   1.00
C6     C     0.05256   0.08178   0.13795   0.00000  Uiso   1.00
C7     C     0.12816   0.04464   0.11085   0.00000  Uiso   1.00
C8     C     0.24937   0.05631   0.10705   0.00000  Uiso   1.00
C9     C     0.45303   0.05643   0.08984   0.00000  Uiso   1.00
C10    C     0.89193   0.08850   0.22854   0.00000  Uiso   1.00
C11    C     0.83251   0.05700   0.27761   0.00000  Uiso   1.00
C12    C     0.81851   0.07431   0.35008   0.00000  Uiso   1.00
C13    C     0.77277   0.08486   0.47352   0.00000  Uiso   1.00
C14    C     0.99796   0.16383   0.18830   0.00000  Uiso   1.00
C15    C     0.90617   0.16752   0.12495   0.00000  Uiso   1.00
C16    C     0.86729   0.21172   0.09132   0.00000  Uiso   1.00
C17    C     0.78284   0.20713   0.03429   0.00000  Uiso   1.00
C18    C     0.09648   0.12890   0.16047   0.00000  Uiso   1.00
C19    C     0.21761   0.14062   0.15671   0.00000  Uiso   1.00
C20    C     0.29337   0.10351   0.12961   0.00000  Uiso   1.00
C21    C     0.93585   0.13561   0.25106   0.00000  Uiso   1.00
C22    C     0.92195   0.15297   0.32347   0.00000  Uiso   1.00
C23    C     0.86251   0.12151   0.37264   0.00000  Uiso   1.00
H24    H     0.88293   0.04040   0.12931   0.00000  Uiso   1.00
H25    H     0.74389   0.07928   0.02804   0.00000  Uiso   1.00
H26    H     0.09415   0.00818   0.09344   0.00000  Uiso   1.00
H27    H     0.79854   0.02054   0.26017   0.00000  Uiso   1.00
H28    H     0.60913   0.14316   0.92567   0.00000  Uiso   1.00
H29    H     0.34769   0.99325   0.06359   0.00000  Uiso   1.00
H30    H     0.72433   0.01930   0.41517   0.00000  Uiso   1.00
H31    H     0.03216   0.20051   0.20583   0.00000  Uiso   1.00
H32    H     0.90130   0.24818   0.10875   0.00000  Uiso   1.00
H33    H     0.25156   0.17708   0.17415   0.00000  Uiso   1.00
H34    H     0.95595   0.18944   0.34088   0.00000  Uiso   1.00
H35    H     0.73690   0.28025   0.99117   0.00000  Uiso   1.00
H36    H     0.47545   0.13033   0.12910   0.00000  Uiso   1.00
H37    H     0.85210   0.15638   0.48068   0.00000  Uiso   1.00
O38    O     0.58427   0.24017   0.89316   0.00000  Uiso   1.00
O39    O     0.55322   0.04349   0.07412   0.00000  Uiso   1.00
O40    O     0.73539   0.07767   0.53539   0.00000  Uiso   1.00
N41    N     0.65714   0.16888   0.95442   0.00000  Uiso   1.00
N42    N     0.34764   0.02873   0.08335   0.00000  Uiso   1.00
N43    N     0.76489   0.05308   0.41206   0.00000  Uiso   1.00
N44    N     0.72589   0.24265   0.98967   0.00000  Uiso   1.00
N45    N     0.41639   0.10249   0.11860   0.00000  Uiso   1.00
N46    N     0.83363   0.12684   0.44731   0.00000  Uiso   1.00
C47    C     0.41162   0.56242   0.72220   0.00000  Uiso   1.00
C48    C     0.35419   0.60990   0.69011   0.00000  Uiso   1.00
C49    C     0.26904   0.61139   0.63320   0.00000  Uiso   1.00
C50    C     0.22762   0.65856   0.61178   0.00000  Uiso   1.00
C51    C     0.13206   0.72558   0.55671   0.00000  Uiso   1.00
C52    C     0.54668   0.56931   0.71409   0.00000  Uiso   1.00
C53    C     0.62336   0.53668   0.67735   0.00000  Uiso   1.00
C54    C     0.74398   0.54968   0.67613   0.00000  Uiso   1.00
C55    C     0.94728   0.55367   0.65833   0.00000  Uiso   1.00
C56    C     0.38735   0.56365   0.80570   0.00000  Uiso   1.00
C57    C     0.33011   0.52625   0.84598   0.00000  Uiso   1.00
C58    C     0.31662   0.53449   0.92190   0.00000  Uiso   1.00
C59    C     0.27254   0.52969   0.04633   0.00000  Uiso   1.00
C60    C     0.48948   0.64355   0.78538   0.00000  Uiso   1.00
C61    C     0.39648   0.65397   0.72443   0.00000  Uiso   1.00
C62    C     0.35518   0.70115   0.70310   0.00000  Uiso   1.00
C63    C     0.26998   0.70271   0.64616   0.00000  Uiso   1.00
C64    C     0.58897   0.61338   0.74841   0.00000  Uiso   1.00
C65    C     0.70950   0.62644   0.74725   0.00000  Uiso   1.00
C66    C     0.78635   0.59383   0.71051   0.00000  Uiso   1.00
C67    C     0.42964   0.60772   0.84002   0.00000  Uiso   1.00
C68    C     0.41625   0.61602   0.91588   0.00000  Uiso   1.00
C69    C     0.35899   0.57863   0.95627   0.00000  Uiso   1.00
H70    H     0.37870   0.52811   0.69549   0.00000  Uiso   1.00
H71    H     0.23634   0.57728   0.60665   0.00000  Uiso   1.00
H72    H     0.59061   0.50257   0.65080   0.00000  Uiso   1.00
H73    H     0.29740   0.49215   0.81941   0.00000  Uiso   1.00
H74    H     0.09719   0.65122   0.52327   0.00000  Uiso   1.00
H75    H     0.84419   0.49369   0.61639   0.00000  Uiso   1.00
H76    H     0.22590   0.47172   0.97193   0.00000  Uiso   1.00
H77    H     0.52241   0.67786   0.81210   0.00000  Uiso   1.00
H78    H     0.38792   0.73525   0.72966   0.00000  Uiso   1.00
H79    H     0.74220   0.66054   0.77381   0.00000  Uiso   1.00
H80    H     0.44898   0.65012   0.94242   0.00000  Uiso   1.00
H81    H     0.22022   0.77943   0.62311   0.00000  Uiso   1.00
H82    H     0.96724   0.62190   0.71623   0.00000  Uiso   1.00
H83    H     0.34893   0.59993   0.07177   0.00000  Uiso   1.00
O84    O     0.06768   0.75037   0.51684   0.00000  Uiso   1.00
O85    O     0.04772   0.54370   0.63902   0.00000  Uiso   1.00
O86    O     0.23652   0.51487   0.10548   0.00000  Uiso   1.00
N87    N     0.14458   0.67352   0.55809   0.00000  Uiso   1.00
N88    N     0.84299   0.52625   0.64514   0.00000  Uiso   1.00
N89    N     0.26496   0.50569   0.97755   0.00000  Uiso   1.00
N90    N     0.21079   0.74251   0.61182   0.00000  Uiso   1.00
N91    N     0.90919   0.59524   0.69887   0.00000  Uiso   1.00
N92    N     0.33116   0.57468   0.03127   0.00000  Uiso   1.00
C93    C     0.91762   0.90558   0.81084   0.00000  Uiso   1.00
C94    C     0.86083   0.85796   0.84228   0.00000  Uiso   1.00
C95    C     0.77706   0.85621   0.89893   0.00000  Uiso   1.00
C96    C     0.73602   0.80894   0.91974   0.00000  Uiso   1.00
C97    C     0.64160   0.74167   0.97385   0.00000  Uiso   1.00
C98    C     0.05286   0.89864   0.81927   0.00000  Uiso   1.00
C99    C     0.13054   0.93110   0.85657   0.00000  Uiso   1.00
C100   C     0.25116   0.91808   0.85800   0.00000  Uiso   1.00
C101   C     0.45488   0.91400   0.87634   0.00000  Uiso   1.00
C102   C     0.89131   0.90475   0.72727   0.00000  Uiso   1.00
C103   C     0.83320   0.94234   0.68720   0.00000  Uiso   1.00
C104   C     0.81783   0.93447   0.61117   0.00000  Uiso   1.00
C105   C     0.77073   0.93986   0.48666   0.00000  Uiso   1.00
C106   C     0.99370   0.82474   0.74705   0.00000  Uiso   1.00
C107   C     0.90216   0.81405   0.80763   0.00000  Uiso   1.00
C108   C     0.86123   0.76677   0.82835   0.00000  Uiso   1.00
C109   C     0.77741   0.76495   0.88503   0.00000  Uiso   1.00
C110   C     0.09419   0.85474   0.78462   0.00000  Uiso   1.00
C111   C     0.21472   0.84167   0.78599   0.00000  Uiso   1.00
C112   C     0.29256   0.87410   0.82329   0.00000  Uiso   1.00
C113   C     0.93264   0.86084   0.69261   0.00000  Uiso   1.00
C114   C     0.91737   0.85290   0.61662   0.00000  Uiso   1.00
C115   C     0.85923   0.89048   0.57645   0.00000  Uiso   1.00
H116   H     0.88545   0.93977   0.83782   0.00000  Uiso   1.00
H117   H     0.74511   0.89020   0.92574   0.00000  Uiso   1.00
H118   H     0.09853   0.96508   0.88337   0.00000  Uiso   1.00
H119   H     0.80123   0.97632   0.71403   0.00000  Uiso   1.00
H120   H     0.60776   0.81587   0.00795   0.00000  Uiso   1.00
H121   H     0.35299   0.97378   0.91860   0.00000  Uiso   1.00
H122   H     0.72607   0.99748   0.56152   0.00000  Uiso   1.00
H123   H     0.02588   0.79056   0.72007   0.00000  Uiso   1.00
H124   H     0.89323   0.73280   0.80153   0.00000  Uiso   1.00
H125   H     0.24667   0.80769   0.75917   0.00000  Uiso   1.00
H126   H     0.94936   0.81892   0.58983   0.00000  Uiso   1.00
H127   H     0.72799   0.68812   0.90715   0.00000  Uiso   1.00
H128   H     0.47323   0.84604   0.81779   0.00000  Uiso   1.00
H129   H     0.84630   0.86973   0.46071   0.00000  Uiso   1.00
O130   O     0.57812   0.71669   0.01328   0.00000  Uiso   1.00
O131   O     0.55583   0.92387   0.89604   0.00000  Uiso   1.00
O132   O     0.73332   0.95495   0.42756   0.00000  Uiso   1.00
N133   N     0.65425   0.79373   0.97304   0.00000  Uiso   1.00
N134   N     0.35099   0.94137   0.88951   0.00000  Uiso   1.00
N135   N     0.76490   0.96352   0.55566   0.00000  Uiso   1.00
N136   N     0.71894   0.72499   0.91879   0.00000  Uiso   1.00
N137   N     0.41568   0.87263   0.83526   0.00000  Uiso   1.00
N138   N     0.82959   0.89478   0.50142   0.00000  Uiso   1.00
C139   C     0.43408   0.38969   0.38524   0.00000  Uiso   1.00
C140   C     0.38102   0.34602   0.42916   0.00000  Uiso   1.00
C141   C     0.29866   0.35024   0.48635   0.00000  Uiso   1.00
C142   C     0.26108   0.30581   0.51954   0.00000  Uiso   1.00
C143   C     0.17215   0.24516   0.59130   0.00000  Uiso   1.00
C144   C     0.56987   0.38510   0.39383   0.00000  Uiso   1.00
C145   C     0.64630   0.42216   0.42129   0.00000  Uiso   1.00
C146   C     0.76770   0.41062   0.42473   0.00000  Uiso   1.00
C147   C     0.97197   0.41064   0.44158   0.00000  Uiso   1.00
C148   C     0.40599   0.37873   0.30344   0.00000  Uiso   1.00
C149   C     0.34466   0.41045   0.25489   0.00000  Uiso   1.00
C150   C     0.32810   0.39356   0.18222   0.00000  Uiso   1.00
C151   C     0.27793   0.38370   0.05873   0.00000  Uiso   1.00
C152   C     0.51379   0.30329   0.34250   0.00000  Uiso   1.00
C153   C     0.42432   0.29910   0.40595   0.00000  Uiso   1.00
C154   C     0.38685   0.25465   0.43906   0.00000  Uiso   1.00
C155   C     0.30445   0.25880   0.49628   0.00000  Uiso   1.00
C156   C     0.61317   0.33817   0.37061   0.00000  Uiso   1.00
C157   C     0.73448   0.32658   0.37401   0.00000  Uiso   1.00
C158   C     0.81107   0.36361   0.40147   0.00000  Uiso   1.00
C159   C     0.44929   0.33180   0.28022   0.00000  Uiso   1.00
C160   C     0.43284   0.31486   0.20761   0.00000  Uiso   1.00
C161   C     0.37148   0.34655   0.15896   0.00000  Uiso   1.00
H162   H     0.40039   0.42622   0.40331   0.00000  Uiso   1.00
H163   H     0.26519   0.38656   0.50430   0.00000  Uiso   1.00
H164   H     0.61277   0.45847   0.43925   0.00000  Uiso   1.00
H165   H     0.31117   0.44676   0.27288   0.00000  Uiso   1.00
H166   H     0.13442   0.32190   0.60605   0.00000  Uiso   1.00
H167   H     0.86732   0.47354   0.46885   0.00000  Uiso   1.00
H168   H     0.23133   0.44885   0.11803   0.00000  Uiso   1.00
H169   H     0.54750   0.26676   0.32442   0.00000  Uiso   1.00
H170   H     0.42037   0.21834   0.42109   0.00000  Uiso   1.00
H171   H     0.76795   0.29026   0.35603   0.00000  Uiso   1.00
H172   H     0.46635   0.27855   0.18966   0.00000  Uiso   1.00
H173   H     0.26038   0.18537   0.53851   0.00000  Uiso   1.00
H174   H     0.99328   0.33701   0.40131   0.00000  Uiso   1.00
H175   H     0.35729   0.31232   0.05049   0.00000  Uiso   1.00
O176   O     0.11115   0.22466   0.63731   0.00000  Uiso   1.00
O177   O     0.07268   0.42362   0.45730   0.00000  Uiso   1.00
O178   O     0.23828   0.39122   0.99703   0.00000  Uiso   1.00
N179   N     0.18150   0.29641   0.57688   0.00000  Uiso   1.00
N180   N     0.86671   0.43818   0.44862   0.00000  Uiso   1.00
N181   N     0.27214   0.41510   0.12062   0.00000  Uiso   1.00
N182   N     0.24927   0.22294   0.54053   0.00000  Uiso   1.00
N183   N     0.93448   0.36472   0.41228   0.00000  Uiso   1.00
N184   N     0.33992   0.34164   0.08428   0.00000  Uiso   1.00
C185   C     0.02151   0.06310   0.81338   0.00000  Uiso   1.00
C186   C     0.07816   0.11119   0.84427   0.00000  Uiso   1.00
C187   C     0.16259   0.11376   0.90152   0.00000  Uiso   1.00
C188   C     0.20336   0.16134   0.92166   0.00000  Uiso   1.00
C189   C     0.29769   0.22941   0.97509   0.00000  Uiso   1.00
C190   C     0.88629   0.06987   0.82064   0.00000  Uiso   1.00
C191   C     0.80941   0.03769   0.85802   0.00000  Uiso   1.00
C192   C     0.68867   0.05049   0.85826   0.00000  Uiso   1.00
C193   C     0.48511   0.05438   0.87497   0.00000  Uiso   1.00
C194   C     0.04680   0.06303   0.73000   0.00000  Uiso   1.00
C195   C     0.10486   0.02509   0.69116   0.00000  Uiso   1.00
C196   C     0.11922   0.03212   0.61508   0.00000  Uiso   1.00
C197   C     0.16489   0.02540   0.49105   0.00000  Uiso   1.00
C198   C     0.94377   0.14305   0.74735   0.00000  Uiso   1.00
C199   C     0.03592   0.15461   0.80840   0.00000  Uiso   1.00
C200   C     0.07658   0.20221   0.82846   0.00000  Uiso   1.00
C201   C     0.16106   0.20484   0.88573   0.00000  Uiso   1.00
C202   C     0.84406   0.11329   0.78477   0.00000  Uiso   1.00
C203   C     0.72340   0.12614   0.78496   0.00000  Uiso   1.00
C204   C     0.64636   0.09399   0.82233   0.00000  Uiso   1.00
C205   C     0.00458   0.10645   0.69413   0.00000  Uiso   1.00
C206   C     0.01885   0.11354   0.61810   0.00000  Uiso   1.00
C207   C     0.07692   0.07562   0.57915   0.00000  Uiso   1.00
H208   H     0.05438   0.02929   0.84131   0.00000  Uiso   1.00
H209   H     0.19524   0.08014   0.92927   0.00000  Uiso   1.00
H210   H     0.84212   0.00409   0.88577   0.00000  Uiso   1.00
H211   H     0.13752   0.99149   0.71893   0.00000  Uiso   1.00
H212   H     0.33276   0.15567   0.01098   0.00000  Uiso   1.00
H213   H     0.58817   0.99529   0.91924   0.00000  Uiso   1.00
H214   H     0.21108   0.96873   0.56743   0.00000  Uiso   1.00
H215   H     0.91089   0.17685   0.71942   0.00000  Uiso   1.00
H216   H     0.04388   0.23580   0.80069   0.00000  Uiso   1.00
H217   H     0.69075   0.15974   0.75719   0.00000  Uiso   1.00
H218   H     0.98616   0.14715   0.59036   0.00000  Uiso   1.00
H219   H     0.20991   0.28201   0.90663   0.00000  Uiso   1.00
H220   H     0.46531   0.12163   0.81488   0.00000  Uiso   1.00
H221   H     0.08823   0.09507   0.46308   0.00000  Uiso   1.00
O222   O     0.36138   0.25496   0.01448   0.00000  Uiso   1.00
O223   O     0.38451   0.04454   0.89410   0.00000  Uiso   1.00
O224   O     0.20176   0.00970   0.43255   0.00000  Uiso   1.00
N225   N     0.28561   0.17731   0.97526   0.00000  Uiso   1.00
N226   N     0.58947   0.02737   0.88950   0.00000  Uiso   1.00
N227   N     0.17181   0.00253   0.56058   0.00000  Uiso   1.00
N228   N     0.21951   0.24530   0.91911   0.00000  Uiso   1.00
N229   N     0.52336   0.09535   0.83334   0.00000  Uiso   1.00
N230   N     0.10570   0.07052   0.50443   0.00000  Uiso   1.00
C231   C     0.53341   0.57561   0.38209   0.00000  Uiso   1.00
C232   C     0.58911   0.61844   0.42741   0.00000  Uiso   1.00
C233   C     0.67568   0.61322   0.48298   0.00000  Uiso   1.00
C234   C     0.71510   0.65700   0.51787   0.00000  Uiso   1.00
C235   C     0.80847   0.71631   0.59131   0.00000  Uiso   1.00
C236   C     0.39828   0.57962   0.39310   0.00000  Uiso   1.00
C237   C     0.32442   0.54176   0.41981   0.00000  Uiso   1.00
C238   C     0.20320   0.55287   0.42580   0.00000  Uiso   1.00
C239   C     0.00029   0.55190   0.44592   0.00000  Uiso   1.00
C240   C     0.55531   0.58842   0.30051   0.00000  Uiso   1.00
C241   C     0.61345   0.55795   0.24937   0.00000  Uiso   1.00
C242   C     0.62441   0.57646   0.17740   0.00000  Uiso   1.00
C243   C     0.66531   0.58916   0.05377   0.00000  Uiso   1.00
C244   C     0.44945   0.66265   0.34523   0.00000  Uiso   1.00
C245   C     0.54350   0.66572   0.40739   0.00000  Uiso   1.00
C246   C     0.58279   0.70952   0.44220   0.00000  Uiso   1.00
C247   C     0.66942   0.70437   0.49781   0.00000  Uiso   1.00
C248   C     0.35268   0.62690   0.37308   0.00000  Uiso   1.00
C249   C     0.23153   0.63806   0.37903   0.00000  Uiso   1.00
C250   C     0.15751   0.60023   0.40575   0.00000  Uiso   1.00
C251   C     0.50971   0.63570   0.28049   0.00000  Uiso   1.00
C252   C     0.52056   0.65426   0.20859   0.00000  Uiso   1.00
C253   C     0.57872   0.62383   0.15734   0.00000  Uiso   1.00
H254   H     0.56891   0.53880   0.39768   0.00000  Uiso   1.00
H255   H     0.71095   0.57662   0.49846   0.00000  Uiso   1.00
H256   H     0.35974   0.50517   0.43529   0.00000  Uiso   1.00
H257   H     0.64873   0.52137   0.26488   0.00000  Uiso   1.00
H258   H     0.84828   0.63940   0.60139   0.00000  Uiso   1.00
H259   H     0.10773   0.48874   0.46817   0.00000  Uiso   1.00
H260   H     0.71712   0.52289   0.10882   0.00000  Uiso   1.00
H261   H     0.41394   0.69947   0.32964   0.00000  Uiso   1.00
H262   H     0.54749   0.74610   0.42669   0.00000  Uiso   1.00
H263   H     0.19627   0.67466   0.36353   0.00000  Uiso   1.00
H264   H     0.48526   0.69085   0.19311   0.00000  Uiso   1.00
H265   H     0.71560   0.77696   0.54314   0.00000  Uiso   1.00
H266   H     0.97505   0.62630   0.40992   0.00000  Uiso   1.00
H267   H     0.58444   0.66045   0.05057   0.00000  Uiso   1.00
O268   O     0.87255   0.73596   0.63735   0.00000  Uiso   1.00
O269   O     0.90098   0.53830   0.46256   0.00000  Uiso   1.00
O270   O     0.70049   0.58310   0.99110   0.00000  Uiso   1.00
N271   N     0.79874   0.66537   0.57435   0.00000  Uiso   1.00
N272   N     0.10637   0.52452   0.44981   0.00000  Uiso   1.00
N273   N     0.67608   0.55644   0.11384   0.00000  Uiso   1.00
N274   N     0.72735   0.73939   0.54301   0.00000  Uiso   1.00
N275   N     0.03498   0.59854   0.41847   0.00000  Uiso   1.00
N276   N     0.60469   0.63046   0.08250   0.00000  Uiso   1.00
C277   C     0.01575   0.89124   0.15068   0.00000  Uiso   1.00
C278   C     0.06999   0.84847   0.10528   0.00000  Uiso   1.00
C279   C     0.15448   0.85380   0.04953   0.00000  Uiso   1.00
C280   C     0.19284   0.81006   0.01459   0.00000  Uiso   1.00
C281   C     0.28381   0.75086   0.94100   0.00000  Uiso   1.00
C282   C     0.88023   0.88703   0.13996   0.00000  Uiso   1.00
C283   C     0.80518   0.92478   0.11337   0.00000  Uiso   1.00
C284   C     0.68380   0.91350   0.10763   0.00000  Uiso   1.00
C285   C     0.48015   0.91418   0.08793   0.00000  Uiso   1.00
C286   C     0.04074   0.87848   0.23222   0.00000  Uiso   1.00
C287   C     0.10061   0.90905   0.28323   0.00000  Uiso   1.00
C288   C     0.11434   0.89057   0.35518   0.00000  Uiso   1.00
C289   C     0.15990   0.87798   0.47874   0.00000  Uiso   1.00
C290   C     0.93364   0.80408   0.18777   0.00000  Uiso   1.00
C291   C     0.02539   0.80113   0.12542   0.00000  Uiso   1.00
C292   C     0.06364   0.75737   0.09056   0.00000  Uiso   1.00
C293   C     0.14817   0.76263   0.03477   0.00000  Uiso   1.00
C294   C     0.83564   0.83969   0.16010   0.00000  Uiso   1.00
C295   C     0.71434   0.82836   0.15440   0.00000  Uiso   1.00
C296   C     0.63912   0.86608   0.12781   0.00000  Uiso   1.00
C297   C     0.99615   0.83114   0.25237   0.00000  Uiso   1.00
C298   C     0.00977   0.81262   0.32425   0.00000  Uiso   1.00
C299   C     0.06966   0.84315   0.37536   0.00000  Uiso   1.00
H300   H     0.05046   0.92809   0.13500   0.00000  Uiso   1.00
H301   H     0.18896   0.89044   0.03395   0.00000  Uiso   1.00
H302   H     0.83971   0.96141   0.09780   0.00000  Uiso   1.00
H303   H     0.13510   0.94568   0.26762   0.00000  Uiso   1.00
H304   H     0.32282   0.82782   0.93079   0.00000  Uiso   1.00
H305   H     0.58640   0.97747   0.06543   0.00000  Uiso   1.00
H306   H     0.20929   0.94430   0.42354   0.00000  Uiso   1.00
H307   H     0.89892   0.76723   0.20345   0.00000  Uiso   1.00
H308   H     0.02911   0.72075   0.10616   0.00000  Uiso   1.00
H309   H     0.67986   0.79172   0.17000   0.00000  Uiso   1.00
H310   H     0.97525   0.77599   0.33982   0.00000  Uiso   1.00
H311   H     0.19307   0.69009   0.98939   0.00000  Uiso   1.00
H312   H     0.45665   0.83975   0.12403   0.00000  Uiso   1.00
H313   H     0.07955   0.80657   0.48214   0.00000  Uiso   1.00
O314   O     0.34629   0.73128   0.89484   0.00000  Uiso   1.00
O315   O     0.38015   0.92763   0.07149   0.00000  Uiso   1.00
O316   O     0.19736   0.88410   0.54132   0.00000  Uiso   1.00
N317   N     0.27443   0.80178   0.95794   0.00000  Uiso   1.00
N318   N     0.58593   0.94170   0.08381   0.00000  Uiso   1.00
N319   N     0.16825   0.91069   0.41862   0.00000  Uiso   1.00
N320   N     0.20462   0.72767   0.98948   0.00000  Uiso   1.00
N321   N     0.51612   0.86759   0.11534   0.00000  Uiso   1.00
N322   N     0.09844   0.83658   0.45015   0.00000  Uiso   1.00
C323   C     0.51357   0.40481   0.71819   0.00000  Uiso   1.00
C324   C     0.56965   0.35680   0.68741   0.00000  Uiso   1.00
C325   C     0.65256   0.35435   0.63032   0.00000  Uiso   1.00
C326   C     0.69305   0.30683   0.61024   0.00000  Uiso   1.00
C327   C     0.78633   0.23890   0.55698   0.00000  Uiso   1.00
C328   C     0.37819   0.39784   0.71068   0.00000  Uiso   1.00
C329   C     0.30012   0.42992   0.67317   0.00000  Uiso   1.00
C330   C     0.17943   0.41694   0.67269   0.00000  Uiso   1.00
C331   C     0.97545   0.41276   0.65561   0.00000  Uiso   1.00
C332   C     0.54111   0.40491   0.80163   0.00000  Uiso   1.00
C333   C     0.59999   0.44293   0.84059   0.00000  Uiso   1.00
C334   C     0.61645   0.43591   0.91669   0.00000  Uiso   1.00
C335   C     0.66543   0.44270   0.04081   0.00000  Uiso   1.00
C336   C     0.43805   0.32475   0.78408   0.00000  Uiso   1.00
C337   C     0.52863   0.31331   0.72320   0.00000  Uiso   1.00
C338   C     0.56901   0.26578   0.70321   0.00000  Uiso   1.00
C339   C     0.65197   0.26327   0.64609   0.00000  Uiso   1.00
C340   C     0.33717   0.35436   0.74647   0.00000  Uiso   1.00
C341   C     0.21657   0.34134   0.74606   0.00000  Uiso   1.00
C342   C     0.13834   0.37338   0.70854   0.00000  Uiso   1.00
C343   C     0.50009   0.36143   0.83742   0.00000  Uiso   1.00
C344   C     0.51645   0.35435   0.91348   0.00000  Uiso   1.00
C345   C     0.57536   0.39235   0.95254   0.00000  Uiso   1.00
H346   H     0.54549   0.43866   0.69033   0.00000  Uiso   1.00
H347   H     0.68427   0.38802   0.60263   0.00000  Uiso   1.00
H348   H     0.33188   0.46357   0.64548   0.00000  Uiso   1.00
H349   H     0.63172   0.47658   0.81288   0.00000  Uiso   1.00
H350   H     0.82001   0.31269   0.52116   0.00000  Uiso   1.00
H351   H     0.07698   0.47200   0.61154   0.00000  Uiso   1.00
H352   H     0.70924   0.49944   0.96452   0.00000  Uiso   1.00
H353   H     0.40611   0.29089   0.81194   0.00000  Uiso   1.00
H354   H     0.53725   0.23214   0.73091   0.00000  Uiso   1.00
H355   H     0.18486   0.30769   0.77376   0.00000  Uiso   1.00
H356   H     0.48470   0.32070   0.94115   0.00000  Uiso   1.00
H357   H     0.70068   0.18617   0.62527   0.00000  Uiso   1.00
H358   H     0.95764   0.34549   0.71565   0.00000  Uiso   1.00
H359   H     0.58991   0.37292   0.06863   0.00000  Uiso   1.00
O360   O     0.84909   0.21344   0.51770   0.00000  Uiso   1.00
O361   O     0.87426   0.42246   0.63628   0.00000  Uiso   1.00
O362   O     0.70378   0.45845   0.09938   0.00000  Uiso   1.00
N363   N     0.77395   0.29097   0.55680   0.00000  Uiso   1.00
N364   N     0.07926   0.43992   0.64128   0.00000  Uiso   1.00
N365   N     0.67034   0.46558   0.97129   0.00000  Uiso   1.00
N366   N     0.70974   0.22290   0.61282   0.00000  Uiso   1.00
N367   N     0.01505   0.37184   0.69730   0.00000  Uiso   1.00
N368   N     0.60613   0.39750   0.02731   0.00000  Uiso   1.00
