data_job_02899
_audit_creation_date              2018-12-19
_audit_creation_method            'Materials Studio'
_symmetry_space_group_name_H-M    'P1'
_symmetry_Int_Tables_number       1
_symmetry_cell_setting            triclinic
loop_
_symmetry_equiv_pos_as_xyz
  x,y,z
_cell_length_a                    29.4680
_cell_length_b                    19.3799
_cell_length_c                    11.8360
_cell_angle_alpha                 90.0000
_cell_angle_beta                  90.0000
_cell_angle_gamma                 90.0000
loop_
_atom_site_label
_atom_site_type_symbol
_atom_site_fract_x
_atom_site_fract_y
_atom_site_fract_z
_atom_site_U_iso_or_equiv
_atom_site_adp_type
_atom_site_occupancy
C1     C     0.60561   0.20227   0.40031   0.00000  Uiso   1.00
C2     C     0.63337   0.16625   0.49164   0.00000  Uiso   1.00
C3     C     0.61872   0.15171   0.60050   0.00000  Uiso   1.00
C4     C     0.64922   0.11844   0.67138   0.00000  Uiso   1.00
C5     C     0.68571   0.06529   0.81880   0.00000  Uiso   1.00
C6     C     0.63353   0.26455   0.36335   0.00000  Uiso   1.00
C7     C     0.61900   0.33267   0.36432   0.00000  Uiso   1.00
C8     C     0.64963   0.38216   0.32720   0.00000  Uiso   1.00
C9     C     0.68636   0.48161   0.27536   0.00000  Uiso   1.00
C10    C     0.60491   0.15324   0.29957   0.00000  Uiso   1.00
C11    C     0.56631   0.12778   0.24688   0.00000  Uiso   1.00
C12    C     0.57284   0.08356   0.15603   0.00000  Uiso   1.00
C13    C     0.56512   0.01018   0.00516   0.00000  Uiso   1.00
C14    C     0.68585   0.16903   0.33263   0.00000  Uiso   1.00
C15    C     0.67696   0.14820   0.45488   0.00000  Uiso   1.00
C16    C     0.70749   0.11494   0.52561   0.00000  Uiso   1.00
C17    C     0.69288   0.10036   0.63455   0.00000  Uiso   1.00
C18    C     0.67711   0.24650   0.32659   0.00000  Uiso   1.00
C19    C     0.70777   0.29590   0.28944   0.00000  Uiso   1.00
C20    C     0.69330   0.36407   0.29036   0.00000  Uiso   1.00
C21    C     0.64849   0.13519   0.26280   0.00000  Uiso   1.00
C22    C     0.65508   0.09100   0.17201   0.00000  Uiso   1.00
C23    C     0.61650   0.06547   0.11920   0.00000  Uiso   1.00
H24    H     0.57168   0.21633   0.42893   0.00000  Uiso   1.00
H25    H     0.58498   0.16570   0.62892   0.00000  Uiso   1.00
H26    H     0.58527   0.34662   0.39277   0.00000  Uiso   1.00
H27    H     0.53259   0.14176   0.27536   0.00000  Uiso   1.00
H28    H     0.61897   0.10162   0.83444   0.00000  Uiso   1.00
H29    H     0.61956   0.48312   0.33647   0.00000  Uiso   1.00
H30    H     0.50847   0.05112   0.08888   0.00000  Uiso   1.00
H31    H     0.71978   0.15498   0.30400   0.00000  Uiso   1.00
H32    H     0.74122   0.10098   0.49714   0.00000  Uiso   1.00
H33    H     0.74150   0.28191   0.26099   0.00000  Uiso   1.00
H34    H     0.68882   0.07704   0.14358   0.00000  Uiso   1.00
H35    H     0.74577   0.04910   0.72749   0.00000  Uiso   1.00
H36    H     0.74636   0.43059   0.22951   0.00000  Uiso   1.00
H37    H     0.63527   0.99859   0.98192   0.00000  Uiso   1.00
O38    O     0.69380   0.04096   0.91028   0.00000  Uiso   1.00
O39    O     0.69457   0.54146   0.25694   0.00000  Uiso   1.00
O40    O     0.54883   0.97469   0.93211   0.00000  Uiso   1.00
N41    N     0.64587   0.09666   0.78276   0.00000  Uiso   1.00
N42    N     0.64642   0.45333   0.31720   0.00000  Uiso   1.00
N43    N     0.54256   0.04947   0.08570   0.00000  Uiso   1.00
N44    N     0.71410   0.06839   0.72521   0.00000  Uiso   1.00
N45    N     0.71465   0.42507   0.25965   0.00000  Uiso   1.00
N46    N     0.61079   0.02120   0.02815   0.00000  Uiso   1.00
C47    C     0.89439   0.79773   0.40031   0.00000  Uiso   1.00
C48    C     0.86663   0.83375   0.49164   0.00000  Uiso   1.00
C49    C     0.88128   0.84829   0.60050   0.00000  Uiso   1.00
C50    C     0.85078   0.88156   0.67138   0.00000  Uiso   1.00
C51    C     0.81429   0.93471   0.81880   0.00000  Uiso   1.00
C52    C     0.86647   0.73545   0.36335   0.00000  Uiso   1.00
C53    C     0.88100   0.66733   0.36432   0.00000  Uiso   1.00
C54    C     0.85037   0.61784   0.32720   0.00000  Uiso   1.00
C55    C     0.81364   0.51839   0.27536   0.00000  Uiso   1.00
C56    C     0.89509   0.84676   0.29957   0.00000  Uiso   1.00
C57    C     0.93369   0.87222   0.24688   0.00000  Uiso   1.00
C58    C     0.92716   0.91644   0.15603   0.00000  Uiso   1.00
C59    C     0.93488   0.98982   0.00516   0.00000  Uiso   1.00
C60    C     0.81415   0.83097   0.33263   0.00000  Uiso   1.00
C61    C     0.82304   0.85180   0.45488   0.00000  Uiso   1.00
C62    C     0.79251   0.88506   0.52561   0.00000  Uiso   1.00
C63    C     0.80712   0.89964   0.63455   0.00000  Uiso   1.00
C64    C     0.82289   0.75350   0.32659   0.00000  Uiso   1.00
C65    C     0.79223   0.70410   0.28944   0.00000  Uiso   1.00
C66    C     0.80670   0.63593   0.29036   0.00000  Uiso   1.00
C67    C     0.85151   0.86481   0.26280   0.00000  Uiso   1.00
C68    C     0.84492   0.90900   0.17201   0.00000  Uiso   1.00
C69    C     0.88350   0.93453   0.11920   0.00000  Uiso   1.00
H70    H     0.92832   0.78367   0.42893   0.00000  Uiso   1.00
H71    H     0.91502   0.83430   0.62892   0.00000  Uiso   1.00
H72    H     0.91473   0.65338   0.39277   0.00000  Uiso   1.00
H73    H     0.96741   0.85824   0.27536   0.00000  Uiso   1.00
H74    H     0.88103   0.89838   0.83444   0.00000  Uiso   1.00
H75    H     0.88044   0.51688   0.33647   0.00000  Uiso   1.00
H76    H     0.99153   0.94888   0.08888   0.00000  Uiso   1.00
H77    H     0.78022   0.84502   0.30400   0.00000  Uiso   1.00
H78    H     0.75878   0.89902   0.49714   0.00000  Uiso   1.00
H79    H     0.75850   0.71809   0.26099   0.00000  Uiso   1.00
H80    H     0.81118   0.92296   0.14358   0.00000  Uiso   1.00
H81    H     0.75423   0.95090   0.72749   0.00000  Uiso   1.00
H82    H     0.75364   0.56941   0.22951   0.00000  Uiso   1.00
H83    H     0.86473   0.00141   0.98192   0.00000  Uiso   1.00
O84    O     0.80620   0.95904   0.91028   0.00000  Uiso   1.00
O85    O     0.80543   0.45854   0.25694   0.00000  Uiso   1.00
O86    O     0.95117   0.02531   0.93211   0.00000  Uiso   1.00
N87    N     0.85413   0.90334   0.78276   0.00000  Uiso   1.00
N88    N     0.85358   0.54667   0.31720   0.00000  Uiso   1.00
N89    N     0.95744   0.95053   0.08570   0.00000  Uiso   1.00
N90    N     0.78590   0.93161   0.72521   0.00000  Uiso   1.00
N91    N     0.78535   0.57493   0.25965   0.00000  Uiso   1.00
N92    N     0.88921   0.97880   0.02815   0.00000  Uiso   1.00
C93    C     0.39439   0.20227   0.09969   0.00000  Uiso   1.00
C94    C     0.36663   0.16625   0.00836   0.00000  Uiso   1.00
C95    C     0.38128   0.15171   0.89950   0.00000  Uiso   1.00
C96    C     0.35078   0.11844   0.82862   0.00000  Uiso   1.00
C97    C     0.31429   0.06529   0.68120   0.00000  Uiso   1.00
C98    C     0.36647   0.26455   0.13665   0.00000  Uiso   1.00
C99    C     0.38100   0.33267   0.13568   0.00000  Uiso   1.00
C100   C     0.35037   0.38216   0.17280   0.00000  Uiso   1.00
C101   C     0.31364   0.48161   0.22464   0.00000  Uiso   1.00
C102   C     0.39509   0.15324   0.20043   0.00000  Uiso   1.00
C103   C     0.43369   0.12778   0.25312   0.00000  Uiso   1.00
C104   C     0.42716   0.08356   0.34397   0.00000  Uiso   1.00
C105   C     0.43488   0.01018   0.49484   0.00000  Uiso   1.00
C106   C     0.31415   0.16903   0.16737   0.00000  Uiso   1.00
C107   C     0.32304   0.14820   0.04512   0.00000  Uiso   1.00
C108   C     0.29251   0.11494   0.97439   0.00000  Uiso   1.00
C109   C     0.30712   0.10036   0.86545   0.00000  Uiso   1.00
C110   C     0.32289   0.24650   0.17341   0.00000  Uiso   1.00
C111   C     0.29223   0.29590   0.21056   0.00000  Uiso   1.00
C112   C     0.30670   0.36407   0.20964   0.00000  Uiso   1.00
C113   C     0.35151   0.13519   0.23720   0.00000  Uiso   1.00
C114   C     0.34492   0.09100   0.32799   0.00000  Uiso   1.00
C115   C     0.38350   0.06547   0.38080   0.00000  Uiso   1.00
H116   H     0.42832   0.21633   0.07107   0.00000  Uiso   1.00
H117   H     0.41502   0.16570   0.87108   0.00000  Uiso   1.00
H118   H     0.41473   0.34662   0.10723   0.00000  Uiso   1.00
H119   H     0.46741   0.14176   0.22464   0.00000  Uiso   1.00
H120   H     0.38103   0.10162   0.66556   0.00000  Uiso   1.00
H121   H     0.38044   0.48312   0.16353   0.00000  Uiso   1.00
H122   H     0.49153   0.05112   0.41112   0.00000  Uiso   1.00
H123   H     0.28022   0.15498   0.19600   0.00000  Uiso   1.00
H124   H     0.25878   0.10098   0.00286   0.00000  Uiso   1.00
H125   H     0.25850   0.28191   0.23901   0.00000  Uiso   1.00
H126   H     0.31118   0.07704   0.35642   0.00000  Uiso   1.00
H127   H     0.25423   0.04910   0.77251   0.00000  Uiso   1.00
H128   H     0.25364   0.43059   0.27049   0.00000  Uiso   1.00
H129   H     0.36473   0.99859   0.51808   0.00000  Uiso   1.00
O130   O     0.30620   0.04096   0.58972   0.00000  Uiso   1.00
O131   O     0.30543   0.54146   0.24306   0.00000  Uiso   1.00
O132   O     0.45117   0.97469   0.56789   0.00000  Uiso   1.00
N133   N     0.35413   0.09666   0.71724   0.00000  Uiso   1.00
N134   N     0.35358   0.45333   0.18280   0.00000  Uiso   1.00
N135   N     0.45744   0.04947   0.41430   0.00000  Uiso   1.00
N136   N     0.28590   0.06839   0.77479   0.00000  Uiso   1.00
N137   N     0.28535   0.42507   0.24035   0.00000  Uiso   1.00
N138   N     0.38921   0.02120   0.47185   0.00000  Uiso   1.00
C139   C     0.10561   0.79773   0.09969   0.00000  Uiso   1.00
C140   C     0.13337   0.83375   0.00836   0.00000  Uiso   1.00
C141   C     0.11872   0.84829   0.89950   0.00000  Uiso   1.00
C142   C     0.14922   0.88156   0.82862   0.00000  Uiso   1.00
C143   C     0.18571   0.93471   0.68120   0.00000  Uiso   1.00
C144   C     0.13353   0.73545   0.13665   0.00000  Uiso   1.00
C145   C     0.11900   0.66733   0.13568   0.00000  Uiso   1.00
C146   C     0.14963   0.61784   0.17280   0.00000  Uiso   1.00
C147   C     0.18636   0.51839   0.22464   0.00000  Uiso   1.00
C148   C     0.10491   0.84676   0.20043   0.00000  Uiso   1.00
C149   C     0.06631   0.87222   0.25312   0.00000  Uiso   1.00
C150   C     0.07284   0.91644   0.34397   0.00000  Uiso   1.00
C151   C     0.06512   0.98982   0.49484   0.00000  Uiso   1.00
C152   C     0.18585   0.83097   0.16737   0.00000  Uiso   1.00
C153   C     0.17696   0.85180   0.04512   0.00000  Uiso   1.00
C154   C     0.20749   0.88506   0.97439   0.00000  Uiso   1.00
C155   C     0.19288   0.89964   0.86545   0.00000  Uiso   1.00
C156   C     0.17711   0.75350   0.17341   0.00000  Uiso   1.00
C157   C     0.20777   0.70410   0.21056   0.00000  Uiso   1.00
C158   C     0.19330   0.63593   0.20964   0.00000  Uiso   1.00
C159   C     0.14849   0.86481   0.23720   0.00000  Uiso   1.00
C160   C     0.15508   0.90900   0.32799   0.00000  Uiso   1.00
C161   C     0.11650   0.93453   0.38080   0.00000  Uiso   1.00
H162   H     0.07168   0.78367   0.07107   0.00000  Uiso   1.00
H163   H     0.08498   0.83430   0.87108   0.00000  Uiso   1.00
H164   H     0.08527   0.65338   0.10723   0.00000  Uiso   1.00
H165   H     0.03259   0.85824   0.22464   0.00000  Uiso   1.00
H166   H     0.11897   0.89838   0.66556   0.00000  Uiso   1.00
H167   H     0.11956   0.51688   0.16353   0.00000  Uiso   1.00
H168   H     0.00847   0.94888   0.41112   0.00000  Uiso   1.00
H169   H     0.21978   0.84502   0.19600   0.00000  Uiso   1.00
H170   H     0.24122   0.89902   0.00286   0.00000  Uiso   1.00
H171   H     0.24150   0.71809   0.23901   0.00000  Uiso   1.00
H172   H     0.18882   0.92296   0.35642   0.00000  Uiso   1.00
H173   H     0.24577   0.95090   0.77251   0.00000  Uiso   1.00
H174   H     0.24636   0.56941   0.27049   0.00000  Uiso   1.00
H175   H     0.13527   0.00141   0.51808   0.00000  Uiso   1.00
O176   O     0.19380   0.95904   0.58972   0.00000  Uiso   1.00
O177   O     0.19457   0.45854   0.24306   0.00000  Uiso   1.00
O178   O     0.04883   0.02531   0.56789   0.00000  Uiso   1.00
N179   N     0.14587   0.90334   0.71724   0.00000  Uiso   1.00
N180   N     0.14642   0.54667   0.18280   0.00000  Uiso   1.00
N181   N     0.04256   0.95053   0.41430   0.00000  Uiso   1.00
N182   N     0.21410   0.93161   0.77479   0.00000  Uiso   1.00
N183   N     0.21465   0.57493   0.24035   0.00000  Uiso   1.00
N184   N     0.11079   0.97880   0.47185   0.00000  Uiso   1.00
C185   C     0.39439   0.79773   0.59969   0.00000  Uiso   1.00
C186   C     0.36663   0.83375   0.50836   0.00000  Uiso   1.00
C187   C     0.38128   0.84829   0.39950   0.00000  Uiso   1.00
C188   C     0.35078   0.88156   0.32862   0.00000  Uiso   1.00
C189   C     0.31429   0.93471   0.18120   0.00000  Uiso   1.00
C190   C     0.36647   0.73545   0.63665   0.00000  Uiso   1.00
C191   C     0.38100   0.66733   0.63568   0.00000  Uiso   1.00
C192   C     0.35037   0.61784   0.67280   0.00000  Uiso   1.00
C193   C     0.31364   0.51839   0.72464   0.00000  Uiso   1.00
C194   C     0.39509   0.84676   0.70043   0.00000  Uiso   1.00
C195   C     0.43369   0.87222   0.75312   0.00000  Uiso   1.00
C196   C     0.42716   0.91644   0.84397   0.00000  Uiso   1.00
C197   C     0.43488   0.98982   0.99484   0.00000  Uiso   1.00
C198   C     0.31415   0.83097   0.66737   0.00000  Uiso   1.00
C199   C     0.32304   0.85180   0.54512   0.00000  Uiso   1.00
C200   C     0.29251   0.88506   0.47439   0.00000  Uiso   1.00
C201   C     0.30712   0.89964   0.36545   0.00000  Uiso   1.00
C202   C     0.32289   0.75350   0.67341   0.00000  Uiso   1.00
C203   C     0.29223   0.70410   0.71056   0.00000  Uiso   1.00
C204   C     0.30670   0.63593   0.70964   0.00000  Uiso   1.00
C205   C     0.35151   0.86481   0.73720   0.00000  Uiso   1.00
C206   C     0.34492   0.90900   0.82799   0.00000  Uiso   1.00
C207   C     0.38350   0.93453   0.88080   0.00000  Uiso   1.00
H208   H     0.42832   0.78367   0.57107   0.00000  Uiso   1.00
H209   H     0.41502   0.83430   0.37108   0.00000  Uiso   1.00
H210   H     0.41473   0.65338   0.60723   0.00000  Uiso   1.00
H211   H     0.46741   0.85824   0.72464   0.00000  Uiso   1.00
H212   H     0.38103   0.89838   0.16556   0.00000  Uiso   1.00
H213   H     0.38044   0.51688   0.66353   0.00000  Uiso   1.00
H214   H     0.49153   0.94888   0.91112   0.00000  Uiso   1.00
H215   H     0.28022   0.84502   0.69600   0.00000  Uiso   1.00
H216   H     0.25878   0.89902   0.50286   0.00000  Uiso   1.00
H217   H     0.25850   0.71809   0.73901   0.00000  Uiso   1.00
H218   H     0.31118   0.92296   0.85642   0.00000  Uiso   1.00
H219   H     0.25423   0.95090   0.27251   0.00000  Uiso   1.00
H220   H     0.25364   0.56941   0.77049   0.00000  Uiso   1.00
H221   H     0.36473   0.00141   0.01808   0.00000  Uiso   1.00
O222   O     0.30620   0.95904   0.08972   0.00000  Uiso   1.00
O223   O     0.30543   0.45854   0.74306   0.00000  Uiso   1.00
O224   O     0.45117   0.02531   0.06789   0.00000  Uiso   1.00
N225   N     0.35413   0.90334   0.21724   0.00000  Uiso   1.00
N226   N     0.35358   0.54667   0.68280   0.00000  Uiso   1.00
N227   N     0.45744   0.95053   0.91430   0.00000  Uiso   1.00
N228   N     0.28590   0.93161   0.27479   0.00000  Uiso   1.00
N229   N     0.28535   0.57493   0.74035   0.00000  Uiso   1.00
N230   N     0.38921   0.97880   0.97185   0.00000  Uiso   1.00
C231   C     0.10561   0.20227   0.59969   0.00000  Uiso   1.00
C232   C     0.13337   0.16625   0.50836   0.00000  Uiso   1.00
C233   C     0.11872   0.15171   0.39950   0.00000  Uiso   1.00
C234   C     0.14922   0.11844   0.32862   0.00000  Uiso   1.00
C235   C     0.18571   0.06529   0.18120   0.00000  Uiso   1.00
C236   C     0.13353   0.26455   0.63665   0.00000  Uiso   1.00
C237   C     0.11900   0.33267   0.63568   0.00000  Uiso   1.00
C238   C     0.14963   0.38216   0.67280   0.00000  Uiso   1.00
C239   C     0.18636   0.48161   0.72464   0.00000  Uiso   1.00
C240   C     0.10491   0.15324   0.70043   0.00000  Uiso   1.00
C241   C     0.06631   0.12778   0.75312   0.00000  Uiso   1.00
C242   C     0.07284   0.08356   0.84397   0.00000  Uiso   1.00
C243   C     0.06512   0.01018   0.99484   0.00000  Uiso   1.00
C244   C     0.18585   0.16903   0.66737   0.00000  Uiso   1.00
C245   C     0.17696   0.14820   0.54512   0.00000  Uiso   1.00
C246   C     0.20749   0.11494   0.47439   0.00000  Uiso   1.00
C247   C     0.19288   0.10036   0.36545   0.00000  Uiso   1.00
C248   C     0.17711   0.24650   0.67341   0.00000  Uiso   1.00
C249   C     0.20777   0.29590   0.71056   0.00000  Uiso   1.00
C250   C     0.19330   0.36407   0.70964   0.00000  Uiso   1.00
C251   C     0.14849   0.13519   0.73720   0.00000  Uiso   1.00
C252   C     0.15508   0.09100   0.82799   0.00000  Uiso   1.00
C253   C     0.11650   0.06547   0.88080   0.00000  Uiso   1.00
H254   H     0.07168   0.21633   0.57107   0.00000  Uiso   1.00
H255   H     0.08498   0.16570   0.37108   0.00000  Uiso   1.00
H256   H     0.08527   0.34662   0.60723   0.00000  Uiso   1.00
H257   H     0.03259   0.14176   0.72464   0.00000  Uiso   1.00
H258   H     0.11897   0.10162   0.16556   0.00000  Uiso   1.00
H259   H     0.11956   0.48312   0.66353   0.00000  Uiso   1.00
H260   H     0.00847   0.05112   0.91112   0.00000  Uiso   1.00
H261   H     0.21978   0.15498   0.69600   0.00000  Uiso   1.00
H262   H     0.24122   0.10098   0.50286   0.00000  Uiso   1.00
H263   H     0.24150   0.28191   0.73901   0.00000  Uiso   1.00
H264   H     0.18882   0.07704   0.85642   0.00000  Uiso   1.00
H265   H     0.24577   0.04910   0.27251   0.00000  Uiso   1.00
H266   H     0.24636   0.43059   0.77049   0.00000  Uiso   1.00
H267   H     0.13527   0.99859   0.01808   0.00000  Uiso   1.00
O268   O     0.19380   0.04096   0.08972   0.00000  Uiso   1.00
O269   O     0.19457   0.54146   0.74306   0.00000  Uiso   1.00
O270   O     0.04883   0.97469   0.06789   0.00000  Uiso   1.00
N271   N     0.14587   0.09666   0.21724   0.00000  Uiso   1.00
N272   N     0.14642   0.45333   0.68280   0.00000  Uiso   1.00
N273   N     0.04256   0.04947   0.91430   0.00000  Uiso   1.00
N274   N     0.21410   0.06839   0.27479   0.00000  Uiso   1.00
N275   N     0.21465   0.42507   0.74035   0.00000  Uiso   1.00
N276   N     0.11079   0.02120   0.97185   0.00000  Uiso   1.00
C277   C     0.60561   0.79773   0.90031   0.00000  Uiso   1.00
C278   C     0.63337   0.83375   0.99164   0.00000  Uiso   1.00
C279   C     0.61872   0.84829   0.10050   0.00000  Uiso   1.00
C280   C     0.64922   0.88156   0.17138   0.00000  Uiso   1.00
C281   C     0.68571   0.93471   0.31880   0.00000  Uiso   1.00
C282   C     0.63353   0.73545   0.86335   0.00000  Uiso   1.00
C283   C     0.61900   0.66733   0.86432   0.00000  Uiso   1.00
C284   C     0.64963   0.61784   0.82720   0.00000  Uiso   1.00
C285   C     0.68636   0.51839   0.77536   0.00000  Uiso   1.00
C286   C     0.60491   0.84676   0.79957   0.00000  Uiso   1.00
C287   C     0.56631   0.87222   0.74688   0.00000  Uiso   1.00
C288   C     0.57284   0.91644   0.65603   0.00000  Uiso   1.00
C289   C     0.56512   0.98982   0.50516   0.00000  Uiso   1.00
C290   C     0.68585   0.83097   0.83263   0.00000  Uiso   1.00
C291   C     0.67696   0.85180   0.95488   0.00000  Uiso   1.00
C292   C     0.70749   0.88506   0.02561   0.00000  Uiso   1.00
C293   C     0.69288   0.89964   0.13455   0.00000  Uiso   1.00
C294   C     0.67711   0.75350   0.82659   0.00000  Uiso   1.00
C295   C     0.70777   0.70410   0.78944   0.00000  Uiso   1.00
C296   C     0.69330   0.63593   0.79036   0.00000  Uiso   1.00
C297   C     0.64849   0.86481   0.76280   0.00000  Uiso   1.00
C298   C     0.65508   0.90900   0.67201   0.00000  Uiso   1.00
C299   C     0.61650   0.93453   0.61920   0.00000  Uiso   1.00
H300   H     0.57168   0.78367   0.92893   0.00000  Uiso   1.00
H301   H     0.58498   0.83430   0.12892   0.00000  Uiso   1.00
H302   H     0.58527   0.65338   0.89277   0.00000  Uiso   1.00
H303   H     0.53259   0.85824   0.77536   0.00000  Uiso   1.00
H304   H     0.61897   0.89838   0.33444   0.00000  Uiso   1.00
H305   H     0.61956   0.51688   0.83647   0.00000  Uiso   1.00
H306   H     0.50847   0.94888   0.58888   0.00000  Uiso   1.00
H307   H     0.71978   0.84502   0.80400   0.00000  Uiso   1.00
H308   H     0.74122   0.89902   0.99714   0.00000  Uiso   1.00
H309   H     0.74150   0.71809   0.76099   0.00000  Uiso   1.00
H310   H     0.68882   0.92296   0.64358   0.00000  Uiso   1.00
H311   H     0.74577   0.95090   0.22749   0.00000  Uiso   1.00
H312   H     0.74636   0.56941   0.72951   0.00000  Uiso   1.00
H313   H     0.63527   0.00141   0.48192   0.00000  Uiso   1.00
O314   O     0.69380   0.95904   0.41028   0.00000  Uiso   1.00
O315   O     0.69457   0.45854   0.75694   0.00000  Uiso   1.00
O316   O     0.54883   0.02531   0.43211   0.00000  Uiso   1.00
N317   N     0.64587   0.90334   0.28276   0.00000  Uiso   1.00
N318   N     0.64642   0.54667   0.81720   0.00000  Uiso   1.00
N319   N     0.54256   0.95053   0.58570   0.00000  Uiso   1.00
N320   N     0.71410   0.93161   0.22521   0.00000  Uiso   1.00
N321   N     0.71465   0.57493   0.75965   0.00000  Uiso   1.00
N322   N     0.61079   0.97880   0.52815   0.00000  Uiso   1.00
C323   C     0.89439   0.20227   0.90031   0.00000  Uiso   1.00
C324   C     0.86663   0.16625   0.99164   0.00000  Uiso   1.00
C325   C     0.88128   0.15171   0.10050   0.00000  Uiso   1.00
C326   C     0.85078   0.11844   0.17138   0.00000  Uiso   1.00
C327   C     0.81429   0.06529   0.31880   0.00000  Uiso   1.00
C328   C     0.86647   0.26455   0.86335   0.00000  Uiso   1.00
C329   C     0.88100   0.33267   0.86432   0.00000  Uiso   1.00
C330   C     0.85037   0.38216   0.82720   0.00000  Uiso   1.00
C331   C     0.81364   0.48161   0.77536   0.00000  Uiso   1.00
C332   C     0.89509   0.15324   0.79957   0.00000  Uiso   1.00
C333   C     0.93369   0.12778   0.74688   0.00000  Uiso   1.00
C334   C     0.92716   0.08356   0.65603   0.00000  Uiso   1.00
C335   C     0.93488   0.01018   0.50516   0.00000  Uiso   1.00
C336   C     0.81415   0.16903   0.83263   0.00000  Uiso   1.00
C337   C     0.82304   0.14820   0.95488   0.00000  Uiso   1.00
C338   C     0.79251   0.11494   0.02561   0.00000  Uiso   1.00
C339   C     0.80712   0.10036   0.13455   0.00000  Uiso   1.00
C340   C     0.82289   0.24650   0.82659   0.00000  Uiso   1.00
C341   C     0.79223   0.29590   0.78944   0.00000  Uiso   1.00
C342   C     0.80670   0.36407   0.79036   0.00000  Uiso   1.00
C343   C     0.85151   0.13519   0.76280   0.00000  Uiso   1.00
C344   C     0.84492   0.09100   0.67201   0.00000  Uiso   1.00
C345   C     0.88350   0.06547   0.61920   0.00000  Uiso   1.00
H346   H     0.92832   0.21633   0.92893   0.00000  Uiso   1.00
H347   H     0.91502   0.16570   0.12892   0.00000  Uiso   1.00
H348   H     0.91473   0.34662   0.89277   0.00000  Uiso   1.00
H349   H     0.96741   0.14176   0.77536   0.00000  Uiso   1.00
H350   H     0.88103   0.10162   0.33444   0.00000  Uiso   1.00
H351   H     0.88044   0.48312   0.83647   0.00000  Uiso   1.00
H352   H     0.99153   0.05112   0.58888   0.00000  Uiso   1.00
H353   H     0.78022   0.15498   0.80400   0.00000  Uiso   1.00
H354   H     0.75878   0.10098   0.99714   0.00000  Uiso   1.00
H355   H     0.75850   0.28191   0.76099   0.00000  Uiso   1.00
H356   H     0.81118   0.07704   0.64358   0.00000  Uiso   1.00
H357   H     0.75423   0.04910   0.22749   0.00000  Uiso   1.00
H358   H     0.75364   0.43059   0.72951   0.00000  Uiso   1.00
H359   H     0.86473   0.99859   0.48192   0.00000  Uiso   1.00
O360   O     0.80620   0.04096   0.41028   0.00000  Uiso   1.00
O361   O     0.80543   0.54146   0.75694   0.00000  Uiso   1.00
O362   O     0.95117   0.97469   0.43211   0.00000  Uiso   1.00
N363   N     0.85413   0.09666   0.28276   0.00000  Uiso   1.00
N364   N     0.85358   0.45333   0.81720   0.00000  Uiso   1.00
N365   N     0.95744   0.04947   0.58570   0.00000  Uiso   1.00
N366   N     0.78590   0.06839   0.22521   0.00000  Uiso   1.00
N367   N     0.78535   0.42507   0.75965   0.00000  Uiso   1.00
N368   N     0.88921   0.02120   0.52815   0.00000  Uiso   1.00
