data_job_03248
_audit_creation_date              2018-12-19
_audit_creation_method            'Materials Studio'
_symmetry_space_group_name_H-M    'P1'
_symmetry_Int_Tables_number       1
_symmetry_cell_setting            triclinic
loop_
_symmetry_equiv_pos_as_xyz
  x,y,z
_cell_length_a                    7.6298
_cell_length_b                    11.7213
_cell_length_c                    15.0168
_cell_angle_alpha                 108.1492
_cell_angle_beta                  94.5504
_cell_angle_gamma                 98.7481
loop_
_atom_site_label
_atom_site_type_symbol
_atom_site_fract_x
_atom_site_fract_y
_atom_site_fract_z
_atom_site_U_iso_or_equiv
_atom_site_adp_type
_atom_site_occupancy
C1     C     0.00886   0.18422   0.33905   0.00000  Uiso   1.00
C2     C     0.01015   0.21498   0.24760   0.00000  Uiso   1.00
C3     C     0.89661   0.28121   0.21711   0.00000  Uiso   1.00
C4     C     0.91916   0.29952   0.13142   0.00000  Uiso   1.00
C5     C     0.90111   0.35427   0.99749   0.00000  Uiso   1.00
C6     C     0.98470   0.04541   0.30994   0.00000  Uiso   1.00
C7     C     0.84978   0.96907   0.33188   0.00000  Uiso   1.00
C8     C     0.85093   0.84463   0.29867   0.00000  Uiso   1.00
C9     C     0.79345   0.63613   0.26160   0.00000  Uiso   1.00
C10    C     0.19753   0.23383   0.39246   0.00000  Uiso   1.00
C11    C     0.24155   0.31591   0.48379   0.00000  Uiso   1.00
C12    C     0.42189   0.35009   0.52007   0.00000  Uiso   1.00
C13    C     0.69485   0.43414   0.61111   0.00000  Uiso   1.00
C14    C     0.25082   0.09895   0.24108   0.00000  Uiso   1.00
C15    C     0.14157   0.16866   0.19439   0.00000  Uiso   1.00
C16    C     0.16430   0.18687   0.10872   0.00000  Uiso   1.00
C17    C     0.05082   0.25312   0.07811   0.00000  Uiso   1.00
C18    C     0.11612   0.99909   0.25673   0.00000  Uiso   1.00
C19    C     0.11748   0.87473   0.22349   0.00000  Uiso   1.00
C20    C     0.98259   0.79823   0.24536   0.00000  Uiso   1.00
C21    C     0.32895   0.18752   0.33925   0.00000  Uiso   1.00
C22    C     0.50925   0.22157   0.37539   0.00000  Uiso   1.00
C23    C     0.55355   0.30368   0.46676   0.00000  Uiso   1.00
H24    H     0.90654   0.22027   0.38048   0.00000  Uiso   1.00
H25    H     0.79491   0.31703   0.25831   0.00000  Uiso   1.00
H26    H     0.74811   0.00494   0.37307   0.00000  Uiso   1.00
H27    H     0.13982   0.35173   0.52495   0.00000  Uiso   1.00
H28    H     0.72906   0.40384   0.09938   0.00000  Uiso   1.00
H29    H     0.63041   0.74579   0.34139   0.00000  Uiso   1.00
H30    H     0.45641   0.47705   0.66166   0.00000  Uiso   1.00
H31    H     0.35314   0.06289   0.19964   0.00000  Uiso   1.00
H32    H     0.26602   0.15102   0.06755   0.00000  Uiso   1.00
H33    H     0.21921   0.83892   0.18231   0.00000  Uiso   1.00
H34    H     0.61092   0.18571   0.33419   0.00000  Uiso   1.00
H35    H     0.11142   0.26910   0.94455   0.00000  Uiso   1.00
H36    H     0.01277   0.61104   0.18656   0.00000  Uiso   1.00
H37    H     0.83877   0.34231   0.50683   0.00000  Uiso   1.00
O38    O     0.85483   0.39725   0.93832   0.00000  Uiso   1.00
O39    O     0.72542   0.53391   0.25584   0.00000  Uiso   1.00
O40    O     0.80911   0.49332   0.67603   0.00000  Uiso   1.00
N41    N     0.83103   0.36006   0.08108   0.00000  Uiso   1.00
N42    N     0.73878   0.74481   0.30733   0.00000  Uiso   1.00
N43    N     0.51101   0.42846   0.60677   0.00000  Uiso   1.00
N44    N     0.03677   0.28755   0.99777   0.00000  Uiso   1.00
N45    N     0.94452   0.67231   0.22401   0.00000  Uiso   1.00
N46    N     0.71676   0.35595   0.52345   0.00000  Uiso   1.00
C47    C     0.99114   0.81578   0.66095   0.00000  Uiso   1.00
C48    C     0.98985   0.78502   0.75240   0.00000  Uiso   1.00
C49    C     0.10339   0.71879   0.78289   0.00000  Uiso   1.00
C50    C     0.08084   0.70048   0.86858   0.00000  Uiso   1.00
C51    C     0.09889   0.64573   0.00251   0.00000  Uiso   1.00
C52    C     0.01530   0.95459   0.69006   0.00000  Uiso   1.00
C53    C     0.15022   0.03093   0.66812   0.00000  Uiso   1.00
C54    C     0.14907   0.15537   0.70133   0.00000  Uiso   1.00
C55    C     0.20655   0.36387   0.73840   0.00000  Uiso   1.00
C56    C     0.80247   0.76617   0.60754   0.00000  Uiso   1.00
C57    C     0.75845   0.68409   0.51621   0.00000  Uiso   1.00
C58    C     0.57811   0.64991   0.47993   0.00000  Uiso   1.00
C59    C     0.30515   0.56586   0.38889   0.00000  Uiso   1.00
C60    C     0.74918   0.90105   0.75892   0.00000  Uiso   1.00
C61    C     0.85843   0.83134   0.80561   0.00000  Uiso   1.00
C62    C     0.83570   0.81313   0.89128   0.00000  Uiso   1.00
C63    C     0.94918   0.74688   0.92189   0.00000  Uiso   1.00
C64    C     0.88388   0.00091   0.74327   0.00000  Uiso   1.00
C65    C     0.88252   0.12527   0.77651   0.00000  Uiso   1.00
C66    C     0.01741   0.20177   0.75464   0.00000  Uiso   1.00
C67    C     0.67105   0.81248   0.66075   0.00000  Uiso   1.00
C68    C     0.49075   0.77843   0.62461   0.00000  Uiso   1.00
C69    C     0.44645   0.69632   0.53324   0.00000  Uiso   1.00
H70    H     0.09346   0.77973   0.61952   0.00000  Uiso   1.00
H71    H     0.20509   0.68297   0.74169   0.00000  Uiso   1.00
H72    H     0.25189   0.99506   0.62693   0.00000  Uiso   1.00
H73    H     0.86018   0.64827   0.47505   0.00000  Uiso   1.00
H74    H     0.27094   0.59616   0.90062   0.00000  Uiso   1.00
H75    H     0.36959   0.25421   0.65861   0.00000  Uiso   1.00
H76    H     0.54359   0.52295   0.33834   0.00000  Uiso   1.00
H77    H     0.64686   0.93711   0.80036   0.00000  Uiso   1.00
H78    H     0.73398   0.84898   0.93245   0.00000  Uiso   1.00
H79    H     0.78079   0.16108   0.81769   0.00000  Uiso   1.00
H80    H     0.38908   0.81429   0.66581   0.00000  Uiso   1.00
H81    H     0.88858   0.73090   0.05545   0.00000  Uiso   1.00
H82    H     0.98723   0.38896   0.81344   0.00000  Uiso   1.00
H83    H     0.16123   0.65769   0.49317   0.00000  Uiso   1.00
O84    O     0.14517   0.60275   0.06168   0.00000  Uiso   1.00
O85    O     0.27458   0.46609   0.74416   0.00000  Uiso   1.00
O86    O     0.19089   0.50668   0.32397   0.00000  Uiso   1.00
N87    N     0.16897   0.63994   0.91892   0.00000  Uiso   1.00
N88    N     0.26122   0.25519   0.69267   0.00000  Uiso   1.00
N89    N     0.48899   0.57154   0.39323   0.00000  Uiso   1.00
N90    N     0.96323   0.71245   0.00223   0.00000  Uiso   1.00
N91    N     0.05548   0.32769   0.77599   0.00000  Uiso   1.00
N92    N     0.28324   0.64405   0.47655   0.00000  Uiso   1.00
