data_job_06625
_audit_creation_date              2018-12-19
_audit_creation_method            'Materials Studio'
_symmetry_space_group_name_H-M    'P1'
_symmetry_Int_Tables_number       1
_symmetry_cell_setting            triclinic
loop_
_symmetry_equiv_pos_as_xyz
  x,y,z
_cell_length_a                    18.2799
_cell_length_b                    22.5586
_cell_length_c                    18.7671
_cell_angle_alpha                 95.8690
_cell_angle_beta                  85.9334
_cell_angle_gamma                 96.6979
loop_
_atom_site_label
_atom_site_type_symbol
_atom_site_fract_x
_atom_site_fract_y
_atom_site_fract_z
_atom_site_U_iso_or_equiv
_atom_site_adp_type
_atom_site_occupancy
C1     C     0.62210   0.39454   0.87182   0.00000  Uiso   1.00
C2     C     0.62545   0.43884   0.93887   0.00000  Uiso   1.00
C3     C     0.61292   0.42419   0.00907   0.00000  Uiso   1.00
C4     C     0.61861   0.47122   0.06293   0.00000  Uiso   1.00
C5     C     0.62110   0.53095   0.16946   0.00000  Uiso   1.00
C6     C     0.56616   0.41496   0.82566   0.00000  Uiso   1.00
C7     C     0.50378   0.38024   0.80067   0.00000  Uiso   1.00
C8     C     0.45957   0.40716   0.75921   0.00000  Uiso   1.00
C9     C     0.37004   0.42981   0.68993   0.00000  Uiso   1.00
C10    C     0.69687   0.40489   0.83093   0.00000  Uiso   1.00
C11    C     0.74439   0.36170   0.81034   0.00000  Uiso   1.00
C12    C     0.81022   0.38014   0.77330   0.00000  Uiso   1.00
C13    C     0.92364   0.38716   0.71220   0.00000  Uiso   1.00
C14    C     0.65449   0.50409   0.84263   0.00000  Uiso   1.00
C15    C     0.64304   0.49834   0.92302   0.00000  Uiso   1.00
C16    C     0.64876   0.54540   0.97678   0.00000  Uiso   1.00
C17    C     0.63623   0.53083   0.04705   0.00000  Uiso   1.00
C18    C     0.58375   0.47446   0.80980   0.00000  Uiso   1.00
C19    C     0.53962   0.50144   0.76837   0.00000  Uiso   1.00
C20    C     0.47719   0.46677   0.74333   0.00000  Uiso   1.00
C21    C     0.71447   0.46439   0.81507   0.00000  Uiso   1.00
C22    C     0.78023   0.48290   0.77805   0.00000  Uiso   1.00
C23    C     0.82784   0.43975   0.75742   0.00000  Uiso   1.00
H24    H     0.60840   0.34821   0.88416   0.00000  Uiso   1.00
H25    H     0.59930   0.37814   0.02132   0.00000  Uiso   1.00
H26    H     0.49019   0.33419   0.81294   0.00000  Uiso   1.00
H27    H     0.73076   0.31565   0.82262   0.00000  Uiso   1.00
H28    H     0.59694   0.43756   0.16640   0.00000  Uiso   1.00
H29    H     0.36689   0.34488   0.72699   0.00000  Uiso   1.00
H30    H     0.87418   0.30580   0.74740   0.00000  Uiso   1.00
H31    H     0.66819   0.55042   0.83029   0.00000  Uiso   1.00
H32    H     0.66237   0.59144   0.96450   0.00000  Uiso   1.00
H33    H     0.55326   0.54749   0.75611   0.00000  Uiso   1.00
H34    H     0.79383   0.52896   0.76579   0.00000  Uiso   1.00
H35    H     0.64813   0.61069   0.12028   0.00000  Uiso   1.00
H36    H     0.41808   0.51801   0.68087   0.00000  Uiso   1.00
H37    H     0.92537   0.47892   0.70128   0.00000  Uiso   1.00
O38    O     0.61760   0.54747   0.23259   0.00000  Uiso   1.00
O39    O     0.31580   0.42587   0.65610   0.00000  Uiso   1.00
O40    O     0.98134   0.37459   0.68288   0.00000  Uiso   1.00
N41    N     0.60980   0.47268   0.13712   0.00000  Uiso   1.00
N42    N     0.39471   0.38603   0.72632   0.00000  Uiso   1.00
N43    N     0.86897   0.34948   0.74538   0.00000  Uiso   1.00
N44    N     0.63735   0.56583   0.11231   0.00000  Uiso   1.00
N45    N     0.42225   0.47919   0.70150   0.00000  Uiso   1.00
N46    N     0.89652   0.44264   0.72056   0.00000  Uiso   1.00
C47    C     0.77155   0.37057   0.39010   0.00000  Uiso   1.00
C48    C     0.85068   0.35456   0.38389   0.00000  Uiso   1.00
C49    C     0.88201   0.31927   0.32761   0.00000  Uiso   1.00
C50    C     0.95521   0.30987   0.33196   0.00000  Uiso   1.00
C51    C     0.07192   0.28117   0.31342   0.00000  Uiso   1.00
C52    C     0.73774   0.34985   0.46123   0.00000  Uiso   1.00
C53    C     0.67410   0.31061   0.46997   0.00000  Uiso   1.00
C54    C     0.65224   0.29726   0.53943   0.00000  Uiso   1.00
C55    C     0.59358   0.26129   0.64096   0.00000  Uiso   1.00
C56    C     0.77716   0.43887   0.39907   0.00000  Uiso   1.00
C57    C     0.74665   0.47448   0.35556   0.00000  Uiso   1.00
C58    C     0.75796   0.53607   0.37268   0.00000  Uiso   1.00
C59    C     0.76050   0.63832   0.37770   0.00000  Uiso   1.00
C60    C     0.84585   0.41664   0.49790   0.00000  Uiso   1.00
C61    C     0.89103   0.37958   0.44244   0.00000  Uiso   1.00
C62    C     0.96421   0.37024   0.44687   0.00000  Uiso   1.00
C63    C     0.99564   0.33494   0.39061   0.00000  Uiso   1.00
C64    C     0.77809   0.37487   0.51978   0.00000  Uiso   1.00
C65    C     0.75631   0.36158   0.58923   0.00000  Uiso   1.00
C66    C     0.69267   0.32233   0.59808   0.00000  Uiso   1.00
C67    C     0.81752   0.46390   0.45761   0.00000  Uiso   1.00
C68    C     0.82886   0.52545   0.47481   0.00000  Uiso   1.00
C69    C     0.79839   0.56114   0.43134   0.00000  Uiso   1.00
H70    H     0.74013   0.35109   0.34452   0.00000  Uiso   1.00
H71    H     0.85075   0.29990   0.28232   0.00000  Uiso   1.00
H72    H     0.64288   0.29126   0.42466   0.00000  Uiso   1.00
H73    H     0.71543   0.45510   0.31026   0.00000  Uiso   1.00
H74    H     0.99119   0.25418   0.23918   0.00000  Uiso   1.00
H75    H     0.55287   0.23595   0.53931   0.00000  Uiso   1.00
H76    H     0.70583   0.58145   0.29808   0.00000  Uiso   1.00
H77    H     0.87727   0.43613   0.54348   0.00000  Uiso   1.00
H78    H     0.99543   0.38961   0.49219   0.00000  Uiso   1.00
H79    H     0.78755   0.38096   0.63453   0.00000  Uiso   1.00
H80    H     0.86010   0.54480   0.52013   0.00000  Uiso   1.00
H81    H     0.10861   0.32698   0.40952   0.00000  Uiso   1.00
H82    H     0.67029   0.30876   0.70966   0.00000  Uiso   1.00
H83    H     0.82326   0.65425   0.46842   0.00000  Uiso   1.00
O84    O     0.12514   0.25843   0.28703   0.00000  Uiso   1.00
O85    O     0.55008   0.23453   0.68079   0.00000  Uiso   1.00
O86    O     0.75077   0.68780   0.36429   0.00000  Uiso   1.00
N87    N     0.00261   0.27770   0.28630   0.00000  Uiso   1.00
N88    N     0.59282   0.26066   0.56691   0.00000  Uiso   1.00
N89    N     0.73581   0.58366   0.34138   0.00000  Uiso   1.00
N90    N     0.06580   0.31688   0.37796   0.00000  Uiso   1.00
N91    N     0.65600   0.29984   0.65857   0.00000  Uiso   1.00
N92    N     0.79899   0.62284   0.43304   0.00000  Uiso   1.00
C93    C     0.42659   0.68103   0.62056   0.00000  Uiso   1.00
C94    C     0.44947   0.73492   0.57794   0.00000  Uiso   1.00
C95    C     0.40253   0.76425   0.54231   0.00000  Uiso   1.00
C96    C     0.43420   0.81261   0.50638   0.00000  Uiso   1.00
C97    C     0.45819   0.89348   0.44021   0.00000  Uiso   1.00
C98    C     0.47296   0.63203   0.58770   0.00000  Uiso   1.00
C99    C     0.44576   0.57486   0.56029   0.00000  Uiso   1.00
C100   C     0.49721   0.53660   0.53259   0.00000  Uiso   1.00
C101   C     0.55766   0.45773   0.48162   0.00000  Uiso   1.00
C102   C     0.45310   0.69923   0.69573   0.00000  Uiso   1.00
C103   C     0.40920   0.69855   0.75915   0.00000  Uiso   1.00
C104   C     0.44393   0.71685   0.82239   0.00000  Uiso   1.00
C105   C     0.47355   0.74232   0.93914   0.00000  Uiso   1.00
C106   C     0.56632   0.71474   0.62011   0.00000  Uiso   1.00
C107   C     0.52537   0.75322   0.57770   0.00000  Uiso   1.00
C108   C     0.55712   0.80155   0.54181   0.00000  Uiso   1.00
C109   C     0.51023   0.83096   0.50614   0.00000  Uiso   1.00
C110   C     0.54885   0.65034   0.58746   0.00000  Uiso   1.00
C111   C     0.60035   0.61216   0.55979   0.00000  Uiso   1.00
C112   C     0.57324   0.55495   0.53234   0.00000  Uiso   1.00
C113   C     0.52899   0.71754   0.69548   0.00000  Uiso   1.00
C114   C     0.56380   0.73585   0.75864   0.00000  Uiso   1.00
C115   C     0.51996   0.73520   0.82214   0.00000  Uiso   1.00
H116   H     0.36750   0.66677   0.62075   0.00000  Uiso   1.00
H117   H     0.34380   0.75007   0.54251   0.00000  Uiso   1.00
H118   H     0.38702   0.56070   0.56050   0.00000  Uiso   1.00
H119   H     0.35047   0.68438   0.75931   0.00000  Uiso   1.00
H120   H     0.35099   0.85048   0.45563   0.00000  Uiso   1.00
H121   H     0.44213   0.45119   0.49358   0.00000  Uiso   1.00
H122   H     0.36506   0.71197   0.91283   0.00000  Uiso   1.00
H123   H     0.62541   0.72899   0.61992   0.00000  Uiso   1.00
H124   H     0.61586   0.81571   0.54163   0.00000  Uiso   1.00
H125   H     0.65908   0.62634   0.55962   0.00000  Uiso   1.00
H126   H     0.62253   0.75001   0.75843   0.00000  Uiso   1.00
H127   H     0.57180   0.90376   0.45492   0.00000  Uiso   1.00
H128   H     0.66295   0.50446   0.49287   0.00000  Uiso   1.00
H129   H     0.58587   0.76525   0.91211   0.00000  Uiso   1.00
O130   O     0.45046   0.93303   0.40377   0.00000  Uiso   1.00
O131   O     0.57004   0.40917   0.45357   0.00000  Uiso   1.00
O132   O     0.46891   0.75131   0.00361   0.00000  Uiso   1.00
N133   N     0.40426   0.85113   0.46622   0.00000  Uiso   1.00
N134   N     0.48948   0.47781   0.50169   0.00000  Uiso   1.00
N135   N     0.41742   0.72161   0.89365   0.00000  Uiso   1.00
N136   N     0.52308   0.87979   0.46584   0.00000  Uiso   1.00
N137   N     0.60830   0.50648   0.50130   0.00000  Uiso   1.00
N138   N     0.53624   0.75028   0.89327   0.00000  Uiso   1.00
C139   C     0.27532   0.18545   0.82946   0.00000  Uiso   1.00
C140   C     0.23487   0.24136   0.84208   0.00000  Uiso   1.00
C141   C     0.20648   0.26947   0.78942   0.00000  Uiso   1.00
C142   C     0.17135   0.32008   0.81191   0.00000  Uiso   1.00
C143   C     0.10949   0.40358   0.82048   0.00000  Uiso   1.00
C144   C     0.23301   0.13977   0.87600   0.00000  Uiso   1.00
C145   C     0.20306   0.08247   0.85187   0.00000  Uiso   1.00
C146   C     0.16638   0.04756   0.90292   0.00000  Uiso   1.00
C147   C     0.10167   0.97333   0.96417   0.00000  Uiso   1.00
C148   C     0.34994   0.20254   0.86182   0.00000  Uiso   1.00
C149   C     0.41832   0.19800   0.82578   0.00000  Uiso   1.00
C150   C     0.48009   0.21592   0.86489   0.00000  Uiso   1.00
C151   C     0.59694   0.23914   0.90412   0.00000  Uiso   1.00
C152   C     0.26345   0.22533   0.96303   0.00000  Uiso   1.00
C153   C     0.22842   0.26302   0.91463   0.00000  Uiso   1.00
C154   C     0.19334   0.31360   0.93720   0.00000  Uiso   1.00
C155   C     0.16489   0.34178   0.88459   0.00000  Uiso   1.00
C156   C     0.22656   0.16143   0.94855   0.00000  Uiso   1.00
C157   C     0.18992   0.12660   0.99965   0.00000  Uiso   1.00
C158   C     0.15992   0.06926   0.97561   0.00000  Uiso   1.00
C159   C     0.34350   0.22420   0.93438   0.00000  Uiso   1.00
C160   C     0.40517   0.24213   0.97356   0.00000  Uiso   1.00
C161   C     0.47363   0.23762   0.93758   0.00000  Uiso   1.00
H162   H     0.28035   0.16858   0.77297   0.00000  Uiso   1.00
H163   H     0.21147   0.25269   0.73328   0.00000  Uiso   1.00
H164   H     0.20807   0.06572   0.79573   0.00000  Uiso   1.00
H165   H     0.42329   0.18123   0.76963   0.00000  Uiso   1.00
H166   H     0.13225   0.35549   0.72127   0.00000  Uiso   1.00
H167   H     0.12509   0.96124   0.85294   0.00000  Uiso   1.00
H168   H     0.57892   0.20481   0.79792   0.00000  Uiso   1.00
H169   H     0.25842   0.24219   0.01952   0.00000  Uiso   1.00
H170   H     0.18835   0.33035   0.99335   0.00000  Uiso   1.00
H171   H     0.18494   0.14337   0.05579   0.00000  Uiso   1.00
H172   H     0.40016   0.25889   0.02970   0.00000  Uiso   1.00
H173   H     0.11348   0.41852   0.93236   0.00000  Uiso   1.00
H174   H     0.10632   0.02426   0.06402   0.00000  Uiso   1.00
H175   H     0.56015   0.26784   0.00900   0.00000  Uiso   1.00
O176   O     0.07714   0.44365   0.80516   0.00000  Uiso   1.00
O177   O     0.06776   0.92641   0.97790   0.00000  Uiso   1.00
O178   O     0.66318   0.24598   0.90571   0.00000  Uiso   1.00
N179   N     0.13746   0.35823   0.77454   0.00000  Uiso   1.00
N180   N     0.13075   0.98963   0.89764   0.00000  Uiso   1.00
N181   N     0.55505   0.21734   0.84621   0.00000  Uiso   1.00
N182   N     0.12736   0.39215   0.88812   0.00000  Uiso   1.00
N183   N     0.12065   0.02355   0.01122   0.00000  Uiso   1.00
N184   N     0.54495   0.25126   0.95979   0.00000  Uiso   1.00
C185   C     0.49074   0.90182   0.03332   0.00000  Uiso   1.00
C186   C     0.55777   0.94856   0.04074   0.00000  Uiso   1.00
C187   C     0.63097   0.93707   0.03189   0.00000  Uiso   1.00
C188   C     0.68424   0.98594   0.04096   0.00000  Uiso   1.00
C189   C     0.79126   0.04966   0.04982   0.00000  Uiso   1.00
C190   C     0.44533   0.92189   0.97690   0.00000  Uiso   1.00
C191   C     0.42398   0.88797   0.91438   0.00000  Uiso   1.00
C192   C     0.38260   0.91439   0.86971   0.00000  Uiso   1.00
C193   C     0.31501   0.93669   0.77949   0.00000  Uiso   1.00
C194   C     0.44475   0.90849   0.10412   0.00000  Uiso   1.00
C195   C     0.42290   0.86330   0.14857   0.00000  Uiso   1.00
C196   C     0.38101   0.87844   0.21100   0.00000  Uiso   1.00
C197   C     0.31252   0.87994   0.31830   0.00000  Uiso   1.00
C198   C     0.45518   0.00905   0.06516   0.00000  Uiso   1.00
C199   C     0.53845   0.00680   0.05803   0.00000  Uiso   1.00
C200   C     0.59163   0.05571   0.06712   0.00000  Uiso   1.00
C201   C     0.66490   0.04429   0.05829   0.00000  Uiso   1.00
C202   C     0.42602   0.98013   0.99419   0.00000  Uiso   1.00
C203   C     0.38464   0.00661   0.94961   0.00000  Uiso   1.00
C204   C     0.36325   0.97274   0.88704   0.00000  Uiso   1.00
C205   C     0.42544   0.96674   0.12142   0.00000  Uiso   1.00
C206   C     0.38356   0.98195   0.18379   0.00000  Uiso   1.00
C207   C     0.36166   0.93679   0.22832   0.00000  Uiso   1.00
H208   H     0.50577   0.85647   0.01985   0.00000  Uiso   1.00
H209   H     0.64589   0.89198   0.01850   0.00000  Uiso   1.00
H210   H     0.43893   0.84289   0.90102   0.00000  Uiso   1.00
H211   H     0.43786   0.81823   0.13516   0.00000  Uiso   1.00
H212   H     0.79273   0.95705   0.02461   0.00000  Uiso   1.00
H213   H     0.35632   0.85352   0.77690   0.00000  Uiso   1.00
H214   H     0.35404   0.80152   0.27064   0.00000  Uiso   1.00
H215   H     0.44014   0.05440   0.07862   0.00000  Uiso   1.00
H216   H     0.57667   0.10078   0.08050   0.00000  Uiso   1.00
H217   H     0.36971   0.05168   0.96301   0.00000  Uiso   1.00
H218   H     0.36863   0.02702   0.19716   0.00000  Uiso   1.00
H219   H     0.73654   0.12652   0.07493   0.00000  Uiso   1.00
H220   H     0.30013   0.02299   0.82721   0.00000  Uiso   1.00
H221   H     0.29786   0.97099   0.32096   0.00000  Uiso   1.00
O222   O     0.85563   0.06872   0.04992   0.00000  Uiso   1.00
O223   O     0.28307   0.93289   0.72494   0.00000  Uiso   1.00
O224   O     0.28009   0.86467   0.37272   0.00000  Uiso   1.00
N225   N     0.76077   0.99057   0.03621   0.00000  Uiso   1.00
N226   N     0.35276   0.89378   0.80460   0.00000  Uiso   1.00
N227   N     0.35062   0.84516   0.26620   0.00000  Uiso   1.00
N228   N     0.73053   0.08176   0.06328   0.00000  Uiso   1.00
N229   N     0.32253   0.98497   0.83168   0.00000  Uiso   1.00
N230   N     0.32038   0.93635   0.29328   0.00000  Uiso   1.00
C231   C     0.98778   0.87196   0.17551   0.00000  Uiso   1.00
C232   C     0.97961   0.85141   0.25087   0.00000  Uiso   1.00
C233   C     0.91930   0.81632   0.27928   0.00000  Uiso   1.00
C234   C     0.92244   0.80234   0.34927   0.00000  Uiso   1.00
C235   C     0.90045   0.76730   0.46018   0.00000  Uiso   1.00
C236   C     0.05902   0.85005   0.14096   0.00000  Uiso   1.00
C237   C     0.06547   0.81383   0.07696   0.00000  Uiso   1.00
C238   C     0.13547   0.79872   0.05443   0.00000  Uiso   1.00
C239   C     0.23677   0.76161   0.99467   0.00000  Uiso   1.00
C240   C     0.00204   0.94018   0.18525   0.00000  Uiso   1.00
C241   C     0.96059   0.97973   0.15848   0.00000  Uiso   1.00
C242   C     0.98263   0.04051   0.17322   0.00000  Uiso   1.00
C243   C     0.99546   0.14333   0.18224   0.00000  Uiso   1.00
C244   C     0.10062   0.90956   0.24929   0.00000  Uiso   1.00
C245   C     0.04090   0.87183   0.29094   0.00000  Uiso   1.00
C246   C     0.04414   0.85791   0.36091   0.00000  Uiso   1.00
C247   C     0.98384   0.82280   0.38942   0.00000  Uiso   1.00
C248   C     0.12031   0.87047   0.18103   0.00000  Uiso   1.00
C249   C     0.19031   0.85542   0.15858   0.00000  Uiso   1.00
C250   C     0.19687   0.81918   0.09457   0.00000  Uiso   1.00
C251   C     0.06333   0.96060   0.22533   0.00000  Uiso   1.00
C252   C     0.08543   0.02133   0.24011   0.00000  Uiso   1.00
C253   C     0.04403   0.06097   0.21336   0.00000  Uiso   1.00
H254   H     0.94007   0.85606   0.14431   0.00000  Uiso   1.00
H255   H     0.87188   0.80052   0.24825   0.00000  Uiso   1.00
H256   H     0.01804   0.79804   0.04596   0.00000  Uiso   1.00
H257   H     0.91317   0.96392   0.12747   0.00000  Uiso   1.00
H258   H     0.82332   0.74792   0.38115   0.00000  Uiso   1.00
H259   H     0.13150   0.74271   0.95460   0.00000  Uiso   1.00
H260   H     0.91037   0.09250   0.12647   0.00000  Uiso   1.00
H261   H     0.14834   0.92545   0.28048   0.00000  Uiso   1.00
H262   H     0.09157   0.87372   0.39190   0.00000  Uiso   1.00
H263   H     0.23773   0.87123   0.18961   0.00000  Uiso   1.00
H264   H     0.13286   0.03711   0.27112   0.00000  Uiso   1.00
H265   H     0.00164   0.80733   0.49774   0.00000  Uiso   1.00
H266   H     0.30982   0.80211   0.07118   0.00000  Uiso   1.00
H267   H     0.08869   0.15191   0.24307   0.00000  Uiso   1.00
O268   O     0.87140   0.74232   0.51028   0.00000  Uiso   1.00
O269   O     0.27572   0.73549   0.95064   0.00000  Uiso   1.00
O270   O     0.98560   0.19441   0.17615   0.00000  Uiso   1.00
N271   N     0.87307   0.76901   0.39331   0.00000  Uiso   1.00
N272   N     0.16120   0.76413   0.99451   0.00000  Uiso   1.00
N273   N     0.95447   0.09115   0.15518   0.00000  Uiso   1.00
N274   N     0.96902   0.80098   0.45604   0.00000  Uiso   1.00
N275   N     0.25715   0.79610   0.05724   0.00000  Uiso   1.00
N276   N     0.05042   0.12312   0.21792   0.00000  Uiso   1.00
C277   C     0.34878   0.49078   0.23291   0.00000  Uiso   1.00
C278   C     0.37560   0.50113   0.15590   0.00000  Uiso   1.00
C279   C     0.41782   0.55205   0.13415   0.00000  Uiso   1.00
C280   C     0.43672   0.55285   0.06126   0.00000  Uiso   1.00
C281   C     0.48182   0.57627   0.94919   0.00000  Uiso   1.00
C282   C     0.37724   0.43265   0.24795   0.00000  Uiso   1.00
C283   C     0.42083   0.42599   0.30360   0.00000  Uiso   1.00
C284   C     0.44110   0.36914   0.30820   0.00000  Uiso   1.00
C285   C     0.48871   0.28624   0.33906   0.00000  Uiso   1.00
C286   C     0.26507   0.47747   0.23267   0.00000  Uiso   1.00
C287   C     0.21434   0.50849   0.27549   0.00000  Uiso   1.00
C288   C     0.14017   0.48936   0.26724   0.00000  Uiso   1.00
C289   C     0.01362   0.47605   0.27439   0.00000  Uiso   1.00
C290   C     0.30728   0.40165   0.14213   0.00000  Uiso   1.00
C291   C     0.35306   0.45272   0.10659   0.00000  Uiso   1.00
C292   C     0.37190   0.45344   0.03371   0.00000  Uiso   1.00
C293   C     0.41414   0.50435   0.01186   0.00000  Uiso   1.00
C294   C     0.35470   0.38424   0.19864   0.00000  Uiso   1.00
C295   C     0.37492   0.32738   0.20316   0.00000  Uiso   1.00
C296   C     0.41852   0.32064   0.25880   0.00000  Uiso   1.00
C297   C     0.24253   0.42906   0.18336   0.00000  Uiso   1.00
C298   C     0.16843   0.40987   0.17505   0.00000  Uiso   1.00
C299   C     0.11759   0.44086   0.21784   0.00000  Uiso   1.00
H300   H     0.36633   0.52847   0.27130   0.00000  Uiso   1.00
H301   H     0.43525   0.58950   0.17233   0.00000  Uiso   1.00
H302   H     0.43825   0.46346   0.34175   0.00000  Uiso   1.00
H303   H     0.23180   0.54595   0.31364   0.00000  Uiso   1.00
H304   H     0.50175   0.63581   0.04086   0.00000  Uiso   1.00
H305   H     0.50806   0.37005   0.39811   0.00000  Uiso   1.00
H306   H     0.07271   0.54398   0.33884   0.00000  Uiso   1.00
H307   H     0.28974   0.36395   0.10374   0.00000  Uiso   1.00
H308   H     0.35445   0.41597   0.99557   0.00000  Uiso   1.00
H309   H     0.35746   0.28993   0.16500   0.00000  Uiso   1.00
H310   H     0.15101   0.37241   0.13689   0.00000  Uiso   1.00
H311   H     0.43617   0.49496   0.89740   0.00000  Uiso   1.00
H312   H     0.44248   0.22920   0.25465   0.00000  Uiso   1.00
H313   H     0.00713   0.40313   0.19538   0.00000  Uiso   1.00
O314   O     0.51294   0.60256   0.90100   0.00000  Uiso   1.00
O315   O     0.52120   0.25389   0.36971   0.00000  Uiso   1.00
O316   O     0.95004   0.48209   0.29194   0.00000  Uiso   1.00
N317   N     0.47742   0.59553   0.02194   0.00000  Uiso   1.00
N318   N     0.48333   0.34706   0.35594   0.00000  Uiso   1.00
N319   N     0.07632   0.50966   0.30054   0.00000  Uiso   1.00
N320   N     0.44213   0.51974   0.94474   0.00000  Uiso   1.00
N321   N     0.44804   0.27127   0.27875   0.00000  Uiso   1.00
N322   N     0.04103   0.43387   0.22335   0.00000  Uiso   1.00
C323   C     0.12277   0.15592   0.57921   0.00000  Uiso   1.00
C324   C     0.04677   0.15016   0.54890   0.00000  Uiso   1.00
C325   C     0.98082   0.15764   0.58836   0.00000  Uiso   1.00
C326   C     0.91722   0.15049   0.55066   0.00000  Uiso   1.00
C327   C     0.79886   0.14372   0.51492   0.00000  Uiso   1.00
C328   C     0.17052   0.20311   0.53878   0.00000  Uiso   1.00
C329   C     0.20863   0.25511   0.56975   0.00000  Uiso   1.00
C330   C     0.24921   0.29253   0.52353   0.00000  Uiso   1.00
C331   C     0.32302   0.36794   0.47208   0.00000  Uiso   1.00
C332   C     0.15399   0.09668   0.55597   0.00000  Uiso   1.00
C333   C     0.17822   0.05920   0.60139   0.00000  Uiso   1.00
C334   C     0.20490   0.00702   0.56965   0.00000  Uiso   1.00
C335   C     0.25304   0.91719   0.54490   0.00000  Uiso   1.00
C336   C     0.12711   0.12992   0.44207   0.00000  Uiso   1.00
C337   C     0.04913   0.13604   0.47440   0.00000  Uiso   1.00
C338   C     0.98562   0.12887   0.43663   0.00000  Uiso   1.00
C339   C     0.91958   0.13634   0.47604   0.00000  Uiso   1.00
C340   C     0.17288   0.18899   0.46429   0.00000  Uiso   1.00
C341   C     0.21343   0.22634   0.41802   0.00000  Uiso   1.00
C342   C     0.25158   0.27838   0.44890   0.00000  Uiso   1.00
C343   C     0.15635   0.08256   0.48148   0.00000  Uiso   1.00
C344   C     0.18301   0.03043   0.44966   0.00000  Uiso   1.00
C345   C     0.20726   0.99287   0.49503   0.00000  Uiso   1.00
H346   H     0.12094   0.16692   0.63720   0.00000  Uiso   1.00
H347   H     0.97902   0.16858   0.64601   0.00000  Uiso   1.00
H348   H     0.20680   0.26602   0.62739   0.00000  Uiso   1.00
H349   H     0.17638   0.07014   0.65903   0.00000  Uiso   1.00
H350   H     0.82272   0.16420   0.62292   0.00000  Uiso   1.00
H351   H     0.30302   0.36967   0.58367   0.00000  Uiso   1.00
H352   H     0.23889   0.95661   0.65039   0.00000  Uiso   1.00
H353   H     0.12895   0.11892   0.38407   0.00000  Uiso   1.00
H354   H     0.98746   0.11794   0.37899   0.00000  Uiso   1.00
H355   H     0.21524   0.21539   0.36037   0.00000  Uiso   1.00
H356   H     0.18483   0.01951   0.39202   0.00000  Uiso   1.00
H357   H     0.82957   0.12311   0.40620   0.00000  Uiso   1.00
H358   H     0.30987   0.32857   0.36694   0.00000  Uiso   1.00
H359   H     0.24574   0.91552   0.43367   0.00000  Uiso   1.00
O360   O     0.73293   0.14390   0.51578   0.00000  Uiso   1.00
O361   O     0.36308   0.41345   0.46428   0.00000  Uiso   1.00
O362   O     0.27894   0.87153   0.55183   0.00000  Uiso   1.00
N363   N     0.84374   0.15466   0.57262   0.00000  Uiso   1.00
N364   N     0.29279   0.34676   0.53591   0.00000  Uiso   1.00
N365   N     0.23285   0.96059   0.59830   0.00000  Uiso   1.00
N366   N     0.84743   0.13254   0.45600   0.00000  Uiso   1.00
N367   N     0.29647   0.32464   0.41930   0.00000  Uiso   1.00
N368   N     0.23654   0.93848   0.48168   0.00000  Uiso   1.00
C369   C     0.63049   0.10421   0.36789   0.00000  Uiso   1.00
C370   C     0.63830   0.03966   0.33803   0.00000  Uiso   1.00
C371   C     0.70005   0.00984   0.34129   0.00000  Uiso   1.00
C372   C     0.69628   0.95090   0.31084   0.00000  Uiso   1.00
C373   C     0.71803   0.85492   0.26945   0.00000  Uiso   1.00
C374   C     0.56218   0.10147   0.41954   0.00000  Uiso   1.00
C375   C     0.55992   0.12362   0.49134   0.00000  Uiso   1.00
C376   C     0.49206   0.11672   0.52951   0.00000  Uiso   1.00
C377   C     0.39561   0.11674   0.61466   0.00000  Uiso   1.00
C378   C     0.61114   0.13613   0.30508   0.00000  Uiso   1.00
C379   C     0.65005   0.18744   0.28064   0.00000  Uiso   1.00
C380   C     0.62341   0.20974   0.22244   0.00000  Uiso   1.00
C381   C     0.60299   0.26358   0.12987   0.00000  Uiso   1.00
C382   C     0.51399   0.05259   0.30802   0.00000  Uiso   1.00
C383   C     0.57502   0.01162   0.30551   0.00000  Uiso   1.00
C384   C     0.57116   0.95272   0.27504   0.00000  Uiso   1.00
C385   C     0.63289   0.92281   0.27826   0.00000  Uiso   1.00
C386   C     0.49890   0.07343   0.38703   0.00000  Uiso   1.00
C387   C     0.43103   0.06650   0.42509   0.00000  Uiso   1.00
C388   C     0.42867   0.08863   0.49693   0.00000  Uiso   1.00
C389   C     0.54787   0.10809   0.27255   0.00000  Uiso   1.00
C390   C     0.52116   0.13032   0.21439   0.00000  Uiso   1.00
C391   C     0.56001   0.18164   0.18986   0.00000  Uiso   1.00
H392   H     0.67975   0.12605   0.39322   0.00000  Uiso   1.00
H393   H     0.74901   0.03155   0.36647   0.00000  Uiso   1.00
H394   H     0.60890   0.14532   0.51649   0.00000  Uiso   1.00
H395   H     0.69901   0.20913   0.30582   0.00000  Uiso   1.00
H396   H     0.79788   0.91441   0.32249   0.00000  Uiso   1.00
H397   H     0.50244   0.15432   0.63882   0.00000  Uiso   1.00
H398   H     0.69247   0.28887   0.19458   0.00000  Uiso   1.00
H399   H     0.46472   0.03076   0.28270   0.00000  Uiso   1.00
H400   H     0.52218   0.93103   0.24988   0.00000  Uiso   1.00
H401   H     0.38207   0.04480   0.39991   0.00000  Uiso   1.00
H402   H     0.47219   0.10861   0.18924   0.00000  Uiso   1.00
H403   H     0.61378   0.83282   0.22787   0.00000  Uiso   1.00
H404   H     0.31834   0.07274   0.54420   0.00000  Uiso   1.00
H405   H     0.50837   0.20728   0.09996   0.00000  Uiso   1.00
O406   O     0.74750   0.80973   0.25561   0.00000  Uiso   1.00
O407   O     0.35990   0.12449   0.67062   0.00000  Uiso   1.00
O408   O     0.60921   0.30101   0.08778   0.00000  Uiso   1.00
N409   N     0.74667   0.90890   0.30471   0.00000  Uiso   1.00
N410   N     0.47046   0.13319   0.60047   0.00000  Uiso   1.00
N411   N     0.64811   0.25900   0.18515   0.00000  Uiso   1.00
N412   N     0.64761   0.86500   0.25380   0.00000  Uiso   1.00
N413   N     0.37139   0.08929   0.54955   0.00000  Uiso   1.00
N414   N     0.54904   0.21509   0.13423   0.00000  Uiso   1.00
C415   C     0.92949   0.61071   0.04475   0.00000  Uiso   1.00
C416   C     0.89289   0.54878   0.06051   0.00000  Uiso   1.00
C417   C     0.88616   0.52618   0.12700   0.00000  Uiso   1.00
C418   C     0.85085   0.46851   0.13028   0.00000  Uiso   1.00
C419   C     0.79824   0.37748   0.16404   0.00000  Uiso   1.00
C420   C     0.98935   0.60008   0.98549   0.00000  Uiso   1.00
C421   C     0.06372   0.62062   0.98891   0.00000  Uiso   1.00
C422   C     0.10961   0.60614   0.92904   0.00000  Uiso   1.00
C423   C     0.20674   0.59478   0.84632   0.00000  Uiso   1.00
C424   C     0.87148   0.64064   0.01121   0.00000  Uiso   1.00
C425   C     0.84675   0.69529   0.03624   0.00000  Uiso   1.00
C426   C     0.79340   0.71497   0.99801   0.00000  Uiso   1.00
C427   C     0.70752   0.76659   0.95522   0.00000  Uiso   1.00
C428   C     0.87875   0.54850   0.93235   0.00000  Uiso   1.00
C429   C     0.86533   0.51499   0.99946   0.00000  Uiso   1.00
C430   C     0.83002   0.45735   0.00264   0.00000  Uiso   1.00
C431   C     0.82323   0.43466   0.06913   0.00000  Uiso   1.00
C432   C     0.96180   0.56629   0.92445   0.00000  Uiso   1.00
C433   C     0.00758   0.55178   0.86456   0.00000  Uiso   1.00
C434   C     0.08200   0.57229   0.86788   0.00000  Uiso   1.00
C435   C     0.84391   0.60685   0.95016   0.00000  Uiso   1.00
C436   C     0.79061   0.62645   0.91189   0.00000  Uiso   1.00
C437   C     0.76579   0.68111   0.93685   0.00000  Uiso   1.00
H438   H     0.95096   0.63702   0.09227   0.00000  Uiso   1.00
H439   H     0.90750   0.55234   0.17423   0.00000  Uiso   1.00
H440   H     0.08503   0.64677   0.03616   0.00000  Uiso   1.00
H441   H     0.86809   0.72142   0.08348   0.00000  Uiso   1.00
H442   H     0.84719   0.44354   0.23816   0.00000  Uiso   1.00
H443   H     0.22152   0.64267   0.94703   0.00000  Uiso   1.00
H444   H     0.76405   0.80010   0.04682   0.00000  Uiso   1.00
H445   H     0.85730   0.52219   0.88482   0.00000  Uiso   1.00
H446   H     0.80870   0.43121   0.95539   0.00000  Uiso   1.00
H447   H     0.98623   0.52564   0.81732   0.00000  Uiso   1.00
H448   H     0.76929   0.60029   0.86465   0.00000  Uiso   1.00
H449   H     0.76700   0.34523   0.06055   0.00000  Uiso   1.00
H450   H     0.14133   0.54436   0.76941   0.00000  Uiso   1.00
H451   H     0.68387   0.70178   0.86920   0.00000  Uiso   1.00
O452   O     0.77684   0.33660   0.19952   0.00000  Uiso   1.00
O453   O     0.26794   0.59785   0.81756   0.00000  Uiso   1.00
O454   O     0.66776   0.80439   0.94848   0.00000  Uiso   1.00
N455   N     0.83498   0.43289   0.18668   0.00000  Uiso   1.00
N456   N     0.18495   0.61906   0.91449   0.00000  Uiso   1.00
N457   N     0.75728   0.76625   0.00777   0.00000  Uiso   1.00
N458   N     0.79183   0.37999   0.09110   0.00000  Uiso   1.00
N459   N     0.14180   0.56616   0.81891   0.00000  Uiso   1.00
N460   N     0.71413   0.71334   0.91220   0.00000  Uiso   1.00
C461   C     0.85395   0.98070   0.75935   0.00000  Uiso   1.00
C462   C     0.77786   0.99384   0.79140   0.00000  Uiso   1.00
C463   C     0.76136   0.04686   0.83017   0.00000  Uiso   1.00
C464   C     0.68840   0.05005   0.85495   0.00000  Uiso   1.00
C465   C     0.57854   0.07776   0.90680   0.00000  Uiso   1.00
C466   C     0.87003   0.92390   0.79014   0.00000  Uiso   1.00
C467   C     0.93104   0.91812   0.82785   0.00000  Uiso   1.00
C468   C     0.93567   0.86243   0.85156   0.00000  Uiso   1.00
C469   C     0.96894   0.78156   0.90143   0.00000  Uiso   1.00
C470   C     0.84528   0.96363   0.67941   0.00000  Uiso   1.00
C471   C     0.88549   0.99124   0.62402   0.00000  Uiso   1.00
C472   C     0.86929   0.96899   0.55450   0.00000  Uiso   1.00
C473   C     0.86413   0.94979   0.43243   0.00000  Uiso   1.00
C474   C     0.75373   0.89209   0.73440   0.00000  Uiso   1.00
C475   C     0.72342   0.94571   0.77784   0.00000  Uiso   1.00
C476   C     0.65047   0.94882   0.80256   0.00000  Uiso   1.00
C477   C     0.63386   0.00183   0.84137   0.00000  Uiso   1.00
C478   C     0.81560   0.87577   0.77659   0.00000  Uiso   1.00
C479   C     0.82015   0.82008   0.80025   0.00000  Uiso   1.00
C480   C     0.88114   0.81421   0.83799   0.00000  Uiso   1.00
C481   C     0.79084   0.91550   0.66586   0.00000  Uiso   1.00
C482   C     0.77459   0.89320   0.59641   0.00000  Uiso   1.00
C483   C     0.81476   0.92077   0.54092   0.00000  Uiso   1.00
H484   H     0.89634   0.01817   0.76990   0.00000  Uiso   1.00
H485   H     0.80351   0.08409   0.84065   0.00000  Uiso   1.00
H486   H     0.97316   0.95537   0.83833   0.00000  Uiso   1.00
H487   H     0.92761   0.02848   0.63452   0.00000  Uiso   1.00
H488   H     0.67658   0.13595   0.91314   0.00000  Uiso   1.00
H489   H     0.03432   0.86453   0.90822   0.00000  Uiso   1.00
H490   H     0.93827   0.01869   0.47846   0.00000  Uiso   1.00
H491   H     0.71135   0.85461   0.72384   0.00000  Uiso   1.00
H492   H     0.60836   0.91157   0.79207   0.00000  Uiso   1.00
H493   H     0.77801   0.78285   0.78975   0.00000  Uiso   1.00
H494   H     0.73246   0.85595   0.58594   0.00000  Uiso   1.00
H495   H     0.51819   0.99592   0.87371   0.00000  Uiso   1.00
H496   H     0.87593   0.72450   0.86878   0.00000  Uiso   1.00
H497   H     0.77988   0.87866   0.43903   0.00000  Uiso   1.00
O498   O     0.53298   0.10634   0.93916   0.00000  Uiso   1.00
O499   O     0.00233   0.75025   0.93268   0.00000  Uiso   1.00
O500   O     0.87631   0.95251   0.36885   0.00000  Uiso   1.00
N501   N     0.65343   0.09518   0.89448   0.00000  Uiso   1.00
N502   N     0.98789   0.84142   0.88989   0.00000  Uiso   1.00
N503   N     0.89811   0.98554   0.48810   0.00000  Uiso   1.00
N504   N     0.56821   0.01983   0.87327   0.00000  Uiso   1.00
N505   N     0.90266   0.76607   0.86867   0.00000  Uiso   1.00
N506   N     0.81288   0.91019   0.46688   0.00000  Uiso   1.00
C507   C     0.17419   0.66940   0.51040   0.00000  Uiso   1.00
C508   C     0.13253   0.66971   0.44289   0.00000  Uiso   1.00
C509   C     0.16419   0.68069   0.37543   0.00000  Uiso   1.00
C510   C     0.11661   0.67896   0.32060   0.00000  Uiso   1.00
C511   C     0.06354   0.68134   0.21391   0.00000  Uiso   1.00
C512   C     0.14178   0.71485   0.56597   0.00000  Uiso   1.00
C513   C     0.18122   0.76377   0.60201   0.00000  Uiso   1.00
C514   C     0.14143   0.80003   0.65080   0.00000  Uiso   1.00
C515   C     0.10273   0.87247   0.73524   0.00000  Uiso   1.00
C516   C     0.15179   0.60815   0.53783   0.00000  Uiso   1.00
C517   C     0.19964   0.56736   0.55021   0.00000  Uiso   1.00
C518   C     0.16827   0.51379   0.57532   0.00000  Uiso   1.00
C519   C     0.14511   0.42056   0.61606   0.00000  Uiso   1.00
C520   C     0.03339   0.64679   0.53299   0.00000  Uiso   1.00
C521   C     0.05605   0.65743   0.45516   0.00000  Uiso   1.00
C522   C     0.00841   0.65568   0.40042   0.00000  Uiso   1.00
C523   C     0.03999   0.66665   0.33289   0.00000  Uiso   1.00
C524   C     0.06531   0.70257   0.57825   0.00000  Uiso   1.00
C525   C     0.02544   0.73876   0.62700   0.00000  Uiso   1.00
C526   C     0.06481   0.78773   0.66309   0.00000  Uiso   1.00
C527   C     0.07531   0.59587   0.55010   0.00000  Uiso   1.00
C528   C     0.04386   0.54235   0.57520   0.00000  Uiso   1.00
C529   C     0.09165   0.50149   0.58761   0.00000  Uiso   1.00
H530   H     0.23373   0.67896   0.50086   0.00000  Uiso   1.00
H531   H     0.22337   0.69020   0.36596   0.00000  Uiso   1.00
H532   H     0.24041   0.77326   0.59251   0.00000  Uiso   1.00
H533   H     0.25882   0.57688   0.54071   0.00000  Uiso   1.00
H534   H     0.17816   0.69726   0.22182   0.00000  Uiso   1.00
H535   H     0.21407   0.87240   0.69952   0.00000  Uiso   1.00
H536   H     0.25290   0.45829   0.59031   0.00000  Uiso   1.00
H537   H     0.97385   0.63723   0.54255   0.00000  Uiso   1.00
H538   H     0.94923   0.64617   0.40993   0.00000  Uiso   1.00
H539   H     0.96626   0.72924   0.63648   0.00000  Uiso   1.00
H540   H     0.98467   0.53286   0.58469   0.00000  Uiso   1.00
H541   H     0.95565   0.66153   0.25751   0.00000  Uiso   1.00
H542   H     0.99157   0.83667   0.73522   0.00000  Uiso   1.00
H543   H     0.03040   0.42257   0.62600   0.00000  Uiso   1.00
O544   O     0.05539   0.68605   0.15168   0.00000  Uiso   1.00
O545   O     0.10252   0.91582   0.77842   0.00000  Uiso   1.00
O546   O     0.15346   0.37253   0.63513   0.00000  Uiso   1.00
N547   N     0.12917   0.68761   0.24841   0.00000  Uiso   1.00
N548   N     0.16275   0.85136   0.69503   0.00000  Uiso   1.00
N549   N     0.19905   0.46422   0.59294   0.00000  Uiso   1.00
N550   N     0.00944   0.66839   0.26762   0.00000  Uiso   1.00
N551   N     0.04302   0.83214   0.71424   0.00000  Uiso   1.00
N552   N     0.07932   0.44499   0.61215   0.00000  Uiso   1.00
