data_job_05038
_audit_creation_date              2018-12-19
_audit_creation_method            'Materials Studio'
_symmetry_space_group_name_H-M    'P1'
_symmetry_Int_Tables_number       1
_symmetry_cell_setting            triclinic
loop_
_symmetry_equiv_pos_as_xyz
  x,y,z
_cell_length_a                    11.3336
_cell_length_b                    11.3336
_cell_length_c                    19.5554
_cell_angle_alpha                 90.0000
_cell_angle_beta                  90.0000
_cell_angle_gamma                 90.0000
loop_
_atom_site_label
_atom_site_type_symbol
_atom_site_fract_x
_atom_site_fract_y
_atom_site_fract_z
_atom_site_U_iso_or_equiv
_atom_site_adp_type
_atom_site_occupancy
C1     C     0.86227   0.58513   0.47639   0.00000  Uiso   1.00
C2     C     0.79883   0.62682   0.41200   0.00000  Uiso   1.00
C3     C     0.84470   0.62491   0.34621   0.00000  Uiso   1.00
C4     C     0.77271   0.66695   0.29419   0.00000  Uiso   1.00
C5     C     0.69154   0.72528   0.19219   0.00000  Uiso   1.00
C6     C     0.86197   0.68986   0.52534   0.00000  Uiso   1.00
C7     C     0.96093   0.74095   0.55486   0.00000  Uiso   1.00
C8     C     0.94208   0.83605   0.59826   0.00000  Uiso   1.00
C9     C     0.95892   0.99220   0.67226   0.00000  Uiso   1.00
C10    C     0.78249   0.49222   0.50868   0.00000  Uiso   1.00
C11    C     0.81462   0.37714   0.52421   0.00000  Uiso   1.00
C12    C     0.72885   0.30585   0.55359   0.00000  Uiso   1.00
C13    C     0.62228   0.15514   0.60172   0.00000  Uiso   1.00
C14    C     0.65285   0.66319   0.50099   0.00000  Uiso   1.00
C15    C     0.68509   0.66922   0.42537   0.00000  Uiso   1.00
C16    C     0.61300   0.71127   0.37343   0.00000  Uiso   1.00
C17    C     0.65876   0.70942   0.30758   0.00000  Uiso   1.00
C18    C     0.74823   0.73226   0.53871   0.00000  Uiso   1.00
C19    C     0.72923   0.82730   0.58208   0.00000  Uiso   1.00
C20    C     0.82812   0.87852   0.61165   0.00000  Uiso   1.00
C21    C     0.66873   0.53462   0.52205   0.00000  Uiso   1.00
C22    C     0.58291   0.46350   0.55142   0.00000  Uiso   1.00
C23    C     0.61490   0.34832   0.56698   0.00000  Uiso   1.00
H24    H     0.95083   0.55213   0.46599   0.00000  Uiso   1.00
H25    H     0.93274   0.59210   0.33589   0.00000  Uiso   1.00
H26    H     0.04894   0.70811   0.54451   0.00000  Uiso   1.00
H27    H     0.90265   0.34436   0.51386   0.00000  Uiso   1.00
H28    H     0.86254   0.65515   0.19755   0.00000  Uiso   1.00
H29    H     0.10755   0.89974   0.63746   0.00000  Uiso   1.00
H30    H     0.79907   0.13270   0.57282   0.00000  Uiso   1.00
H31    H     0.56428   0.69620   0.51140   0.00000  Uiso   1.00
H32    H     0.52498   0.74407   0.38379   0.00000  Uiso   1.00
H33    H     0.64119   0.86008   0.59241   0.00000  Uiso   1.00
H34    H     0.49489   0.49633   0.56176   0.00000  Uiso   1.00
H35    H     0.53159   0.77850   0.23643   0.00000  Uiso   1.00
H36    H     0.77660   0.02309   0.67634   0.00000  Uiso   1.00
H37    H     0.46812   0.25605   0.61170   0.00000  Uiso   1.00
O38    O     0.67820   0.74576   0.13223   0.00000  Uiso   1.00
O39    O     0.99965   0.06663   0.70938   0.00000  Uiso   1.00
O40    O     0.59492   0.06029   0.62457   0.00000  Uiso   1.00
N41    N     0.79004   0.67759   0.22421   0.00000  Uiso   1.00
N42    N     0.01911   0.90628   0.63549   0.00000  Uiso   1.00
N43    N     0.73071   0.18917   0.57508   0.00000  Uiso   1.00
N44    N     0.61195   0.74396   0.24513   0.00000  Uiso   1.00
N45    N     0.84103   0.97265   0.65641   0.00000  Uiso   1.00
N46    N     0.55263   0.25554   0.59599   0.00000  Uiso   1.00
C47    C     0.13773   0.41487   0.97639   0.00000  Uiso   1.00
C48    C     0.20117   0.37318   0.91200   0.00000  Uiso   1.00
C49    C     0.15530   0.37509   0.84621   0.00000  Uiso   1.00
C50    C     0.22729   0.33305   0.79419   0.00000  Uiso   1.00
C51    C     0.30846   0.27472   0.69219   0.00000  Uiso   1.00
C52    C     0.13803   0.31014   0.02534   0.00000  Uiso   1.00
C53    C     0.03907   0.25905   0.05486   0.00000  Uiso   1.00
C54    C     0.05792   0.16395   0.09826   0.00000  Uiso   1.00
C55    C     0.04108   0.00780   0.17226   0.00000  Uiso   1.00
C56    C     0.21751   0.50778   0.00868   0.00000  Uiso   1.00
C57    C     0.18538   0.62286   0.02421   0.00000  Uiso   1.00
C58    C     0.27115   0.69415   0.05359   0.00000  Uiso   1.00
C59    C     0.37772   0.84486   0.10172   0.00000  Uiso   1.00
C60    C     0.34715   0.33681   0.00099   0.00000  Uiso   1.00
C61    C     0.31491   0.33078   0.92537   0.00000  Uiso   1.00
C62    C     0.38700   0.28873   0.87343   0.00000  Uiso   1.00
C63    C     0.34124   0.29058   0.80758   0.00000  Uiso   1.00
C64    C     0.25177   0.26774   0.03871   0.00000  Uiso   1.00
C65    C     0.27077   0.17270   0.08208   0.00000  Uiso   1.00
C66    C     0.17188   0.12148   0.11165   0.00000  Uiso   1.00
C67    C     0.33127   0.46538   0.02205   0.00000  Uiso   1.00
C68    C     0.41709   0.53650   0.05142   0.00000  Uiso   1.00
C69    C     0.38510   0.65168   0.06698   0.00000  Uiso   1.00
H70    H     0.04917   0.44787   0.96599   0.00000  Uiso   1.00
H71    H     0.06726   0.40790   0.83589   0.00000  Uiso   1.00
H72    H     0.95106   0.29189   0.04451   0.00000  Uiso   1.00
H73    H     0.09735   0.65564   0.01386   0.00000  Uiso   1.00
H74    H     0.13746   0.34485   0.69755   0.00000  Uiso   1.00
H75    H     0.89245   0.10026   0.13746   0.00000  Uiso   1.00
H76    H     0.20093   0.86730   0.07282   0.00000  Uiso   1.00
H77    H     0.43572   0.30380   0.01140   0.00000  Uiso   1.00
H78    H     0.47502   0.25593   0.88379   0.00000  Uiso   1.00
H79    H     0.35881   0.13992   0.09241   0.00000  Uiso   1.00
H80    H     0.50511   0.50367   0.06176   0.00000  Uiso   1.00
H81    H     0.46841   0.22150   0.73643   0.00000  Uiso   1.00
H82    H     0.22340   0.97691   0.17634   0.00000  Uiso   1.00
H83    H     0.53188   0.74395   0.11170   0.00000  Uiso   1.00
O84    O     0.32180   0.25424   0.63223   0.00000  Uiso   1.00
O85    O     0.00035   0.93337   0.20938   0.00000  Uiso   1.00
O86    O     0.40508   0.93971   0.12457   0.00000  Uiso   1.00
N87    N     0.20996   0.32241   0.72421   0.00000  Uiso   1.00
N88    N     0.98089   0.09372   0.13549   0.00000  Uiso   1.00
N89    N     0.26929   0.81083   0.07507   0.00000  Uiso   1.00
N90    N     0.38805   0.25604   0.74513   0.00000  Uiso   1.00
N91    N     0.15897   0.02735   0.15641   0.00000  Uiso   1.00
N92    N     0.44737   0.74446   0.09599   0.00000  Uiso   1.00
C93    C     0.41487   0.86227   0.72639   0.00000  Uiso   1.00
C94    C     0.37318   0.79883   0.66200   0.00000  Uiso   1.00
C95    C     0.37509   0.84470   0.59621   0.00000  Uiso   1.00
C96    C     0.33305   0.77271   0.54419   0.00000  Uiso   1.00
C97    C     0.27472   0.69154   0.44219   0.00000  Uiso   1.00
C98    C     0.31014   0.86197   0.77534   0.00000  Uiso   1.00
C99    C     0.25905   0.96093   0.80486   0.00000  Uiso   1.00
C100   C     0.16395   0.94208   0.84826   0.00000  Uiso   1.00
C101   C     0.00780   0.95892   0.92226   0.00000  Uiso   1.00
C102   C     0.50778   0.78249   0.75868   0.00000  Uiso   1.00
C103   C     0.62286   0.81462   0.77421   0.00000  Uiso   1.00
C104   C     0.69415   0.72885   0.80359   0.00000  Uiso   1.00
C105   C     0.84486   0.62228   0.85172   0.00000  Uiso   1.00
C106   C     0.33681   0.65285   0.75099   0.00000  Uiso   1.00
C107   C     0.33078   0.68509   0.67537   0.00000  Uiso   1.00
C108   C     0.28873   0.61300   0.62343   0.00000  Uiso   1.00
C109   C     0.29058   0.65876   0.55758   0.00000  Uiso   1.00
C110   C     0.26774   0.74823   0.78871   0.00000  Uiso   1.00
C111   C     0.17270   0.72923   0.83208   0.00000  Uiso   1.00
C112   C     0.12148   0.82812   0.86165   0.00000  Uiso   1.00
C113   C     0.46538   0.66873   0.77205   0.00000  Uiso   1.00
C114   C     0.53650   0.58291   0.80142   0.00000  Uiso   1.00
C115   C     0.65168   0.61490   0.81698   0.00000  Uiso   1.00
H116   H     0.44787   0.95083   0.71599   0.00000  Uiso   1.00
H117   H     0.40790   0.93274   0.58589   0.00000  Uiso   1.00
H118   H     0.29189   0.04894   0.79451   0.00000  Uiso   1.00
H119   H     0.65564   0.90265   0.76386   0.00000  Uiso   1.00
H120   H     0.34485   0.86254   0.44755   0.00000  Uiso   1.00
H121   H     0.10026   0.10755   0.88746   0.00000  Uiso   1.00
H122   H     0.86730   0.79907   0.82282   0.00000  Uiso   1.00
H123   H     0.30380   0.56428   0.76140   0.00000  Uiso   1.00
H124   H     0.25593   0.52498   0.63379   0.00000  Uiso   1.00
H125   H     0.13992   0.64119   0.84241   0.00000  Uiso   1.00
H126   H     0.50367   0.49489   0.81176   0.00000  Uiso   1.00
H127   H     0.22150   0.53159   0.48643   0.00000  Uiso   1.00
H128   H     0.97691   0.77660   0.92634   0.00000  Uiso   1.00
H129   H     0.74395   0.46812   0.86170   0.00000  Uiso   1.00
O130   O     0.25424   0.67820   0.38223   0.00000  Uiso   1.00
O131   O     0.93337   0.99965   0.95938   0.00000  Uiso   1.00
O132   O     0.93971   0.59492   0.87457   0.00000  Uiso   1.00
N133   N     0.32241   0.79004   0.47421   0.00000  Uiso   1.00
N134   N     0.09372   0.01911   0.88549   0.00000  Uiso   1.00
N135   N     0.81083   0.73071   0.82508   0.00000  Uiso   1.00
N136   N     0.25604   0.61195   0.49513   0.00000  Uiso   1.00
N137   N     0.02735   0.84103   0.90641   0.00000  Uiso   1.00
N138   N     0.74446   0.55263   0.84599   0.00000  Uiso   1.00
C139   C     0.58513   0.13773   0.22639   0.00000  Uiso   1.00
C140   C     0.62682   0.20117   0.16200   0.00000  Uiso   1.00
C141   C     0.62491   0.15530   0.09621   0.00000  Uiso   1.00
C142   C     0.66695   0.22729   0.04419   0.00000  Uiso   1.00
C143   C     0.72528   0.30846   0.94219   0.00000  Uiso   1.00
C144   C     0.68986   0.13803   0.27534   0.00000  Uiso   1.00
C145   C     0.74095   0.03907   0.30486   0.00000  Uiso   1.00
C146   C     0.83605   0.05792   0.34826   0.00000  Uiso   1.00
C147   C     0.99220   0.04108   0.42226   0.00000  Uiso   1.00
C148   C     0.49222   0.21751   0.25868   0.00000  Uiso   1.00
C149   C     0.37714   0.18538   0.27421   0.00000  Uiso   1.00
C150   C     0.30585   0.27115   0.30359   0.00000  Uiso   1.00
C151   C     0.15514   0.37772   0.35172   0.00000  Uiso   1.00
C152   C     0.66319   0.34715   0.25099   0.00000  Uiso   1.00
C153   C     0.66922   0.31491   0.17537   0.00000  Uiso   1.00
C154   C     0.71127   0.38700   0.12343   0.00000  Uiso   1.00
C155   C     0.70942   0.34124   0.05758   0.00000  Uiso   1.00
C156   C     0.73226   0.25177   0.28871   0.00000  Uiso   1.00
C157   C     0.82730   0.27077   0.33208   0.00000  Uiso   1.00
C158   C     0.87852   0.17188   0.36165   0.00000  Uiso   1.00
C159   C     0.53462   0.33127   0.27205   0.00000  Uiso   1.00
C160   C     0.46350   0.41709   0.30142   0.00000  Uiso   1.00
C161   C     0.34832   0.38510   0.31698   0.00000  Uiso   1.00
H162   H     0.55213   0.04917   0.21599   0.00000  Uiso   1.00
H163   H     0.59210   0.06726   0.08589   0.00000  Uiso   1.00
H164   H     0.70811   0.95106   0.29451   0.00000  Uiso   1.00
H165   H     0.34436   0.09735   0.26386   0.00000  Uiso   1.00
H166   H     0.65515   0.13746   0.94755   0.00000  Uiso   1.00
H167   H     0.89974   0.89245   0.38746   0.00000  Uiso   1.00
H168   H     0.13270   0.20093   0.32282   0.00000  Uiso   1.00
H169   H     0.69620   0.43572   0.26140   0.00000  Uiso   1.00
H170   H     0.74407   0.47502   0.13379   0.00000  Uiso   1.00
H171   H     0.86008   0.35881   0.34241   0.00000  Uiso   1.00
H172   H     0.49633   0.50511   0.31176   0.00000  Uiso   1.00
H173   H     0.77850   0.46841   0.98643   0.00000  Uiso   1.00
H174   H     0.02309   0.22340   0.42634   0.00000  Uiso   1.00
H175   H     0.25605   0.53188   0.36170   0.00000  Uiso   1.00
O176   O     0.74576   0.32180   0.88223   0.00000  Uiso   1.00
O177   O     0.06663   0.00035   0.45938   0.00000  Uiso   1.00
O178   O     0.06029   0.40508   0.37457   0.00000  Uiso   1.00
N179   N     0.67759   0.20996   0.97421   0.00000  Uiso   1.00
N180   N     0.90628   0.98089   0.38549   0.00000  Uiso   1.00
N181   N     0.18917   0.26929   0.32508   0.00000  Uiso   1.00
N182   N     0.74396   0.38805   0.99513   0.00000  Uiso   1.00
N183   N     0.97265   0.15897   0.40641   0.00000  Uiso   1.00
N184   N     0.25554   0.44737   0.34599   0.00000  Uiso   1.00
