data_job_02351
_audit_creation_date              2018-12-19
_audit_creation_method            'Materials Studio'
_symmetry_space_group_name_H-M    'P1'
_symmetry_Int_Tables_number       1
_symmetry_cell_setting            triclinic
loop_
_symmetry_equiv_pos_as_xyz
  x,y,z
_cell_length_a                    23.8048
_cell_length_b                    23.3169
_cell_length_c                    17.1408
_cell_angle_alpha                 90.0000
_cell_angle_beta                  86.6847
_cell_angle_gamma                 90.0000
loop_
_atom_site_label
_atom_site_type_symbol
_atom_site_fract_x
_atom_site_fract_y
_atom_site_fract_z
_atom_site_U_iso_or_equiv
_atom_site_adp_type
_atom_site_occupancy
C1     C     0.71429   0.56561   0.49263   0.00000  Uiso   1.00
C2     C     0.65225   0.56669   0.47496   0.00000  Uiso   1.00
C3     C     0.63136   0.56870   0.40108   0.00000  Uiso   1.00
C4     C     0.57326   0.56942   0.39727   0.00000  Uiso   1.00
C5     C     0.48238   0.57133   0.35954   0.00000  Uiso   1.00
C6     C     0.72312   0.61649   0.54645   0.00000  Uiso   1.00
C7     C     0.76183   0.66037   0.53268   0.00000  Uiso   1.00
C8     C     0.76339   0.70300   0.58906   0.00000  Uiso   1.00
C9     C     0.78257   0.78220   0.66236   0.00000  Uiso   1.00
C10    C     0.72226   0.51207   0.54186   0.00000  Uiso   1.00
C11    C     0.76025   0.46815   0.52426   0.00000  Uiso   1.00
C12    C     0.76109   0.42287   0.57679   0.00000  Uiso   1.00
C13    C     0.77893   0.33994   0.64296   0.00000  Uiso   1.00
C14    C     0.64826   0.56331   0.61724   0.00000  Uiso   1.00
C15    C     0.61638   0.56544   0.54264   0.00000  Uiso   1.00
C16    C     0.55830   0.56616   0.53895   0.00000  Uiso   1.00
C17    C     0.53733   0.56817   0.46507   0.00000  Uiso   1.00
C18    C     0.68726   0.61524   0.61413   0.00000  Uiso   1.00
C19    C     0.68877   0.65782   0.67055   0.00000  Uiso   1.00
C20    C     0.72746   0.70175   0.65687   0.00000  Uiso   1.00
C21    C     0.68639   0.51082   0.60955   0.00000  Uiso   1.00
C22    C     0.68718   0.46560   0.66212   0.00000  Uiso   1.00
C23    C     0.72516   0.42162   0.64460   0.00000  Uiso   1.00
H24    H     0.74222   0.56659   0.43993   0.00000  Uiso   1.00
H25    H     0.65913   0.56968   0.34871   0.00000  Uiso   1.00
H26    H     0.78958   0.66132   0.48030   0.00000  Uiso   1.00
H27    H     0.78799   0.46913   0.47187   0.00000  Uiso   1.00
H28    H     0.55120   0.57257   0.27743   0.00000  Uiso   1.00
H29    H     0.82627   0.76580   0.55490   0.00000  Uiso   1.00
H30    H     0.82293   0.36054   0.53713   0.00000  Uiso   1.00
H31    H     0.62034   0.56233   0.66994   0.00000  Uiso   1.00
H32    H     0.53056   0.56519   0.59133   0.00000  Uiso   1.00
H33    H     0.66101   0.65684   0.72292   0.00000  Uiso   1.00
H34    H     0.65942   0.46465   0.71449   0.00000  Uiso   1.00
H35    H     0.44684   0.56893   0.47435   0.00000  Uiso   1.00
H36    H     0.72192   0.76216   0.75183   0.00000  Uiso   1.00
H37    H     0.71858   0.35689   0.73405   0.00000  Uiso   1.00
O38    O     0.44216   0.57273   0.32003   0.00000  Uiso   1.00
O39    O     0.80306   0.82623   0.68408   0.00000  Uiso   1.00
O40    O     0.79867   0.29453   0.66076   0.00000  Uiso   1.00
N41    N     0.53896   0.57131   0.33456   0.00000  Uiso   1.00
N42    N     0.79613   0.75197   0.59398   0.00000  Uiso   1.00
N43    N     0.79302   0.37309   0.57737   0.00000  Uiso   1.00
N44    N     0.48281   0.56935   0.44052   0.00000  Uiso   1.00
N45    N     0.73998   0.75002   0.69994   0.00000  Uiso   1.00
N46    N     0.73686   0.37113   0.68333   0.00000  Uiso   1.00
C47    C     0.21429   0.06561   0.49263   0.00000  Uiso   1.00
C48    C     0.15225   0.06669   0.47496   0.00000  Uiso   1.00
C49    C     0.13136   0.06870   0.40108   0.00000  Uiso   1.00
C50    C     0.07326   0.06942   0.39727   0.00000  Uiso   1.00
C51    C     0.98238   0.07133   0.35954   0.00000  Uiso   1.00
C52    C     0.22312   0.11649   0.54645   0.00000  Uiso   1.00
C53    C     0.26183   0.16037   0.53268   0.00000  Uiso   1.00
C54    C     0.26339   0.20300   0.58906   0.00000  Uiso   1.00
C55    C     0.28257   0.28220   0.66236   0.00000  Uiso   1.00
C56    C     0.22226   0.01207   0.54186   0.00000  Uiso   1.00
C57    C     0.26025   0.96815   0.52426   0.00000  Uiso   1.00
C58    C     0.26109   0.92287   0.57679   0.00000  Uiso   1.00
C59    C     0.27893   0.83994   0.64296   0.00000  Uiso   1.00
C60    C     0.14826   0.06331   0.61724   0.00000  Uiso   1.00
C61    C     0.11638   0.06544   0.54264   0.00000  Uiso   1.00
C62    C     0.05830   0.06616   0.53895   0.00000  Uiso   1.00
C63    C     0.03733   0.06817   0.46507   0.00000  Uiso   1.00
C64    C     0.18726   0.11524   0.61413   0.00000  Uiso   1.00
C65    C     0.18877   0.15782   0.67055   0.00000  Uiso   1.00
C66    C     0.22746   0.20175   0.65687   0.00000  Uiso   1.00
C67    C     0.18639   0.01082   0.60955   0.00000  Uiso   1.00
C68    C     0.18718   0.96560   0.66212   0.00000  Uiso   1.00
C69    C     0.22516   0.92162   0.64460   0.00000  Uiso   1.00
H70    H     0.24222   0.06659   0.43993   0.00000  Uiso   1.00
H71    H     0.15913   0.06968   0.34871   0.00000  Uiso   1.00
H72    H     0.28958   0.16132   0.48030   0.00000  Uiso   1.00
H73    H     0.28799   0.96913   0.47187   0.00000  Uiso   1.00
H74    H     0.05120   0.07257   0.27743   0.00000  Uiso   1.00
H75    H     0.32627   0.26580   0.55490   0.00000  Uiso   1.00
H76    H     0.32293   0.86054   0.53713   0.00000  Uiso   1.00
H77    H     0.12034   0.06233   0.66994   0.00000  Uiso   1.00
H78    H     0.03056   0.06519   0.59133   0.00000  Uiso   1.00
H79    H     0.16101   0.15684   0.72292   0.00000  Uiso   1.00
H80    H     0.15942   0.96465   0.71449   0.00000  Uiso   1.00
H81    H     0.94684   0.06893   0.47435   0.00000  Uiso   1.00
H82    H     0.22192   0.26216   0.75183   0.00000  Uiso   1.00
H83    H     0.21858   0.85689   0.73405   0.00000  Uiso   1.00
O84    O     0.94216   0.07273   0.32003   0.00000  Uiso   1.00
O85    O     0.30306   0.32623   0.68408   0.00000  Uiso   1.00
O86    O     0.29867   0.79453   0.66076   0.00000  Uiso   1.00
N87    N     0.03896   0.07131   0.33456   0.00000  Uiso   1.00
N88    N     0.29613   0.25197   0.59398   0.00000  Uiso   1.00
N89    N     0.29302   0.87309   0.57737   0.00000  Uiso   1.00
N90    N     0.98281   0.06935   0.44052   0.00000  Uiso   1.00
N91    N     0.23998   0.25002   0.69994   0.00000  Uiso   1.00
N92    N     0.23686   0.87113   0.68333   0.00000  Uiso   1.00
C93    C     0.28571   0.56561   0.00737   0.00000  Uiso   1.00
C94    C     0.34775   0.56669   0.02504   0.00000  Uiso   1.00
C95    C     0.36864   0.56870   0.09892   0.00000  Uiso   1.00
C96    C     0.42674   0.56942   0.10273   0.00000  Uiso   1.00
C97    C     0.51762   0.57133   0.14046   0.00000  Uiso   1.00
C98    C     0.27688   0.61649   0.95355   0.00000  Uiso   1.00
C99    C     0.23817   0.66037   0.96732   0.00000  Uiso   1.00
C100   C     0.23661   0.70300   0.91094   0.00000  Uiso   1.00
C101   C     0.21743   0.78220   0.83764   0.00000  Uiso   1.00
C102   C     0.27774   0.51207   0.95814   0.00000  Uiso   1.00
C103   C     0.23975   0.46815   0.97574   0.00000  Uiso   1.00
C104   C     0.23891   0.42287   0.92321   0.00000  Uiso   1.00
C105   C     0.22107   0.33994   0.85704   0.00000  Uiso   1.00
C106   C     0.35174   0.56331   0.88276   0.00000  Uiso   1.00
C107   C     0.38362   0.56544   0.95736   0.00000  Uiso   1.00
C108   C     0.44170   0.56616   0.96105   0.00000  Uiso   1.00
C109   C     0.46267   0.56817   0.03493   0.00000  Uiso   1.00
C110   C     0.31274   0.61524   0.88587   0.00000  Uiso   1.00
C111   C     0.31123   0.65782   0.82945   0.00000  Uiso   1.00
C112   C     0.27254   0.70175   0.84313   0.00000  Uiso   1.00
C113   C     0.31361   0.51082   0.89045   0.00000  Uiso   1.00
C114   C     0.31282   0.46560   0.83788   0.00000  Uiso   1.00
C115   C     0.27484   0.42162   0.85540   0.00000  Uiso   1.00
H116   H     0.25778   0.56659   0.06007   0.00000  Uiso   1.00
H117   H     0.34087   0.56968   0.15129   0.00000  Uiso   1.00
H118   H     0.21042   0.66132   0.01970   0.00000  Uiso   1.00
H119   H     0.21201   0.46913   0.02813   0.00000  Uiso   1.00
H120   H     0.44880   0.57257   0.22257   0.00000  Uiso   1.00
H121   H     0.17373   0.76580   0.94510   0.00000  Uiso   1.00
H122   H     0.17707   0.36054   0.96287   0.00000  Uiso   1.00
H123   H     0.37966   0.56233   0.83006   0.00000  Uiso   1.00
H124   H     0.46944   0.56519   0.90867   0.00000  Uiso   1.00
H125   H     0.33899   0.65684   0.77708   0.00000  Uiso   1.00
H126   H     0.34058   0.46465   0.78551   0.00000  Uiso   1.00
H127   H     0.55316   0.56893   0.02565   0.00000  Uiso   1.00
H128   H     0.27808   0.76216   0.74817   0.00000  Uiso   1.00
H129   H     0.28142   0.35689   0.76595   0.00000  Uiso   1.00
O130   O     0.55784   0.57273   0.17997   0.00000  Uiso   1.00
O131   O     0.19694   0.82623   0.81592   0.00000  Uiso   1.00
O132   O     0.20133   0.29453   0.83924   0.00000  Uiso   1.00
N133   N     0.46104   0.57131   0.16544   0.00000  Uiso   1.00
N134   N     0.20387   0.75197   0.90602   0.00000  Uiso   1.00
N135   N     0.20698   0.37309   0.92263   0.00000  Uiso   1.00
N136   N     0.51719   0.56935   0.05948   0.00000  Uiso   1.00
N137   N     0.26002   0.75002   0.80006   0.00000  Uiso   1.00
N138   N     0.26314   0.37113   0.81667   0.00000  Uiso   1.00
C139   C     0.78571   0.06561   0.00737   0.00000  Uiso   1.00
C140   C     0.84775   0.06669   0.02504   0.00000  Uiso   1.00
C141   C     0.86864   0.06870   0.09892   0.00000  Uiso   1.00
C142   C     0.92674   0.06942   0.10273   0.00000  Uiso   1.00
C143   C     0.01762   0.07133   0.14046   0.00000  Uiso   1.00
C144   C     0.77688   0.11649   0.95355   0.00000  Uiso   1.00
C145   C     0.73817   0.16037   0.96732   0.00000  Uiso   1.00
C146   C     0.73661   0.20300   0.91094   0.00000  Uiso   1.00
C147   C     0.71743   0.28220   0.83764   0.00000  Uiso   1.00
C148   C     0.77774   0.01207   0.95814   0.00000  Uiso   1.00
C149   C     0.73975   0.96815   0.97574   0.00000  Uiso   1.00
C150   C     0.73891   0.92287   0.92321   0.00000  Uiso   1.00
C151   C     0.72107   0.83994   0.85704   0.00000  Uiso   1.00
C152   C     0.85174   0.06331   0.88276   0.00000  Uiso   1.00
C153   C     0.88362   0.06544   0.95736   0.00000  Uiso   1.00
C154   C     0.94170   0.06616   0.96105   0.00000  Uiso   1.00
C155   C     0.96267   0.06817   0.03493   0.00000  Uiso   1.00
C156   C     0.81274   0.11524   0.88587   0.00000  Uiso   1.00
C157   C     0.81123   0.15782   0.82945   0.00000  Uiso   1.00
C158   C     0.77254   0.20175   0.84313   0.00000  Uiso   1.00
C159   C     0.81361   0.01082   0.89045   0.00000  Uiso   1.00
C160   C     0.81282   0.96560   0.83788   0.00000  Uiso   1.00
C161   C     0.77484   0.92162   0.85540   0.00000  Uiso   1.00
H162   H     0.75778   0.06659   0.06007   0.00000  Uiso   1.00
H163   H     0.84087   0.06968   0.15129   0.00000  Uiso   1.00
H164   H     0.71042   0.16132   0.01970   0.00000  Uiso   1.00
H165   H     0.71201   0.96913   0.02813   0.00000  Uiso   1.00
H166   H     0.94880   0.07257   0.22257   0.00000  Uiso   1.00
H167   H     0.67373   0.26580   0.94510   0.00000  Uiso   1.00
H168   H     0.67707   0.86054   0.96287   0.00000  Uiso   1.00
H169   H     0.87966   0.06233   0.83006   0.00000  Uiso   1.00
H170   H     0.96944   0.06519   0.90867   0.00000  Uiso   1.00
H171   H     0.83899   0.15684   0.77708   0.00000  Uiso   1.00
H172   H     0.84058   0.96465   0.78551   0.00000  Uiso   1.00
H173   H     0.05316   0.06893   0.02565   0.00000  Uiso   1.00
H174   H     0.77808   0.26216   0.74817   0.00000  Uiso   1.00
H175   H     0.78142   0.85689   0.76595   0.00000  Uiso   1.00
O176   O     0.05784   0.07273   0.17997   0.00000  Uiso   1.00
O177   O     0.69694   0.32623   0.81592   0.00000  Uiso   1.00
O178   O     0.70133   0.79453   0.83924   0.00000  Uiso   1.00
N179   N     0.96104   0.07131   0.16544   0.00000  Uiso   1.00
N180   N     0.70387   0.25197   0.90602   0.00000  Uiso   1.00
N181   N     0.70698   0.87309   0.92263   0.00000  Uiso   1.00
N182   N     0.01719   0.06935   0.05948   0.00000  Uiso   1.00
N183   N     0.76002   0.25002   0.80006   0.00000  Uiso   1.00
N184   N     0.76314   0.87113   0.81667   0.00000  Uiso   1.00
C185   C     0.28571   0.43439   0.50737   0.00000  Uiso   1.00
C186   C     0.34775   0.43331   0.52504   0.00000  Uiso   1.00
C187   C     0.36864   0.43130   0.59892   0.00000  Uiso   1.00
C188   C     0.42674   0.43058   0.60273   0.00000  Uiso   1.00
C189   C     0.51762   0.42867   0.64046   0.00000  Uiso   1.00
C190   C     0.27688   0.38351   0.45355   0.00000  Uiso   1.00
C191   C     0.23817   0.33963   0.46732   0.00000  Uiso   1.00
C192   C     0.23661   0.29700   0.41094   0.00000  Uiso   1.00
C193   C     0.21743   0.21780   0.33764   0.00000  Uiso   1.00
C194   C     0.27774   0.48793   0.45814   0.00000  Uiso   1.00
C195   C     0.23975   0.53185   0.47574   0.00000  Uiso   1.00
C196   C     0.23891   0.57713   0.42321   0.00000  Uiso   1.00
C197   C     0.22107   0.66006   0.35704   0.00000  Uiso   1.00
C198   C     0.35174   0.43669   0.38276   0.00000  Uiso   1.00
C199   C     0.38362   0.43456   0.45736   0.00000  Uiso   1.00
C200   C     0.44170   0.43384   0.46105   0.00000  Uiso   1.00
C201   C     0.46267   0.43183   0.53493   0.00000  Uiso   1.00
C202   C     0.31274   0.38476   0.38587   0.00000  Uiso   1.00
C203   C     0.31123   0.34218   0.32945   0.00000  Uiso   1.00
C204   C     0.27254   0.29825   0.34313   0.00000  Uiso   1.00
C205   C     0.31361   0.48918   0.39045   0.00000  Uiso   1.00
C206   C     0.31282   0.53440   0.33788   0.00000  Uiso   1.00
C207   C     0.27484   0.57838   0.35540   0.00000  Uiso   1.00
H208   H     0.25778   0.43341   0.56007   0.00000  Uiso   1.00
H209   H     0.34087   0.43032   0.65129   0.00000  Uiso   1.00
H210   H     0.21042   0.33868   0.51970   0.00000  Uiso   1.00
H211   H     0.21201   0.53087   0.52813   0.00000  Uiso   1.00
H212   H     0.44880   0.42743   0.72257   0.00000  Uiso   1.00
H213   H     0.17373   0.23420   0.44510   0.00000  Uiso   1.00
H214   H     0.17707   0.63946   0.46287   0.00000  Uiso   1.00
H215   H     0.37966   0.43767   0.33006   0.00000  Uiso   1.00
H216   H     0.46944   0.43481   0.40867   0.00000  Uiso   1.00
H217   H     0.33899   0.34316   0.27708   0.00000  Uiso   1.00
H218   H     0.34058   0.53535   0.28551   0.00000  Uiso   1.00
H219   H     0.55316   0.43107   0.52565   0.00000  Uiso   1.00
H220   H     0.27808   0.23784   0.24817   0.00000  Uiso   1.00
H221   H     0.28142   0.64311   0.26595   0.00000  Uiso   1.00
O222   O     0.55784   0.42727   0.67997   0.00000  Uiso   1.00
O223   O     0.19694   0.17377   0.31592   0.00000  Uiso   1.00
O224   O     0.20133   0.70547   0.33924   0.00000  Uiso   1.00
N225   N     0.46104   0.42869   0.66544   0.00000  Uiso   1.00
N226   N     0.20387   0.24803   0.40602   0.00000  Uiso   1.00
N227   N     0.20698   0.62691   0.42263   0.00000  Uiso   1.00
N228   N     0.51719   0.43065   0.55948   0.00000  Uiso   1.00
N229   N     0.26002   0.24998   0.30006   0.00000  Uiso   1.00
N230   N     0.26314   0.62887   0.31667   0.00000  Uiso   1.00
C231   C     0.78571   0.93439   0.50737   0.00000  Uiso   1.00
C232   C     0.84775   0.93331   0.52504   0.00000  Uiso   1.00
C233   C     0.86864   0.93130   0.59892   0.00000  Uiso   1.00
C234   C     0.92674   0.93058   0.60273   0.00000  Uiso   1.00
C235   C     0.01762   0.92867   0.64046   0.00000  Uiso   1.00
C236   C     0.77688   0.88351   0.45355   0.00000  Uiso   1.00
C237   C     0.73817   0.83963   0.46732   0.00000  Uiso   1.00
C238   C     0.73661   0.79700   0.41094   0.00000  Uiso   1.00
C239   C     0.71743   0.71780   0.33764   0.00000  Uiso   1.00
C240   C     0.77774   0.98793   0.45814   0.00000  Uiso   1.00
C241   C     0.73975   0.03185   0.47574   0.00000  Uiso   1.00
C242   C     0.73891   0.07713   0.42321   0.00000  Uiso   1.00
C243   C     0.72107   0.16006   0.35704   0.00000  Uiso   1.00
C244   C     0.85174   0.93669   0.38276   0.00000  Uiso   1.00
C245   C     0.88362   0.93456   0.45736   0.00000  Uiso   1.00
C246   C     0.94170   0.93384   0.46105   0.00000  Uiso   1.00
C247   C     0.96267   0.93183   0.53493   0.00000  Uiso   1.00
C248   C     0.81274   0.88476   0.38587   0.00000  Uiso   1.00
C249   C     0.81123   0.84218   0.32945   0.00000  Uiso   1.00
C250   C     0.77254   0.79825   0.34313   0.00000  Uiso   1.00
C251   C     0.81361   0.98918   0.39045   0.00000  Uiso   1.00
C252   C     0.81282   0.03440   0.33788   0.00000  Uiso   1.00
C253   C     0.77484   0.07838   0.35540   0.00000  Uiso   1.00
H254   H     0.75778   0.93341   0.56007   0.00000  Uiso   1.00
H255   H     0.84087   0.93032   0.65129   0.00000  Uiso   1.00
H256   H     0.71042   0.83868   0.51970   0.00000  Uiso   1.00
H257   H     0.71201   0.03087   0.52813   0.00000  Uiso   1.00
H258   H     0.94880   0.92743   0.72257   0.00000  Uiso   1.00
H259   H     0.67373   0.73420   0.44510   0.00000  Uiso   1.00
H260   H     0.67707   0.13946   0.46287   0.00000  Uiso   1.00
H261   H     0.87966   0.93767   0.33006   0.00000  Uiso   1.00
H262   H     0.96944   0.93481   0.40867   0.00000  Uiso   1.00
H263   H     0.83899   0.84316   0.27708   0.00000  Uiso   1.00
H264   H     0.84058   0.03535   0.28551   0.00000  Uiso   1.00
H265   H     0.05316   0.93107   0.52565   0.00000  Uiso   1.00
H266   H     0.77808   0.73784   0.24817   0.00000  Uiso   1.00
H267   H     0.78142   0.14311   0.26595   0.00000  Uiso   1.00
O268   O     0.05784   0.92727   0.67997   0.00000  Uiso   1.00
O269   O     0.69694   0.67377   0.31592   0.00000  Uiso   1.00
O270   O     0.70133   0.20547   0.33924   0.00000  Uiso   1.00
N271   N     0.96104   0.92869   0.66544   0.00000  Uiso   1.00
N272   N     0.70387   0.74803   0.40602   0.00000  Uiso   1.00
N273   N     0.70698   0.12691   0.42263   0.00000  Uiso   1.00
N274   N     0.01719   0.93065   0.55948   0.00000  Uiso   1.00
N275   N     0.76002   0.74998   0.30006   0.00000  Uiso   1.00
N276   N     0.76314   0.12887   0.31667   0.00000  Uiso   1.00
C277   C     0.71429   0.43439   0.99263   0.00000  Uiso   1.00
C278   C     0.65225   0.43331   0.97496   0.00000  Uiso   1.00
C279   C     0.63136   0.43130   0.90108   0.00000  Uiso   1.00
C280   C     0.57326   0.43058   0.89727   0.00000  Uiso   1.00
C281   C     0.48238   0.42867   0.85954   0.00000  Uiso   1.00
C282   C     0.72312   0.38351   0.04645   0.00000  Uiso   1.00
C283   C     0.76183   0.33963   0.03268   0.00000  Uiso   1.00
C284   C     0.76339   0.29700   0.08906   0.00000  Uiso   1.00
C285   C     0.78257   0.21780   0.16236   0.00000  Uiso   1.00
C286   C     0.72226   0.48793   0.04186   0.00000  Uiso   1.00
C287   C     0.76025   0.53185   0.02426   0.00000  Uiso   1.00
C288   C     0.76109   0.57713   0.07679   0.00000  Uiso   1.00
C289   C     0.77893   0.66006   0.14296   0.00000  Uiso   1.00
C290   C     0.64826   0.43669   0.11724   0.00000  Uiso   1.00
C291   C     0.61638   0.43456   0.04264   0.00000  Uiso   1.00
C292   C     0.55830   0.43384   0.03895   0.00000  Uiso   1.00
C293   C     0.53733   0.43183   0.96507   0.00000  Uiso   1.00
C294   C     0.68726   0.38476   0.11413   0.00000  Uiso   1.00
C295   C     0.68877   0.34218   0.17055   0.00000  Uiso   1.00
C296   C     0.72746   0.29825   0.15687   0.00000  Uiso   1.00
C297   C     0.68639   0.48918   0.10955   0.00000  Uiso   1.00
C298   C     0.68718   0.53440   0.16212   0.00000  Uiso   1.00
C299   C     0.72516   0.57838   0.14460   0.00000  Uiso   1.00
H300   H     0.74222   0.43341   0.93993   0.00000  Uiso   1.00
H301   H     0.65913   0.43032   0.84871   0.00000  Uiso   1.00
H302   H     0.78958   0.33868   0.98030   0.00000  Uiso   1.00
H303   H     0.78799   0.53087   0.97187   0.00000  Uiso   1.00
H304   H     0.55120   0.42743   0.77743   0.00000  Uiso   1.00
H305   H     0.82627   0.23420   0.05490   0.00000  Uiso   1.00
H306   H     0.82293   0.63946   0.03713   0.00000  Uiso   1.00
H307   H     0.62034   0.43767   0.16994   0.00000  Uiso   1.00
H308   H     0.53056   0.43481   0.09133   0.00000  Uiso   1.00
H309   H     0.66101   0.34316   0.22292   0.00000  Uiso   1.00
H310   H     0.65942   0.53535   0.21449   0.00000  Uiso   1.00
H311   H     0.44684   0.43107   0.97435   0.00000  Uiso   1.00
H312   H     0.72192   0.23784   0.25183   0.00000  Uiso   1.00
H313   H     0.71858   0.64311   0.23405   0.00000  Uiso   1.00
O314   O     0.44216   0.42727   0.82003   0.00000  Uiso   1.00
O315   O     0.80306   0.17377   0.18408   0.00000  Uiso   1.00
O316   O     0.79867   0.70547   0.16076   0.00000  Uiso   1.00
N317   N     0.53896   0.42869   0.83456   0.00000  Uiso   1.00
N318   N     0.79613   0.24803   0.09398   0.00000  Uiso   1.00
N319   N     0.79302   0.62691   0.07737   0.00000  Uiso   1.00
N320   N     0.48281   0.43065   0.94052   0.00000  Uiso   1.00
N321   N     0.73998   0.24998   0.19994   0.00000  Uiso   1.00
N322   N     0.73686   0.62887   0.18333   0.00000  Uiso   1.00
C323   C     0.21429   0.93439   0.99263   0.00000  Uiso   1.00
C324   C     0.15225   0.93331   0.97496   0.00000  Uiso   1.00
C325   C     0.13136   0.93130   0.90108   0.00000  Uiso   1.00
C326   C     0.07326   0.93058   0.89727   0.00000  Uiso   1.00
C327   C     0.98238   0.92867   0.85954   0.00000  Uiso   1.00
C328   C     0.22312   0.88351   0.04645   0.00000  Uiso   1.00
C329   C     0.26183   0.83963   0.03268   0.00000  Uiso   1.00
C330   C     0.26339   0.79700   0.08906   0.00000  Uiso   1.00
C331   C     0.28257   0.71780   0.16236   0.00000  Uiso   1.00
C332   C     0.22226   0.98793   0.04186   0.00000  Uiso   1.00
C333   C     0.26025   0.03185   0.02426   0.00000  Uiso   1.00
C334   C     0.26109   0.07713   0.07679   0.00000  Uiso   1.00
C335   C     0.27893   0.16006   0.14296   0.00000  Uiso   1.00
C336   C     0.14826   0.93669   0.11724   0.00000  Uiso   1.00
C337   C     0.11638   0.93456   0.04264   0.00000  Uiso   1.00
C338   C     0.05830   0.93384   0.03895   0.00000  Uiso   1.00
C339   C     0.03733   0.93183   0.96507   0.00000  Uiso   1.00
C340   C     0.18726   0.88476   0.11413   0.00000  Uiso   1.00
C341   C     0.18877   0.84218   0.17055   0.00000  Uiso   1.00
C342   C     0.22746   0.79825   0.15687   0.00000  Uiso   1.00
C343   C     0.18639   0.98918   0.10955   0.00000  Uiso   1.00
C344   C     0.18718   0.03440   0.16212   0.00000  Uiso   1.00
C345   C     0.22516   0.07838   0.14460   0.00000  Uiso   1.00
H346   H     0.24222   0.93341   0.93993   0.00000  Uiso   1.00
H347   H     0.15913   0.93032   0.84871   0.00000  Uiso   1.00
H348   H     0.28958   0.83868   0.98030   0.00000  Uiso   1.00
H349   H     0.28799   0.03087   0.97187   0.00000  Uiso   1.00
H350   H     0.05120   0.92743   0.77743   0.00000  Uiso   1.00
H351   H     0.32627   0.73420   0.05490   0.00000  Uiso   1.00
H352   H     0.32293   0.13946   0.03713   0.00000  Uiso   1.00
H353   H     0.12034   0.93767   0.16994   0.00000  Uiso   1.00
H354   H     0.03056   0.93481   0.09133   0.00000  Uiso   1.00
H355   H     0.16101   0.84316   0.22292   0.00000  Uiso   1.00
H356   H     0.15942   0.03535   0.21449   0.00000  Uiso   1.00
H357   H     0.94684   0.93107   0.97435   0.00000  Uiso   1.00
H358   H     0.22192   0.73784   0.25183   0.00000  Uiso   1.00
H359   H     0.21858   0.14311   0.23405   0.00000  Uiso   1.00
O360   O     0.94216   0.92727   0.82003   0.00000  Uiso   1.00
O361   O     0.30306   0.67377   0.18408   0.00000  Uiso   1.00
O362   O     0.29867   0.20547   0.16076   0.00000  Uiso   1.00
N363   N     0.03896   0.92869   0.83456   0.00000  Uiso   1.00
N364   N     0.29613   0.74803   0.09398   0.00000  Uiso   1.00
N365   N     0.29302   0.12691   0.07737   0.00000  Uiso   1.00
N366   N     0.98281   0.93065   0.94052   0.00000  Uiso   1.00
N367   N     0.23998   0.74998   0.19994   0.00000  Uiso   1.00
N368   N     0.23686   0.12887   0.18333   0.00000  Uiso   1.00
