data_job_01974
_audit_creation_date              2018-12-19
_audit_creation_method            'Materials Studio'
_symmetry_space_group_name_H-M    'P1'
_symmetry_Int_Tables_number       1
_symmetry_cell_setting            triclinic
loop_
_symmetry_equiv_pos_as_xyz
  x,y,z
_cell_length_a                    15.0947
_cell_length_b                    15.0947
_cell_length_c                    20.1233
_cell_angle_alpha                 90.0000
_cell_angle_beta                  90.0000
_cell_angle_gamma                 90.0000
loop_
_atom_site_label
_atom_site_type_symbol
_atom_site_fract_x
_atom_site_fract_y
_atom_site_fract_z
_atom_site_U_iso_or_equiv
_atom_site_adp_type
_atom_site_occupancy
C1     C     0.24762   0.34752   0.32716   0.00000  Uiso   1.00
C2     C     0.33280   0.32563   0.28987   0.00000  Uiso   1.00
C3     C     0.36891   0.24171   0.28215   0.00000  Uiso   1.00
C4     C     0.44728   0.23556   0.24634   0.00000  Uiso   1.00
C5     C     0.57337   0.19015   0.19258   0.00000  Uiso   1.00
C6     C     0.27298   0.41568   0.37977   0.00000  Uiso   1.00
C7     C     0.25877   0.40747   0.44763   0.00000  Uiso   1.00
C8     C     0.28677   0.47713   0.48749   0.00000  Uiso   1.00
C9     C     0.31992   0.57154   0.57329   0.00000  Uiso   1.00
C10    C     0.18848   0.39605   0.27767   0.00000  Uiso   1.00
C11    C     0.10322   0.37135   0.25971   0.00000  Uiso   1.00
C12    C     0.06007   0.42450   0.21362   0.00000  Uiso   1.00
C13    C     0.96203   0.48844   0.14091   0.00000  Uiso   1.00
C14    C     0.32260   0.48584   0.27728   0.00000  Uiso   1.00
C15    C     0.37353   0.40076   0.26278   0.00000  Uiso   1.00
C16    C     0.45186   0.39474   0.22697   0.00000  Uiso   1.00
C17    C     0.48808   0.31083   0.21919   0.00000  Uiso   1.00
C18    C     0.31370   0.49080   0.35268   0.00000  Uiso   1.00
C19    C     0.34173   0.56050   0.39244   0.00000  Uiso   1.00
C20    C     0.32757   0.55240   0.46035   0.00000  Uiso   1.00
C21    C     0.22920   0.47118   0.25058   0.00000  Uiso   1.00
C22    C     0.18618   0.52438   0.20452   0.00000  Uiso   1.00
C23    C     0.10087   0.49977   0.18648   0.00000  Uiso   1.00
H24    H     0.21592   0.28903   0.34826   0.00000  Uiso   1.00
H25    H     0.33737   0.18358   0.30313   0.00000  Uiso   1.00
H26    H     0.22724   0.34932   0.46858   0.00000  Uiso   1.00
H27    H     0.07173   0.31321   0.28068   0.00000  Uiso   1.00
H28    H     0.49001   0.09981   0.24117   0.00000  Uiso   1.00
H29    H     0.25777   0.44929   0.59002   0.00000  Uiso   1.00
H30    H     0.92982   0.37314   0.19381   0.00000  Uiso   1.00
H31    H     0.35431   0.54434   0.25619   0.00000  Uiso   1.00
H32    H     0.48336   0.45289   0.20601   0.00000  Uiso   1.00
H33    H     0.37323   0.61863   0.37146   0.00000  Uiso   1.00
H34    H     0.21772   0.58252   0.18357   0.00000  Uiso   1.00
H35    H     0.60850   0.31839   0.16234   0.00000  Uiso   1.00
H36    H     0.37626   0.66787   0.51120   0.00000  Uiso   1.00
H37    H     0.04831   0.59172   0.11499   0.00000  Uiso   1.00
O38    O     0.63167   0.14435   0.17042   0.00000  Uiso   1.00
O39    O     0.32696   0.60285   0.62811   0.00000  Uiso   1.00
O40    O     0.89671   0.50294   0.10829   0.00000  Uiso   1.00
N41    N     0.50018   0.16380   0.22949   0.00000  Uiso   1.00
N42    N     0.28306   0.49054   0.55565   0.00000  Uiso   1.00
N43    N     0.97645   0.41935   0.18524   0.00000  Uiso   1.00
N44    N     0.56394   0.28142   0.18708   0.00000  Uiso   1.00
N45    N     0.34682   0.60815   0.51324   0.00000  Uiso   1.00
N46    N     0.04021   0.53697   0.14283   0.00000  Uiso   1.00
C47    C     0.75238   0.65248   0.82716   0.00000  Uiso   1.00
C48    C     0.66720   0.67437   0.78987   0.00000  Uiso   1.00
C49    C     0.63109   0.75829   0.78215   0.00000  Uiso   1.00
C50    C     0.55272   0.76444   0.74634   0.00000  Uiso   1.00
C51    C     0.42663   0.80985   0.69258   0.00000  Uiso   1.00
C52    C     0.72702   0.58432   0.87977   0.00000  Uiso   1.00
C53    C     0.74123   0.59253   0.94763   0.00000  Uiso   1.00
C54    C     0.71323   0.52287   0.98749   0.00000  Uiso   1.00
C55    C     0.68008   0.42846   0.07329   0.00000  Uiso   1.00
C56    C     0.81152   0.60395   0.77767   0.00000  Uiso   1.00
C57    C     0.89678   0.62865   0.75971   0.00000  Uiso   1.00
C58    C     0.93993   0.57550   0.71362   0.00000  Uiso   1.00
C59    C     0.03797   0.51156   0.64091   0.00000  Uiso   1.00
C60    C     0.67740   0.51416   0.77728   0.00000  Uiso   1.00
C61    C     0.62647   0.59924   0.76278   0.00000  Uiso   1.00
C62    C     0.54814   0.60526   0.72697   0.00000  Uiso   1.00
C63    C     0.51192   0.68917   0.71919   0.00000  Uiso   1.00
C64    C     0.68630   0.50920   0.85268   0.00000  Uiso   1.00
C65    C     0.65827   0.43950   0.89244   0.00000  Uiso   1.00
C66    C     0.67243   0.44760   0.96035   0.00000  Uiso   1.00
C67    C     0.77080   0.52882   0.75058   0.00000  Uiso   1.00
C68    C     0.81382   0.47562   0.70452   0.00000  Uiso   1.00
C69    C     0.89913   0.50023   0.68648   0.00000  Uiso   1.00
H70    H     0.78408   0.71097   0.84826   0.00000  Uiso   1.00
H71    H     0.66263   0.81642   0.80313   0.00000  Uiso   1.00
H72    H     0.77276   0.65068   0.96858   0.00000  Uiso   1.00
H73    H     0.92827   0.68679   0.78068   0.00000  Uiso   1.00
H74    H     0.50999   0.90019   0.74117   0.00000  Uiso   1.00
H75    H     0.74223   0.55071   0.09002   0.00000  Uiso   1.00
H76    H     0.07018   0.62686   0.69381   0.00000  Uiso   1.00
H77    H     0.64569   0.45566   0.75619   0.00000  Uiso   1.00
H78    H     0.51664   0.54711   0.70601   0.00000  Uiso   1.00
H79    H     0.62677   0.38137   0.87146   0.00000  Uiso   1.00
H80    H     0.78228   0.41748   0.68357   0.00000  Uiso   1.00
H81    H     0.39150   0.68161   0.66234   0.00000  Uiso   1.00
H82    H     0.62374   0.33213   0.01120   0.00000  Uiso   1.00
H83    H     0.95169   0.40828   0.61499   0.00000  Uiso   1.00
O84    O     0.36833   0.85565   0.67042   0.00000  Uiso   1.00
O85    O     0.67304   0.39715   0.12811   0.00000  Uiso   1.00
O86    O     0.10329   0.49706   0.60829   0.00000  Uiso   1.00
N87    N     0.49982   0.83620   0.72949   0.00000  Uiso   1.00
N88    N     0.71694   0.50946   0.05565   0.00000  Uiso   1.00
N89    N     0.02355   0.58065   0.68524   0.00000  Uiso   1.00
N90    N     0.43606   0.71858   0.68708   0.00000  Uiso   1.00
N91    N     0.65318   0.39185   0.01324   0.00000  Uiso   1.00
N92    N     0.95979   0.46303   0.64283   0.00000  Uiso   1.00
C93    C     0.15248   0.74762   0.07716   0.00000  Uiso   1.00
C94    C     0.17437   0.83280   0.03987   0.00000  Uiso   1.00
C95    C     0.25829   0.86891   0.03215   0.00000  Uiso   1.00
C96    C     0.26444   0.94728   0.99634   0.00000  Uiso   1.00
C97    C     0.30985   0.07337   0.94258   0.00000  Uiso   1.00
C98    C     0.08432   0.77298   0.12977   0.00000  Uiso   1.00
C99    C     0.09253   0.75877   0.19763   0.00000  Uiso   1.00
C100   C     0.02287   0.78677   0.23749   0.00000  Uiso   1.00
C101   C     0.92846   0.81992   0.32329   0.00000  Uiso   1.00
C102   C     0.10395   0.68848   0.02767   0.00000  Uiso   1.00
C103   C     0.12865   0.60322   0.00971   0.00000  Uiso   1.00
C104   C     0.07550   0.56007   0.96362   0.00000  Uiso   1.00
C105   C     0.01156   0.46203   0.89091   0.00000  Uiso   1.00
C106   C     0.01416   0.82260   0.02728   0.00000  Uiso   1.00
C107   C     0.09924   0.87353   0.01278   0.00000  Uiso   1.00
C108   C     0.10526   0.95186   0.97697   0.00000  Uiso   1.00
C109   C     0.18917   0.98808   0.96919   0.00000  Uiso   1.00
C110   C     0.00920   0.81370   0.10268   0.00000  Uiso   1.00
C111   C     0.93950   0.84173   0.14244   0.00000  Uiso   1.00
C112   C     0.94760   0.82757   0.21035   0.00000  Uiso   1.00
C113   C     0.02882   0.72920   0.00058   0.00000  Uiso   1.00
C114   C     0.97562   0.68618   0.95452   0.00000  Uiso   1.00
C115   C     0.00023   0.60087   0.93648   0.00000  Uiso   1.00
H116   H     0.21097   0.71592   0.09826   0.00000  Uiso   1.00
H117   H     0.31642   0.83737   0.05313   0.00000  Uiso   1.00
H118   H     0.15068   0.72724   0.21858   0.00000  Uiso   1.00
H119   H     0.18679   0.57173   0.03068   0.00000  Uiso   1.00
H120   H     0.40019   0.99001   0.99117   0.00000  Uiso   1.00
H121   H     0.05071   0.75777   0.34002   0.00000  Uiso   1.00
H122   H     0.12686   0.42982   0.94381   0.00000  Uiso   1.00
H123   H     0.95566   0.85431   0.00619   0.00000  Uiso   1.00
H124   H     0.04711   0.98336   0.95601   0.00000  Uiso   1.00
H125   H     0.88137   0.87323   0.12146   0.00000  Uiso   1.00
H126   H     0.91748   0.71772   0.93357   0.00000  Uiso   1.00
H127   H     0.18161   0.10850   0.91234   0.00000  Uiso   1.00
H128   H     0.83213   0.87626   0.26120   0.00000  Uiso   1.00
H129   H     0.90828   0.54831   0.86499   0.00000  Uiso   1.00
O130   O     0.35565   0.13167   0.92042   0.00000  Uiso   1.00
O131   O     0.89715   0.82696   0.37811   0.00000  Uiso   1.00
O132   O     0.99706   0.39671   0.85829   0.00000  Uiso   1.00
N133   N     0.33620   0.00018   0.97949   0.00000  Uiso   1.00
N134   N     0.00946   0.78306   0.30565   0.00000  Uiso   1.00
N135   N     0.08065   0.47645   0.93524   0.00000  Uiso   1.00
N136   N     0.21858   0.06394   0.93708   0.00000  Uiso   1.00
N137   N     0.89185   0.84682   0.26324   0.00000  Uiso   1.00
N138   N     0.96303   0.54021   0.89283   0.00000  Uiso   1.00
C139   C     0.84752   0.25238   0.57716   0.00000  Uiso   1.00
C140   C     0.82563   0.16720   0.53987   0.00000  Uiso   1.00
C141   C     0.74171   0.13109   0.53215   0.00000  Uiso   1.00
C142   C     0.73556   0.05272   0.49634   0.00000  Uiso   1.00
C143   C     0.69015   0.92663   0.44258   0.00000  Uiso   1.00
C144   C     0.91568   0.22702   0.62977   0.00000  Uiso   1.00
C145   C     0.90747   0.24123   0.69763   0.00000  Uiso   1.00
C146   C     0.97713   0.21323   0.73749   0.00000  Uiso   1.00
C147   C     0.07154   0.18008   0.82329   0.00000  Uiso   1.00
C148   C     0.89605   0.31152   0.52767   0.00000  Uiso   1.00
C149   C     0.87135   0.39678   0.50971   0.00000  Uiso   1.00
C150   C     0.92450   0.43993   0.46362   0.00000  Uiso   1.00
C151   C     0.98844   0.53797   0.39091   0.00000  Uiso   1.00
C152   C     0.98584   0.17740   0.52728   0.00000  Uiso   1.00
C153   C     0.90076   0.12647   0.51278   0.00000  Uiso   1.00
C154   C     0.89474   0.04814   0.47697   0.00000  Uiso   1.00
C155   C     0.81083   0.01192   0.46919   0.00000  Uiso   1.00
C156   C     0.99080   0.18630   0.60268   0.00000  Uiso   1.00
C157   C     0.06050   0.15827   0.64244   0.00000  Uiso   1.00
C158   C     0.05240   0.17243   0.71035   0.00000  Uiso   1.00
C159   C     0.97118   0.27080   0.50058   0.00000  Uiso   1.00
C160   C     0.02438   0.31382   0.45452   0.00000  Uiso   1.00
C161   C     0.99977   0.39913   0.43648   0.00000  Uiso   1.00
H162   H     0.78903   0.28408   0.59826   0.00000  Uiso   1.00
H163   H     0.68358   0.16263   0.55313   0.00000  Uiso   1.00
H164   H     0.84932   0.27276   0.71858   0.00000  Uiso   1.00
H165   H     0.81321   0.42827   0.53068   0.00000  Uiso   1.00
H166   H     0.59981   0.00999   0.49117   0.00000  Uiso   1.00
H167   H     0.94929   0.24223   0.84002   0.00000  Uiso   1.00
H168   H     0.87314   0.57018   0.44381   0.00000  Uiso   1.00
H169   H     0.04434   0.14569   0.50619   0.00000  Uiso   1.00
H170   H     0.95289   0.01664   0.45601   0.00000  Uiso   1.00
H171   H     0.11863   0.12677   0.62146   0.00000  Uiso   1.00
H172   H     0.08252   0.28228   0.43357   0.00000  Uiso   1.00
H173   H     0.81839   0.89150   0.41234   0.00000  Uiso   1.00
H174   H     0.16787   0.12374   0.76120   0.00000  Uiso   1.00
H175   H     0.09172   0.45169   0.36499   0.00000  Uiso   1.00
O176   O     0.64435   0.86833   0.42042   0.00000  Uiso   1.00
O177   O     0.10285   0.17304   0.87811   0.00000  Uiso   1.00
O178   O     0.00294   0.60329   0.35829   0.00000  Uiso   1.00
N179   N     0.66380   0.99982   0.47949   0.00000  Uiso   1.00
N180   N     0.99054   0.21694   0.80565   0.00000  Uiso   1.00
N181   N     0.91935   0.52355   0.43524   0.00000  Uiso   1.00
N182   N     0.78142   0.93606   0.43708   0.00000  Uiso   1.00
N183   N     0.10815   0.15318   0.76324   0.00000  Uiso   1.00
N184   N     0.03697   0.45979   0.39283   0.00000  Uiso   1.00
C185   C     0.25238   0.84752   0.42284   0.00000  Uiso   1.00
C186   C     0.16720   0.82563   0.46013   0.00000  Uiso   1.00
C187   C     0.13109   0.74171   0.46785   0.00000  Uiso   1.00
C188   C     0.05272   0.73556   0.50366   0.00000  Uiso   1.00
C189   C     0.92663   0.69015   0.55742   0.00000  Uiso   1.00
C190   C     0.22702   0.91568   0.37023   0.00000  Uiso   1.00
C191   C     0.24123   0.90747   0.30237   0.00000  Uiso   1.00
C192   C     0.21323   0.97713   0.26251   0.00000  Uiso   1.00
C193   C     0.18008   0.07154   0.17671   0.00000  Uiso   1.00
C194   C     0.31152   0.89605   0.47233   0.00000  Uiso   1.00
C195   C     0.39678   0.87135   0.49029   0.00000  Uiso   1.00
C196   C     0.43993   0.92450   0.53638   0.00000  Uiso   1.00
C197   C     0.53797   0.98844   0.60909   0.00000  Uiso   1.00
C198   C     0.17740   0.98584   0.47272   0.00000  Uiso   1.00
C199   C     0.12647   0.90076   0.48722   0.00000  Uiso   1.00
C200   C     0.04814   0.89474   0.52303   0.00000  Uiso   1.00
C201   C     0.01192   0.81083   0.53081   0.00000  Uiso   1.00
C202   C     0.18630   0.99080   0.39732   0.00000  Uiso   1.00
C203   C     0.15827   0.06050   0.35756   0.00000  Uiso   1.00
C204   C     0.17243   0.05240   0.28965   0.00000  Uiso   1.00
C205   C     0.27080   0.97118   0.49942   0.00000  Uiso   1.00
C206   C     0.31382   0.02438   0.54548   0.00000  Uiso   1.00
C207   C     0.39913   0.99977   0.56352   0.00000  Uiso   1.00
H208   H     0.28408   0.78903   0.40174   0.00000  Uiso   1.00
H209   H     0.16263   0.68358   0.44687   0.00000  Uiso   1.00
H210   H     0.27276   0.84932   0.28142   0.00000  Uiso   1.00
H211   H     0.42827   0.81321   0.46932   0.00000  Uiso   1.00
H212   H     0.00999   0.59981   0.50883   0.00000  Uiso   1.00
H213   H     0.24223   0.94929   0.15998   0.00000  Uiso   1.00
H214   H     0.57018   0.87314   0.55619   0.00000  Uiso   1.00
H215   H     0.14569   0.04434   0.49381   0.00000  Uiso   1.00
H216   H     0.01664   0.95289   0.54399   0.00000  Uiso   1.00
H217   H     0.12677   0.11863   0.37854   0.00000  Uiso   1.00
H218   H     0.28228   0.08252   0.56643   0.00000  Uiso   1.00
H219   H     0.89150   0.81839   0.58766   0.00000  Uiso   1.00
H220   H     0.12374   0.16787   0.23880   0.00000  Uiso   1.00
H221   H     0.45169   0.09172   0.63501   0.00000  Uiso   1.00
O222   O     0.86833   0.64435   0.57958   0.00000  Uiso   1.00
O223   O     0.17304   0.10285   0.12189   0.00000  Uiso   1.00
O224   O     0.60329   0.00294   0.64171   0.00000  Uiso   1.00
N225   N     0.99982   0.66380   0.52051   0.00000  Uiso   1.00
N226   N     0.21694   0.99054   0.19435   0.00000  Uiso   1.00
N227   N     0.52355   0.91935   0.56476   0.00000  Uiso   1.00
N228   N     0.93606   0.78142   0.56292   0.00000  Uiso   1.00
N229   N     0.15318   0.10815   0.23676   0.00000  Uiso   1.00
N230   N     0.45979   0.03697   0.60717   0.00000  Uiso   1.00
C231   C     0.74762   0.15248   0.92284   0.00000  Uiso   1.00
C232   C     0.83280   0.17437   0.96013   0.00000  Uiso   1.00
C233   C     0.86891   0.25829   0.96785   0.00000  Uiso   1.00
C234   C     0.94728   0.26444   0.00366   0.00000  Uiso   1.00
C235   C     0.07337   0.30985   0.05742   0.00000  Uiso   1.00
C236   C     0.77298   0.08432   0.87023   0.00000  Uiso   1.00
C237   C     0.75877   0.09253   0.80237   0.00000  Uiso   1.00
C238   C     0.78677   0.02287   0.76251   0.00000  Uiso   1.00
C239   C     0.81992   0.92846   0.67671   0.00000  Uiso   1.00
C240   C     0.68848   0.10395   0.97233   0.00000  Uiso   1.00
C241   C     0.60322   0.12865   0.99029   0.00000  Uiso   1.00
C242   C     0.56007   0.07550   0.03638   0.00000  Uiso   1.00
C243   C     0.46203   0.01156   0.10909   0.00000  Uiso   1.00
C244   C     0.82260   0.01416   0.97272   0.00000  Uiso   1.00
C245   C     0.87353   0.09924   0.98722   0.00000  Uiso   1.00
C246   C     0.95186   0.10526   0.02303   0.00000  Uiso   1.00
C247   C     0.98808   0.18917   0.03081   0.00000  Uiso   1.00
C248   C     0.81370   0.00920   0.89732   0.00000  Uiso   1.00
C249   C     0.84173   0.93950   0.85756   0.00000  Uiso   1.00
C250   C     0.82757   0.94760   0.78965   0.00000  Uiso   1.00
C251   C     0.72920   0.02882   0.99942   0.00000  Uiso   1.00
C252   C     0.68618   0.97562   0.04548   0.00000  Uiso   1.00
C253   C     0.60087   0.00023   0.06352   0.00000  Uiso   1.00
H254   H     0.71592   0.21097   0.90174   0.00000  Uiso   1.00
H255   H     0.83737   0.31642   0.94687   0.00000  Uiso   1.00
H256   H     0.72724   0.15068   0.78142   0.00000  Uiso   1.00
H257   H     0.57173   0.18679   0.96932   0.00000  Uiso   1.00
H258   H     0.99001   0.40019   0.00883   0.00000  Uiso   1.00
H259   H     0.75777   0.05071   0.65998   0.00000  Uiso   1.00
H260   H     0.42982   0.12686   0.05619   0.00000  Uiso   1.00
H261   H     0.85431   0.95566   0.99381   0.00000  Uiso   1.00
H262   H     0.98336   0.04711   0.04399   0.00000  Uiso   1.00
H263   H     0.87323   0.88137   0.87854   0.00000  Uiso   1.00
H264   H     0.71772   0.91748   0.06643   0.00000  Uiso   1.00
H265   H     0.10850   0.18161   0.08766   0.00000  Uiso   1.00
H266   H     0.87626   0.83213   0.73880   0.00000  Uiso   1.00
H267   H     0.54831   0.90828   0.13501   0.00000  Uiso   1.00
O268   O     0.13167   0.35565   0.07958   0.00000  Uiso   1.00
O269   O     0.82696   0.89715   0.62189   0.00000  Uiso   1.00
O270   O     0.39671   0.99706   0.14171   0.00000  Uiso   1.00
N271   N     0.00018   0.33620   0.02051   0.00000  Uiso   1.00
N272   N     0.78306   0.00946   0.69435   0.00000  Uiso   1.00
N273   N     0.47645   0.08065   0.06476   0.00000  Uiso   1.00
N274   N     0.06394   0.21858   0.06292   0.00000  Uiso   1.00
N275   N     0.84682   0.89185   0.73676   0.00000  Uiso   1.00
N276   N     0.54021   0.96303   0.10717   0.00000  Uiso   1.00
C277   C     0.34752   0.24762   0.67284   0.00000  Uiso   1.00
C278   C     0.32563   0.33280   0.71013   0.00000  Uiso   1.00
C279   C     0.24171   0.36891   0.71785   0.00000  Uiso   1.00
C280   C     0.23556   0.44728   0.75366   0.00000  Uiso   1.00
C281   C     0.19015   0.57337   0.80742   0.00000  Uiso   1.00
C282   C     0.41568   0.27298   0.62023   0.00000  Uiso   1.00
C283   C     0.40747   0.25877   0.55237   0.00000  Uiso   1.00
C284   C     0.47713   0.28677   0.51251   0.00000  Uiso   1.00
C285   C     0.57154   0.31992   0.42671   0.00000  Uiso   1.00
C286   C     0.39605   0.18848   0.72233   0.00000  Uiso   1.00
C287   C     0.37135   0.10322   0.74029   0.00000  Uiso   1.00
C288   C     0.42450   0.06007   0.78638   0.00000  Uiso   1.00
C289   C     0.48844   0.96203   0.85909   0.00000  Uiso   1.00
C290   C     0.48584   0.32260   0.72272   0.00000  Uiso   1.00
C291   C     0.40076   0.37353   0.73722   0.00000  Uiso   1.00
C292   C     0.39474   0.45186   0.77303   0.00000  Uiso   1.00
C293   C     0.31083   0.48808   0.78081   0.00000  Uiso   1.00
C294   C     0.49080   0.31370   0.64732   0.00000  Uiso   1.00
C295   C     0.56050   0.34173   0.60756   0.00000  Uiso   1.00
C296   C     0.55240   0.32757   0.53965   0.00000  Uiso   1.00
C297   C     0.47118   0.22920   0.74942   0.00000  Uiso   1.00
C298   C     0.52438   0.18618   0.79548   0.00000  Uiso   1.00
C299   C     0.49977   0.10087   0.81352   0.00000  Uiso   1.00
H300   H     0.28903   0.21592   0.65174   0.00000  Uiso   1.00
H301   H     0.18358   0.33737   0.69687   0.00000  Uiso   1.00
H302   H     0.34932   0.22724   0.53142   0.00000  Uiso   1.00
H303   H     0.31321   0.07173   0.71932   0.00000  Uiso   1.00
H304   H     0.09981   0.49001   0.75883   0.00000  Uiso   1.00
H305   H     0.44929   0.25777   0.40998   0.00000  Uiso   1.00
H306   H     0.37314   0.92982   0.80619   0.00000  Uiso   1.00
H307   H     0.54434   0.35431   0.74381   0.00000  Uiso   1.00
H308   H     0.45289   0.48336   0.79399   0.00000  Uiso   1.00
H309   H     0.61863   0.37323   0.62854   0.00000  Uiso   1.00
H310   H     0.58252   0.21772   0.81643   0.00000  Uiso   1.00
H311   H     0.31839   0.60850   0.83766   0.00000  Uiso   1.00
H312   H     0.66787   0.37626   0.48880   0.00000  Uiso   1.00
H313   H     0.59172   0.04831   0.88501   0.00000  Uiso   1.00
O314   O     0.14435   0.63167   0.82958   0.00000  Uiso   1.00
O315   O     0.60285   0.32696   0.37189   0.00000  Uiso   1.00
O316   O     0.50294   0.89671   0.89171   0.00000  Uiso   1.00
N317   N     0.16380   0.50018   0.77051   0.00000  Uiso   1.00
N318   N     0.49054   0.28306   0.44435   0.00000  Uiso   1.00
N319   N     0.41935   0.97645   0.81476   0.00000  Uiso   1.00
N320   N     0.28142   0.56394   0.81292   0.00000  Uiso   1.00
N321   N     0.60815   0.34682   0.48676   0.00000  Uiso   1.00
N322   N     0.53697   0.04021   0.85717   0.00000  Uiso   1.00
C323   C     0.65248   0.75238   0.17284   0.00000  Uiso   1.00
C324   C     0.67437   0.66720   0.21013   0.00000  Uiso   1.00
C325   C     0.75829   0.63109   0.21785   0.00000  Uiso   1.00
C326   C     0.76444   0.55272   0.25366   0.00000  Uiso   1.00
C327   C     0.80985   0.42663   0.30742   0.00000  Uiso   1.00
C328   C     0.58432   0.72702   0.12023   0.00000  Uiso   1.00
C329   C     0.59253   0.74123   0.05237   0.00000  Uiso   1.00
C330   C     0.52287   0.71323   0.01251   0.00000  Uiso   1.00
C331   C     0.42846   0.68008   0.92671   0.00000  Uiso   1.00
C332   C     0.60395   0.81152   0.22233   0.00000  Uiso   1.00
C333   C     0.62865   0.89678   0.24029   0.00000  Uiso   1.00
C334   C     0.57550   0.93993   0.28638   0.00000  Uiso   1.00
C335   C     0.51156   0.03797   0.35909   0.00000  Uiso   1.00
C336   C     0.51416   0.67740   0.22272   0.00000  Uiso   1.00
C337   C     0.59924   0.62647   0.23722   0.00000  Uiso   1.00
C338   C     0.60526   0.54814   0.27303   0.00000  Uiso   1.00
C339   C     0.68917   0.51192   0.28081   0.00000  Uiso   1.00
C340   C     0.50920   0.68630   0.14732   0.00000  Uiso   1.00
C341   C     0.43950   0.65827   0.10756   0.00000  Uiso   1.00
C342   C     0.44760   0.67243   0.03965   0.00000  Uiso   1.00
C343   C     0.52882   0.77080   0.24942   0.00000  Uiso   1.00
C344   C     0.47562   0.81382   0.29548   0.00000  Uiso   1.00
C345   C     0.50023   0.89913   0.31352   0.00000  Uiso   1.00
H346   H     0.71097   0.78408   0.15174   0.00000  Uiso   1.00
H347   H     0.81642   0.66263   0.19687   0.00000  Uiso   1.00
H348   H     0.65068   0.77276   0.03142   0.00000  Uiso   1.00
H349   H     0.68679   0.92827   0.21932   0.00000  Uiso   1.00
H350   H     0.90019   0.50999   0.25883   0.00000  Uiso   1.00
H351   H     0.55071   0.74223   0.90998   0.00000  Uiso   1.00
H352   H     0.62686   0.07018   0.30619   0.00000  Uiso   1.00
H353   H     0.45566   0.64569   0.24381   0.00000  Uiso   1.00
H354   H     0.54711   0.51664   0.29399   0.00000  Uiso   1.00
H355   H     0.38137   0.62677   0.12854   0.00000  Uiso   1.00
H356   H     0.41748   0.78228   0.31643   0.00000  Uiso   1.00
H357   H     0.68161   0.39150   0.33766   0.00000  Uiso   1.00
H358   H     0.33213   0.62374   0.98880   0.00000  Uiso   1.00
H359   H     0.40828   0.95169   0.38501   0.00000  Uiso   1.00
O360   O     0.85565   0.36833   0.32958   0.00000  Uiso   1.00
O361   O     0.39715   0.67304   0.87189   0.00000  Uiso   1.00
O362   O     0.49706   0.10329   0.39171   0.00000  Uiso   1.00
N363   N     0.83620   0.49982   0.27051   0.00000  Uiso   1.00
N364   N     0.50946   0.71694   0.94435   0.00000  Uiso   1.00
N365   N     0.58065   0.02355   0.31476   0.00000  Uiso   1.00
N366   N     0.71858   0.43606   0.31292   0.00000  Uiso   1.00
N367   N     0.39185   0.65318   0.98676   0.00000  Uiso   1.00
N368   N     0.46303   0.95979   0.35717   0.00000  Uiso   1.00
