data_job_03351
_audit_creation_date              2018-12-19
_audit_creation_method            'Materials Studio'
_symmetry_space_group_name_H-M    'P1'
_symmetry_Int_Tables_number       1
_symmetry_cell_setting            triclinic
loop_
_symmetry_equiv_pos_as_xyz
  x,y,z
_cell_length_a                    7.2398
_cell_length_b                    9.6201
_cell_length_c                    12.3997
_cell_angle_alpha                 86.0665
_cell_angle_beta                  106.9699
_cell_angle_gamma                 103.6033
loop_
_atom_site_label
_atom_site_type_symbol
_atom_site_fract_x
_atom_site_fract_y
_atom_site_fract_z
_atom_site_U_iso_or_equiv
_atom_site_adp_type
_atom_site_occupancy
C1     C     0.63575   0.95231   0.23293   0.00000  Uiso   1.00
C2     C     0.71906   0.86551   0.33563   0.00000  Uiso   1.00
C3     C     0.63280   0.82005   0.42200   0.00000  Uiso   1.00
C4     C     0.73225   0.74184   0.50848   0.00000  Uiso   1.00
C5     C     0.83439   0.61193   0.66799   0.00000  Uiso   1.00
C6     C     0.79800   0.08612   0.23294   0.00000  Uiso   1.00
C7     C     0.77810   0.22613   0.23294   0.00000  Uiso   1.00
C8     C     0.94401   0.33362   0.23295   0.00000  Uiso   1.00
C9     C     0.16866   0.54620   0.23294   0.00000  Uiso   1.00
C10    C     0.61635   0.86554   0.13020   0.00000  Uiso   1.00
C11    C     0.44374   0.82011   0.04381   0.00000  Uiso   1.00
C12    C     0.45673   0.74192   0.95731   0.00000  Uiso   1.00
C13    C     0.39935   0.61202   0.79779   0.00000  Uiso   1.00
C14    C     0.96575   0.89427   0.23291   0.00000  Uiso   1.00
C15    C     0.89831   0.83400   0.33562   0.00000  Uiso   1.00
C16    C     0.99791   0.75583   0.42198   0.00000  Uiso   1.00
C17    C     0.91182   0.71026   0.50847   0.00000  Uiso   1.00
C18    C     0.97724   0.05460   0.23293   0.00000  Uiso   1.00
C19    C     0.14321   0.16191   0.23292   0.00000  Uiso   1.00
C20    C     0.12358   0.30204   0.23294   0.00000  Uiso   1.00
C21    C     0.79560   0.83401   0.13019   0.00000  Uiso   1.00
C22    C     0.80886   0.75589   0.04380   0.00000  Uiso   1.00
C23    C     0.63630   0.71035   0.95730   0.00000  Uiso   1.00
H24    H     0.49621   0.97686   0.23293   0.00000  Uiso   1.00
H25    H     0.49409   0.84448   0.42199   0.00000  Uiso   1.00
H26    H     0.63937   0.25049   0.23294   0.00000  Uiso   1.00
H27    H     0.30506   0.84453   0.04385   0.00000  Uiso   1.00
H28    H     0.57084   0.68385   0.63160   0.00000  Uiso   1.00
H29    H     0.87713   0.53994   0.23296   0.00000  Uiso   1.00
H30    H     0.17218   0.68390   0.83421   0.00000  Uiso   1.00
H31    H     0.10531   0.86973   0.23290   0.00000  Uiso   1.00
H32    H     0.13662   0.73146   0.42195   0.00000  Uiso   1.00
H33    H     0.28189   0.13747   0.23291   0.00000  Uiso   1.00
H34    H     0.94759   0.73152   0.04382   0.00000  Uiso   1.00
H35    H     0.09234   0.59212   0.63158   0.00000  Uiso   1.00
H36    H     0.39863   0.44822   0.23293   0.00000  Uiso   1.00
H37    H     0.69369   0.59218   0.83419   0.00000  Uiso   1.00
O38    O     0.84123   0.54900   0.75598   0.00000  Uiso   1.00
O39    O     0.24305   0.67216   0.23294   0.00000  Uiso   1.00
O40    O     0.31818   0.54905   0.70981   0.00000  Uiso   1.00
N41    N     0.68925   0.68121   0.60564   0.00000  Uiso   1.00
N42    N     0.97563   0.48161   0.23295   0.00000  Uiso   1.00
N43    N     0.31657   0.68132   0.86014   0.00000  Uiso   1.00
N44    N     0.96987   0.63185   0.60563   0.00000  Uiso   1.00
N45    N     0.25624   0.43225   0.23293   0.00000  Uiso   1.00
N46    N     0.59719   0.63196   0.86013   0.00000  Uiso   1.00
