data_job_01820
_audit_creation_date              2018-12-19
_audit_creation_method            'Materials Studio'
_symmetry_space_group_name_H-M    'P1'
_symmetry_Int_Tables_number       1
_symmetry_cell_setting            triclinic
loop_
_symmetry_equiv_pos_as_xyz
  x,y,z
_cell_length_a                    14.9570
_cell_length_b                    19.0927
_cell_length_c                    22.9726
_cell_angle_alpha                 90.0000
_cell_angle_beta                  95.3307
_cell_angle_gamma                 90.0000
loop_
_atom_site_label
_atom_site_type_symbol
_atom_site_fract_x
_atom_site_fract_y
_atom_site_fract_z
_atom_site_U_iso_or_equiv
_atom_site_adp_type
_atom_site_occupancy
C1     C     0.67665   0.08984   0.42224   0.00000  Uiso   1.00
C2     C     0.61203   0.03372   0.39651   0.00000  Uiso   1.00
C3     C     0.51904   0.03687   0.39368   0.00000  Uiso   1.00
C4     C     0.47189   0.98018   0.36851   0.00000  Uiso   1.00
C5     C     0.36481   0.90180   0.33186   0.00000  Uiso   1.00
C6     C     0.73875   0.05341   0.46922   0.00000  Uiso   1.00
C7     C     0.75231   0.07312   0.52752   0.00000  Uiso   1.00
C8     C     0.81185   0.03301   0.56355   0.00000  Uiso   1.00
C9     C     0.90156   0.98522   0.63978   0.00000  Uiso   1.00
C10    C     0.73511   0.10956   0.37380   0.00000  Uiso   1.00
C11    C     0.74561   0.17649   0.35188   0.00000  Uiso   1.00
C12    C     0.80210   0.18365   0.30758   0.00000  Uiso   1.00
C13    C     0.88615   0.22305   0.23566   0.00000  Uiso   1.00
C14    C     0.75829   0.98355   0.38256   0.00000  Uiso   1.00
C15    C     0.65638   0.97598   0.37496   0.00000  Uiso   1.00
C16    C     0.60937   0.91927   0.34978   0.00000  Uiso   1.00
C17    C     0.51631   0.92234   0.34691   0.00000  Uiso   1.00
C18    C     0.78310   0.99567   0.44767   0.00000  Uiso   1.00
C19    C     0.84264   0.95552   0.48362   0.00000  Uiso   1.00
C20    C     0.85627   0.97517   0.54196   0.00000  Uiso   1.00
C21    C     0.77945   0.05182   0.35225   0.00000  Uiso   1.00
C22    C     0.83594   0.05889   0.30798   0.00000  Uiso   1.00
C23    C     0.84653   0.12581   0.28599   0.00000  Uiso   1.00
H24    H     0.64213   0.13479   0.43902   0.00000  Uiso   1.00
H25    H     0.48474   0.08156   0.41037   0.00000  Uiso   1.00
H26    H     0.71799   0.11781   0.54419   0.00000  Uiso   1.00
H27    H     0.71129   0.22115   0.36857   0.00000  Uiso   1.00
H28    H     0.32981   0.99707   0.36912   0.00000  Uiso   1.00
H29    H     0.82164   0.07351   0.65127   0.00000  Uiso   1.00
H30    H     0.80752   0.29145   0.28096   0.00000  Uiso   1.00
H31    H     0.79282   0.93860   0.36578   0.00000  Uiso   1.00
H32    H     0.64370   0.87460   0.33311   0.00000  Uiso   1.00
H33    H     0.87695   0.91085   0.46692   0.00000  Uiso   1.00
H34    H     0.87025   0.01420   0.29131   0.00000  Uiso   1.00
H35    H     0.45883   0.82909   0.30641   0.00000  Uiso   1.00
H36    H     0.95066   0.90554   0.58857   0.00000  Uiso   1.00
H37    H     0.93654   0.12347   0.21825   0.00000  Uiso   1.00
O38    O     0.29350   0.87451   0.31761   0.00000  Uiso   1.00
O39    O     0.93878   0.97481   0.68778   0.00000  Uiso   1.00
O40    O     0.92024   0.26073   0.20193   0.00000  Uiso   1.00
N41    N     0.38064   0.96633   0.35883   0.00000  Uiso   1.00
N42    N     0.84046   0.03779   0.62263   0.00000  Uiso   1.00
N43    N     0.82727   0.24154   0.27643   0.00000  Uiso   1.00
N44    N     0.45006   0.87594   0.32509   0.00000  Uiso   1.00
N45    N     0.90988   0.94740   0.58889   0.00000  Uiso   1.00
N46    N     0.89670   0.15116   0.24269   0.00000  Uiso   1.00
C47    C     0.17665   0.58984   0.42224   0.00000  Uiso   1.00
C48    C     0.11203   0.53372   0.39651   0.00000  Uiso   1.00
C49    C     0.01904   0.53687   0.39368   0.00000  Uiso   1.00
C50    C     0.97189   0.48018   0.36851   0.00000  Uiso   1.00
C51    C     0.86481   0.40180   0.33186   0.00000  Uiso   1.00
C52    C     0.23875   0.55341   0.46922   0.00000  Uiso   1.00
C53    C     0.25231   0.57312   0.52752   0.00000  Uiso   1.00
C54    C     0.31185   0.53301   0.56355   0.00000  Uiso   1.00
C55    C     0.40156   0.48522   0.63978   0.00000  Uiso   1.00
C56    C     0.23511   0.60956   0.37380   0.00000  Uiso   1.00
C57    C     0.24561   0.67649   0.35188   0.00000  Uiso   1.00
C58    C     0.30210   0.68365   0.30758   0.00000  Uiso   1.00
C59    C     0.38615   0.72305   0.23566   0.00000  Uiso   1.00
C60    C     0.25829   0.48355   0.38256   0.00000  Uiso   1.00
C61    C     0.15638   0.47598   0.37496   0.00000  Uiso   1.00
C62    C     0.10937   0.41927   0.34978   0.00000  Uiso   1.00
C63    C     0.01631   0.42234   0.34691   0.00000  Uiso   1.00
C64    C     0.28310   0.49567   0.44767   0.00000  Uiso   1.00
C65    C     0.34264   0.45552   0.48362   0.00000  Uiso   1.00
C66    C     0.35627   0.47517   0.54196   0.00000  Uiso   1.00
C67    C     0.27945   0.55182   0.35225   0.00000  Uiso   1.00
C68    C     0.33594   0.55889   0.30798   0.00000  Uiso   1.00
C69    C     0.34653   0.62581   0.28599   0.00000  Uiso   1.00
H70    H     0.14213   0.63479   0.43902   0.00000  Uiso   1.00
H71    H     0.98474   0.58156   0.41037   0.00000  Uiso   1.00
H72    H     0.21799   0.61781   0.54419   0.00000  Uiso   1.00
H73    H     0.21129   0.72115   0.36857   0.00000  Uiso   1.00
H74    H     0.82981   0.49707   0.36912   0.00000  Uiso   1.00
H75    H     0.32164   0.57351   0.65127   0.00000  Uiso   1.00
H76    H     0.30752   0.79145   0.28096   0.00000  Uiso   1.00
H77    H     0.29282   0.43860   0.36578   0.00000  Uiso   1.00
H78    H     0.14370   0.37460   0.33311   0.00000  Uiso   1.00
H79    H     0.37695   0.41085   0.46692   0.00000  Uiso   1.00
H80    H     0.37025   0.51420   0.29131   0.00000  Uiso   1.00
H81    H     0.95883   0.32909   0.30641   0.00000  Uiso   1.00
H82    H     0.45066   0.40554   0.58857   0.00000  Uiso   1.00
H83    H     0.43654   0.62347   0.21825   0.00000  Uiso   1.00
O84    O     0.79350   0.37451   0.31761   0.00000  Uiso   1.00
O85    O     0.43878   0.47481   0.68778   0.00000  Uiso   1.00
O86    O     0.42024   0.76073   0.20193   0.00000  Uiso   1.00
N87    N     0.88064   0.46633   0.35883   0.00000  Uiso   1.00
N88    N     0.34046   0.53779   0.62263   0.00000  Uiso   1.00
N89    N     0.32727   0.74154   0.27643   0.00000  Uiso   1.00
N90    N     0.95006   0.37594   0.32509   0.00000  Uiso   1.00
N91    N     0.40988   0.44740   0.58889   0.00000  Uiso   1.00
N92    N     0.39670   0.65116   0.24269   0.00000  Uiso   1.00
C93    C     0.32335   0.08984   0.07776   0.00000  Uiso   1.00
C94    C     0.38797   0.03372   0.10349   0.00000  Uiso   1.00
C95    C     0.48096   0.03687   0.10632   0.00000  Uiso   1.00
C96    C     0.52811   0.98018   0.13149   0.00000  Uiso   1.00
C97    C     0.63519   0.90180   0.16814   0.00000  Uiso   1.00
C98    C     0.26125   0.05341   0.03078   0.00000  Uiso   1.00
C99    C     0.24769   0.07312   0.97248   0.00000  Uiso   1.00
C100   C     0.18815   0.03301   0.93645   0.00000  Uiso   1.00
C101   C     0.09844   0.98522   0.86022   0.00000  Uiso   1.00
C102   C     0.26489   0.10956   0.12620   0.00000  Uiso   1.00
C103   C     0.25439   0.17649   0.14812   0.00000  Uiso   1.00
C104   C     0.19790   0.18365   0.19242   0.00000  Uiso   1.00
C105   C     0.11385   0.22305   0.26434   0.00000  Uiso   1.00
C106   C     0.24171   0.98355   0.11744   0.00000  Uiso   1.00
C107   C     0.34362   0.97598   0.12504   0.00000  Uiso   1.00
C108   C     0.39063   0.91927   0.15022   0.00000  Uiso   1.00
C109   C     0.48369   0.92234   0.15309   0.00000  Uiso   1.00
C110   C     0.21690   0.99567   0.05233   0.00000  Uiso   1.00
C111   C     0.15736   0.95552   0.01638   0.00000  Uiso   1.00
C112   C     0.14373   0.97517   0.95804   0.00000  Uiso   1.00
C113   C     0.22055   0.05182   0.14775   0.00000  Uiso   1.00
C114   C     0.16406   0.05889   0.19202   0.00000  Uiso   1.00
C115   C     0.15347   0.12581   0.21401   0.00000  Uiso   1.00
H116   H     0.35787   0.13479   0.06098   0.00000  Uiso   1.00
H117   H     0.51526   0.08156   0.08963   0.00000  Uiso   1.00
H118   H     0.28201   0.11781   0.95581   0.00000  Uiso   1.00
H119   H     0.28871   0.22115   0.13143   0.00000  Uiso   1.00
H120   H     0.67019   0.99707   0.13088   0.00000  Uiso   1.00
H121   H     0.17836   0.07351   0.84873   0.00000  Uiso   1.00
H122   H     0.19248   0.29145   0.21904   0.00000  Uiso   1.00
H123   H     0.20718   0.93860   0.13422   0.00000  Uiso   1.00
H124   H     0.35630   0.87460   0.16689   0.00000  Uiso   1.00
H125   H     0.12305   0.91085   0.03308   0.00000  Uiso   1.00
H126   H     0.12975   0.01420   0.20869   0.00000  Uiso   1.00
H127   H     0.54117   0.82909   0.19359   0.00000  Uiso   1.00
H128   H     0.04934   0.90554   0.91143   0.00000  Uiso   1.00
H129   H     0.06346   0.12347   0.28175   0.00000  Uiso   1.00
O130   O     0.70650   0.87451   0.18239   0.00000  Uiso   1.00
O131   O     0.06122   0.97481   0.81222   0.00000  Uiso   1.00
O132   O     0.07976   0.26073   0.29807   0.00000  Uiso   1.00
N133   N     0.61936   0.96633   0.14117   0.00000  Uiso   1.00
N134   N     0.15954   0.03779   0.87737   0.00000  Uiso   1.00
N135   N     0.17273   0.24154   0.22357   0.00000  Uiso   1.00
N136   N     0.54994   0.87594   0.17491   0.00000  Uiso   1.00
N137   N     0.09012   0.94740   0.91111   0.00000  Uiso   1.00
N138   N     0.10330   0.15116   0.25731   0.00000  Uiso   1.00
C139   C     0.82335   0.58984   0.07776   0.00000  Uiso   1.00
C140   C     0.88797   0.53372   0.10349   0.00000  Uiso   1.00
C141   C     0.98096   0.53687   0.10632   0.00000  Uiso   1.00
C142   C     0.02811   0.48018   0.13149   0.00000  Uiso   1.00
C143   C     0.13519   0.40180   0.16814   0.00000  Uiso   1.00
C144   C     0.76125   0.55341   0.03078   0.00000  Uiso   1.00
C145   C     0.74769   0.57312   0.97248   0.00000  Uiso   1.00
C146   C     0.68815   0.53301   0.93645   0.00000  Uiso   1.00
C147   C     0.59844   0.48522   0.86022   0.00000  Uiso   1.00
C148   C     0.76489   0.60956   0.12620   0.00000  Uiso   1.00
C149   C     0.75439   0.67649   0.14812   0.00000  Uiso   1.00
C150   C     0.69790   0.68365   0.19242   0.00000  Uiso   1.00
C151   C     0.61385   0.72305   0.26434   0.00000  Uiso   1.00
C152   C     0.74171   0.48355   0.11744   0.00000  Uiso   1.00
C153   C     0.84362   0.47598   0.12504   0.00000  Uiso   1.00
C154   C     0.89063   0.41927   0.15022   0.00000  Uiso   1.00
C155   C     0.98369   0.42234   0.15309   0.00000  Uiso   1.00
C156   C     0.71690   0.49567   0.05233   0.00000  Uiso   1.00
C157   C     0.65736   0.45552   0.01638   0.00000  Uiso   1.00
C158   C     0.64373   0.47517   0.95804   0.00000  Uiso   1.00
C159   C     0.72055   0.55182   0.14775   0.00000  Uiso   1.00
C160   C     0.66406   0.55889   0.19202   0.00000  Uiso   1.00
C161   C     0.65347   0.62581   0.21401   0.00000  Uiso   1.00
H162   H     0.85787   0.63479   0.06098   0.00000  Uiso   1.00
H163   H     0.01526   0.58156   0.08963   0.00000  Uiso   1.00
H164   H     0.78201   0.61781   0.95581   0.00000  Uiso   1.00
H165   H     0.78871   0.72115   0.13143   0.00000  Uiso   1.00
H166   H     0.17019   0.49707   0.13088   0.00000  Uiso   1.00
H167   H     0.67836   0.57351   0.84873   0.00000  Uiso   1.00
H168   H     0.69248   0.79145   0.21904   0.00000  Uiso   1.00
H169   H     0.70718   0.43860   0.13422   0.00000  Uiso   1.00
H170   H     0.85630   0.37460   0.16689   0.00000  Uiso   1.00
H171   H     0.62305   0.41085   0.03308   0.00000  Uiso   1.00
H172   H     0.62975   0.51420   0.20869   0.00000  Uiso   1.00
H173   H     0.04117   0.32909   0.19359   0.00000  Uiso   1.00
H174   H     0.54934   0.40554   0.91143   0.00000  Uiso   1.00
H175   H     0.56346   0.62347   0.28175   0.00000  Uiso   1.00
O176   O     0.20650   0.37451   0.18239   0.00000  Uiso   1.00
O177   O     0.56122   0.47481   0.81222   0.00000  Uiso   1.00
O178   O     0.57976   0.76073   0.29807   0.00000  Uiso   1.00
N179   N     0.11936   0.46633   0.14117   0.00000  Uiso   1.00
N180   N     0.65954   0.53779   0.87737   0.00000  Uiso   1.00
N181   N     0.67273   0.74154   0.22357   0.00000  Uiso   1.00
N182   N     0.04994   0.37594   0.17491   0.00000  Uiso   1.00
N183   N     0.59012   0.44740   0.91111   0.00000  Uiso   1.00
N184   N     0.60330   0.65116   0.25731   0.00000  Uiso   1.00
C185   C     0.32335   0.91016   0.57776   0.00000  Uiso   1.00
C186   C     0.38797   0.96628   0.60349   0.00000  Uiso   1.00
C187   C     0.48096   0.96313   0.60632   0.00000  Uiso   1.00
C188   C     0.52811   0.01982   0.63149   0.00000  Uiso   1.00
C189   C     0.63519   0.09820   0.66814   0.00000  Uiso   1.00
C190   C     0.26125   0.94659   0.53078   0.00000  Uiso   1.00
C191   C     0.24769   0.92688   0.47248   0.00000  Uiso   1.00
C192   C     0.18815   0.96699   0.43645   0.00000  Uiso   1.00
C193   C     0.09844   0.01478   0.36022   0.00000  Uiso   1.00
C194   C     0.26489   0.89044   0.62620   0.00000  Uiso   1.00
C195   C     0.25439   0.82351   0.64812   0.00000  Uiso   1.00
C196   C     0.19790   0.81635   0.69242   0.00000  Uiso   1.00
C197   C     0.11385   0.77695   0.76434   0.00000  Uiso   1.00
C198   C     0.24171   0.01645   0.61744   0.00000  Uiso   1.00
C199   C     0.34362   0.02402   0.62504   0.00000  Uiso   1.00
C200   C     0.39063   0.08073   0.65022   0.00000  Uiso   1.00
C201   C     0.48369   0.07766   0.65309   0.00000  Uiso   1.00
C202   C     0.21690   0.00433   0.55233   0.00000  Uiso   1.00
C203   C     0.15736   0.04448   0.51638   0.00000  Uiso   1.00
C204   C     0.14373   0.02483   0.45804   0.00000  Uiso   1.00
C205   C     0.22055   0.94818   0.64775   0.00000  Uiso   1.00
C206   C     0.16406   0.94111   0.69202   0.00000  Uiso   1.00
C207   C     0.15347   0.87419   0.71401   0.00000  Uiso   1.00
H208   H     0.35787   0.86521   0.56098   0.00000  Uiso   1.00
H209   H     0.51526   0.91844   0.58963   0.00000  Uiso   1.00
H210   H     0.28201   0.88219   0.45581   0.00000  Uiso   1.00
H211   H     0.28871   0.77885   0.63143   0.00000  Uiso   1.00
H212   H     0.67019   0.00293   0.63088   0.00000  Uiso   1.00
H213   H     0.17836   0.92649   0.34873   0.00000  Uiso   1.00
H214   H     0.19248   0.70855   0.71904   0.00000  Uiso   1.00
H215   H     0.20718   0.06140   0.63422   0.00000  Uiso   1.00
H216   H     0.35630   0.12540   0.66689   0.00000  Uiso   1.00
H217   H     0.12305   0.08915   0.53308   0.00000  Uiso   1.00
H218   H     0.12975   0.98580   0.70869   0.00000  Uiso   1.00
H219   H     0.54117   0.17091   0.69359   0.00000  Uiso   1.00
H220   H     0.04934   0.09446   0.41143   0.00000  Uiso   1.00
H221   H     0.06346   0.87653   0.78175   0.00000  Uiso   1.00
O222   O     0.70650   0.12549   0.68239   0.00000  Uiso   1.00
O223   O     0.06122   0.02519   0.31222   0.00000  Uiso   1.00
O224   O     0.07976   0.73927   0.79807   0.00000  Uiso   1.00
N225   N     0.61936   0.03367   0.64117   0.00000  Uiso   1.00
N226   N     0.15954   0.96221   0.37737   0.00000  Uiso   1.00
N227   N     0.17273   0.75846   0.72357   0.00000  Uiso   1.00
N228   N     0.54994   0.12406   0.67491   0.00000  Uiso   1.00
N229   N     0.09012   0.05260   0.41111   0.00000  Uiso   1.00
N230   N     0.10330   0.84884   0.75731   0.00000  Uiso   1.00
C231   C     0.82335   0.41016   0.57776   0.00000  Uiso   1.00
C232   C     0.88797   0.46628   0.60349   0.00000  Uiso   1.00
C233   C     0.98096   0.46313   0.60632   0.00000  Uiso   1.00
C234   C     0.02811   0.51982   0.63149   0.00000  Uiso   1.00
C235   C     0.13519   0.59820   0.66814   0.00000  Uiso   1.00
C236   C     0.76125   0.44659   0.53078   0.00000  Uiso   1.00
C237   C     0.74769   0.42688   0.47248   0.00000  Uiso   1.00
C238   C     0.68815   0.46699   0.43645   0.00000  Uiso   1.00
C239   C     0.59844   0.51478   0.36022   0.00000  Uiso   1.00
C240   C     0.76489   0.39044   0.62620   0.00000  Uiso   1.00
C241   C     0.75439   0.32351   0.64812   0.00000  Uiso   1.00
C242   C     0.69790   0.31635   0.69242   0.00000  Uiso   1.00
C243   C     0.61385   0.27695   0.76434   0.00000  Uiso   1.00
C244   C     0.74171   0.51645   0.61744   0.00000  Uiso   1.00
C245   C     0.84362   0.52402   0.62504   0.00000  Uiso   1.00
C246   C     0.89063   0.58073   0.65022   0.00000  Uiso   1.00
C247   C     0.98369   0.57766   0.65309   0.00000  Uiso   1.00
C248   C     0.71690   0.50433   0.55233   0.00000  Uiso   1.00
C249   C     0.65736   0.54448   0.51638   0.00000  Uiso   1.00
C250   C     0.64373   0.52483   0.45804   0.00000  Uiso   1.00
C251   C     0.72055   0.44818   0.64775   0.00000  Uiso   1.00
C252   C     0.66406   0.44111   0.69202   0.00000  Uiso   1.00
C253   C     0.65347   0.37419   0.71401   0.00000  Uiso   1.00
H254   H     0.85787   0.36521   0.56098   0.00000  Uiso   1.00
H255   H     0.01526   0.41844   0.58963   0.00000  Uiso   1.00
H256   H     0.78201   0.38219   0.45581   0.00000  Uiso   1.00
H257   H     0.78871   0.27885   0.63143   0.00000  Uiso   1.00
H258   H     0.17019   0.50293   0.63088   0.00000  Uiso   1.00
H259   H     0.67836   0.42649   0.34873   0.00000  Uiso   1.00
H260   H     0.69248   0.20855   0.71904   0.00000  Uiso   1.00
H261   H     0.70718   0.56140   0.63422   0.00000  Uiso   1.00
H262   H     0.85630   0.62540   0.66689   0.00000  Uiso   1.00
H263   H     0.62305   0.58915   0.53308   0.00000  Uiso   1.00
H264   H     0.62975   0.48580   0.70869   0.00000  Uiso   1.00
H265   H     0.04117   0.67091   0.69359   0.00000  Uiso   1.00
H266   H     0.54934   0.59446   0.41143   0.00000  Uiso   1.00
H267   H     0.56346   0.37653   0.78175   0.00000  Uiso   1.00
O268   O     0.20650   0.62549   0.68239   0.00000  Uiso   1.00
O269   O     0.56122   0.52519   0.31222   0.00000  Uiso   1.00
O270   O     0.57976   0.23927   0.79807   0.00000  Uiso   1.00
N271   N     0.11936   0.53367   0.64117   0.00000  Uiso   1.00
N272   N     0.65954   0.46221   0.37737   0.00000  Uiso   1.00
N273   N     0.67273   0.25846   0.72357   0.00000  Uiso   1.00
N274   N     0.04994   0.62406   0.67491   0.00000  Uiso   1.00
N275   N     0.59012   0.55260   0.41111   0.00000  Uiso   1.00
N276   N     0.60330   0.34884   0.75731   0.00000  Uiso   1.00
C277   C     0.67665   0.91016   0.92224   0.00000  Uiso   1.00
C278   C     0.61203   0.96628   0.89651   0.00000  Uiso   1.00
C279   C     0.51904   0.96313   0.89368   0.00000  Uiso   1.00
C280   C     0.47189   0.01982   0.86851   0.00000  Uiso   1.00
C281   C     0.36481   0.09820   0.83186   0.00000  Uiso   1.00
C282   C     0.73875   0.94659   0.96922   0.00000  Uiso   1.00
C283   C     0.75231   0.92688   0.02752   0.00000  Uiso   1.00
C284   C     0.81185   0.96699   0.06355   0.00000  Uiso   1.00
C285   C     0.90156   0.01478   0.13978   0.00000  Uiso   1.00
C286   C     0.73511   0.89044   0.87380   0.00000  Uiso   1.00
C287   C     0.74561   0.82351   0.85188   0.00000  Uiso   1.00
C288   C     0.80210   0.81635   0.80758   0.00000  Uiso   1.00
C289   C     0.88615   0.77695   0.73566   0.00000  Uiso   1.00
C290   C     0.75829   0.01645   0.88256   0.00000  Uiso   1.00
C291   C     0.65638   0.02402   0.87496   0.00000  Uiso   1.00
C292   C     0.60937   0.08073   0.84978   0.00000  Uiso   1.00
C293   C     0.51631   0.07766   0.84691   0.00000  Uiso   1.00
C294   C     0.78310   0.00433   0.94767   0.00000  Uiso   1.00
C295   C     0.84264   0.04448   0.98362   0.00000  Uiso   1.00
C296   C     0.85627   0.02483   0.04196   0.00000  Uiso   1.00
C297   C     0.77945   0.94818   0.85225   0.00000  Uiso   1.00
C298   C     0.83594   0.94111   0.80798   0.00000  Uiso   1.00
C299   C     0.84653   0.87419   0.78599   0.00000  Uiso   1.00
H300   H     0.64213   0.86521   0.93902   0.00000  Uiso   1.00
H301   H     0.48474   0.91844   0.91037   0.00000  Uiso   1.00
H302   H     0.71799   0.88219   0.04419   0.00000  Uiso   1.00
H303   H     0.71129   0.77885   0.86857   0.00000  Uiso   1.00
H304   H     0.32981   0.00293   0.86912   0.00000  Uiso   1.00
H305   H     0.82164   0.92649   0.15127   0.00000  Uiso   1.00
H306   H     0.80752   0.70855   0.78096   0.00000  Uiso   1.00
H307   H     0.79282   0.06140   0.86578   0.00000  Uiso   1.00
H308   H     0.64370   0.12540   0.83311   0.00000  Uiso   1.00
H309   H     0.87695   0.08915   0.96692   0.00000  Uiso   1.00
H310   H     0.87025   0.98580   0.79131   0.00000  Uiso   1.00
H311   H     0.45883   0.17091   0.80641   0.00000  Uiso   1.00
H312   H     0.95066   0.09446   0.08857   0.00000  Uiso   1.00
H313   H     0.93654   0.87653   0.71825   0.00000  Uiso   1.00
O314   O     0.29350   0.12549   0.81761   0.00000  Uiso   1.00
O315   O     0.93878   0.02519   0.18778   0.00000  Uiso   1.00
O316   O     0.92024   0.73927   0.70193   0.00000  Uiso   1.00
N317   N     0.38064   0.03367   0.85883   0.00000  Uiso   1.00
N318   N     0.84046   0.96221   0.12263   0.00000  Uiso   1.00
N319   N     0.82727   0.75846   0.77643   0.00000  Uiso   1.00
N320   N     0.45006   0.12406   0.82509   0.00000  Uiso   1.00
N321   N     0.90988   0.05260   0.08889   0.00000  Uiso   1.00
N322   N     0.89670   0.84884   0.74269   0.00000  Uiso   1.00
C323   C     0.17665   0.41016   0.92224   0.00000  Uiso   1.00
C324   C     0.11203   0.46628   0.89651   0.00000  Uiso   1.00
C325   C     0.01904   0.46313   0.89368   0.00000  Uiso   1.00
C326   C     0.97189   0.51982   0.86851   0.00000  Uiso   1.00
C327   C     0.86481   0.59820   0.83186   0.00000  Uiso   1.00
C328   C     0.23875   0.44659   0.96922   0.00000  Uiso   1.00
C329   C     0.25231   0.42688   0.02752   0.00000  Uiso   1.00
C330   C     0.31185   0.46699   0.06355   0.00000  Uiso   1.00
C331   C     0.40156   0.51478   0.13978   0.00000  Uiso   1.00
C332   C     0.23511   0.39044   0.87380   0.00000  Uiso   1.00
C333   C     0.24561   0.32351   0.85188   0.00000  Uiso   1.00
C334   C     0.30210   0.31635   0.80758   0.00000  Uiso   1.00
C335   C     0.38615   0.27695   0.73566   0.00000  Uiso   1.00
C336   C     0.25829   0.51645   0.88256   0.00000  Uiso   1.00
C337   C     0.15638   0.52402   0.87496   0.00000  Uiso   1.00
C338   C     0.10937   0.58073   0.84978   0.00000  Uiso   1.00
C339   C     0.01631   0.57766   0.84691   0.00000  Uiso   1.00
C340   C     0.28310   0.50433   0.94767   0.00000  Uiso   1.00
C341   C     0.34264   0.54448   0.98362   0.00000  Uiso   1.00
C342   C     0.35627   0.52483   0.04196   0.00000  Uiso   1.00
C343   C     0.27945   0.44818   0.85225   0.00000  Uiso   1.00
C344   C     0.33594   0.44111   0.80798   0.00000  Uiso   1.00
C345   C     0.34653   0.37419   0.78599   0.00000  Uiso   1.00
H346   H     0.14213   0.36521   0.93902   0.00000  Uiso   1.00
H347   H     0.98474   0.41844   0.91037   0.00000  Uiso   1.00
H348   H     0.21799   0.38219   0.04419   0.00000  Uiso   1.00
H349   H     0.21129   0.27885   0.86857   0.00000  Uiso   1.00
H350   H     0.82981   0.50293   0.86912   0.00000  Uiso   1.00
H351   H     0.32164   0.42649   0.15127   0.00000  Uiso   1.00
H352   H     0.30752   0.20855   0.78096   0.00000  Uiso   1.00
H353   H     0.29282   0.56140   0.86578   0.00000  Uiso   1.00
H354   H     0.14370   0.62540   0.83311   0.00000  Uiso   1.00
H355   H     0.37695   0.58915   0.96692   0.00000  Uiso   1.00
H356   H     0.37025   0.48580   0.79131   0.00000  Uiso   1.00
H357   H     0.95883   0.67091   0.80641   0.00000  Uiso   1.00
H358   H     0.45066   0.59446   0.08857   0.00000  Uiso   1.00
H359   H     0.43654   0.37653   0.71825   0.00000  Uiso   1.00
O360   O     0.79350   0.62549   0.81761   0.00000  Uiso   1.00
O361   O     0.43878   0.52519   0.18778   0.00000  Uiso   1.00
O362   O     0.42024   0.23927   0.70193   0.00000  Uiso   1.00
N363   N     0.88064   0.53367   0.85883   0.00000  Uiso   1.00
N364   N     0.34046   0.46221   0.12263   0.00000  Uiso   1.00
N365   N     0.32727   0.25846   0.77643   0.00000  Uiso   1.00
N366   N     0.95006   0.62406   0.82509   0.00000  Uiso   1.00
N367   N     0.40988   0.55260   0.08889   0.00000  Uiso   1.00
N368   N     0.39670   0.34884   0.74269   0.00000  Uiso   1.00
