data_job_01576
_audit_creation_date              2018-12-19
_audit_creation_method            'Materials Studio'
_symmetry_space_group_name_H-M    'P1'
_symmetry_Int_Tables_number       1
_symmetry_cell_setting            triclinic
loop_
_symmetry_equiv_pos_as_xyz
  x,y,z
_cell_length_a                    16.3243
_cell_length_b                    12.3076
_cell_length_c                    31.6304
_cell_angle_alpha                 90.0000
_cell_angle_beta                  117.7683
_cell_angle_gamma                 90.0000
loop_
_atom_site_label
_atom_site_type_symbol
_atom_site_fract_x
_atom_site_fract_y
_atom_site_fract_z
_atom_site_U_iso_or_equiv
_atom_site_adp_type
_atom_site_occupancy
C1     C     0.66157   0.86810   0.83483   0.00000  Uiso   1.00
C2     C     0.72806   0.83973   0.81503   0.00000  Uiso   1.00
C3     C     0.70792   0.84421   0.76733   0.00000  Uiso   1.00
C4     C     0.77814   0.81499   0.75648   0.00000  Uiso   1.00
C5     C     0.86810   0.77583   0.72032   0.00000  Uiso   1.00
C6     C     0.65701   0.76778   0.86195   0.00000  Uiso   1.00
C7     C     0.57713   0.71178   0.85370   0.00000  Uiso   1.00
C8     C     0.58756   0.62201   0.88235   0.00000  Uiso   1.00
C9     C     0.56721   0.47119   0.91906   0.00000  Uiso   1.00
C10    C     0.70965   0.95575   0.87244   0.00000  Uiso   1.00
C11    C     0.67402   0.05780   0.87302   0.00000  Uiso   1.00
C12    C     0.72875   0.12628   0.91052   0.00000  Uiso   1.00
C13    C     0.79012   0.26733   0.96351   0.00000  Uiso   1.00
C14    C     0.82210   0.80823   0.90040   0.00000  Uiso   1.00
C15    C     0.81525   0.80720   0.85065   0.00000  Uiso   1.00
C16    C     0.88553   0.77797   0.83988   0.00000  Uiso   1.00
C17    C     0.86550   0.78242   0.79216   0.00000  Uiso   1.00
C18    C     0.74420   0.73526   0.89757   0.00000  Uiso   1.00
C19    C     0.75474   0.64555   0.92625   0.00000  Uiso   1.00
C20    C     0.67491   0.58943   0.91804   0.00000  Uiso   1.00
C21    C     0.79685   0.92324   0.90806   0.00000  Uiso   1.00
C22    C     0.85163   0.99157   0.94557   0.00000  Uiso   1.00
C23    C     0.81610   0.09370   0.94620   0.00000  Uiso   1.00
H24    H     0.59369   0.89341   0.80710   0.00000  Uiso   1.00
H25    H     0.64043   0.86937   0.73977   0.00000  Uiso   1.00
H26    H     0.50967   0.73697   0.82613   0.00000  Uiso   1.00
H27    H     0.60654   0.08294   0.84545   0.00000  Uiso   1.00
H28    H     0.73069   0.82834   0.68083   0.00000  Uiso   1.00
H29    H     0.45497   0.54920   0.86294   0.00000  Uiso   1.00
H30    H     0.65925   0.27873   0.90368   0.00000  Uiso   1.00
H31    H     0.88999   0.78291   0.92814   0.00000  Uiso   1.00
H32    H     0.95300   0.75281   0.86745   0.00000  Uiso   1.00
H33    H     0.82223   0.62041   0.95381   0.00000  Uiso   1.00
H34    H     0.91911   0.96638   0.97313   0.00000  Uiso   1.00
H35    H     0.98439   0.73373   0.78445   0.00000  Uiso   1.00
H36    H     0.70866   0.45459   0.96656   0.00000  Uiso   1.00
H37    H     0.91294   0.18412   0.00730   0.00000  Uiso   1.00
O38    O     0.89363   0.76320   0.69053   0.00000  Uiso   1.00
O39    O     0.53189   0.39698   0.92946   0.00000  Uiso   1.00
O40    O     0.79990   0.35412   0.98290   0.00000  Uiso   1.00
N41    N     0.78176   0.81023   0.71355   0.00000  Uiso   1.00
N42    N     0.52398   0.54923   0.88380   0.00000  Uiso   1.00
N43    N     0.71495   0.23128   0.92190   0.00000  Uiso   1.00
N44    N     0.91827   0.75932   0.76931   0.00000  Uiso   1.00
N45    N     0.66049   0.49833   0.93956   0.00000  Uiso   1.00
N46    N     0.85146   0.18037   0.97766   0.00000  Uiso   1.00
C47    C     0.16157   0.36810   0.83483   0.00000  Uiso   1.00
C48    C     0.22806   0.33973   0.81503   0.00000  Uiso   1.00
C49    C     0.20792   0.34421   0.76733   0.00000  Uiso   1.00
C50    C     0.27814   0.31499   0.75648   0.00000  Uiso   1.00
C51    C     0.36810   0.27583   0.72032   0.00000  Uiso   1.00
C52    C     0.15701   0.26778   0.86195   0.00000  Uiso   1.00
C53    C     0.07713   0.21178   0.85370   0.00000  Uiso   1.00
C54    C     0.08756   0.12201   0.88235   0.00000  Uiso   1.00
C55    C     0.06721   0.97119   0.91906   0.00000  Uiso   1.00
C56    C     0.20965   0.45575   0.87244   0.00000  Uiso   1.00
C57    C     0.17402   0.55780   0.87302   0.00000  Uiso   1.00
C58    C     0.22875   0.62628   0.91052   0.00000  Uiso   1.00
C59    C     0.29012   0.76733   0.96351   0.00000  Uiso   1.00
C60    C     0.32210   0.30823   0.90040   0.00000  Uiso   1.00
C61    C     0.31525   0.30720   0.85065   0.00000  Uiso   1.00
C62    C     0.38553   0.27797   0.83988   0.00000  Uiso   1.00
C63    C     0.36550   0.28242   0.79216   0.00000  Uiso   1.00
C64    C     0.24420   0.23526   0.89757   0.00000  Uiso   1.00
C65    C     0.25474   0.14555   0.92625   0.00000  Uiso   1.00
C66    C     0.17491   0.08943   0.91804   0.00000  Uiso   1.00
C67    C     0.29685   0.42324   0.90806   0.00000  Uiso   1.00
C68    C     0.35163   0.49157   0.94557   0.00000  Uiso   1.00
C69    C     0.31610   0.59370   0.94620   0.00000  Uiso   1.00
H70    H     0.09369   0.39341   0.80710   0.00000  Uiso   1.00
H71    H     0.14043   0.36937   0.73977   0.00000  Uiso   1.00
H72    H     0.00967   0.23697   0.82613   0.00000  Uiso   1.00
H73    H     0.10654   0.58294   0.84545   0.00000  Uiso   1.00
H74    H     0.23069   0.32834   0.68083   0.00000  Uiso   1.00
H75    H     0.95497   0.04920   0.86294   0.00000  Uiso   1.00
H76    H     0.15925   0.77873   0.90368   0.00000  Uiso   1.00
H77    H     0.38999   0.28291   0.92814   0.00000  Uiso   1.00
H78    H     0.45300   0.25281   0.86745   0.00000  Uiso   1.00
H79    H     0.32223   0.12041   0.95381   0.00000  Uiso   1.00
H80    H     0.41911   0.46638   0.97313   0.00000  Uiso   1.00
H81    H     0.48439   0.23373   0.78445   0.00000  Uiso   1.00
H82    H     0.20866   0.95459   0.96656   0.00000  Uiso   1.00
H83    H     0.41294   0.68412   0.00730   0.00000  Uiso   1.00
O84    O     0.39363   0.26320   0.69053   0.00000  Uiso   1.00
O85    O     0.03189   0.89698   0.92946   0.00000  Uiso   1.00
O86    O     0.29990   0.85412   0.98290   0.00000  Uiso   1.00
N87    N     0.28176   0.31023   0.71355   0.00000  Uiso   1.00
N88    N     0.02398   0.04923   0.88380   0.00000  Uiso   1.00
N89    N     0.21495   0.73128   0.92190   0.00000  Uiso   1.00
N90    N     0.41827   0.25932   0.76931   0.00000  Uiso   1.00
N91    N     0.16049   0.99833   0.93956   0.00000  Uiso   1.00
N92    N     0.35146   0.68037   0.97766   0.00000  Uiso   1.00
C93    C     0.33843   0.86810   0.66517   0.00000  Uiso   1.00
C94    C     0.27194   0.83973   0.68497   0.00000  Uiso   1.00
C95    C     0.29208   0.84421   0.73267   0.00000  Uiso   1.00
C96    C     0.22186   0.81499   0.74352   0.00000  Uiso   1.00
C97    C     0.13190   0.77583   0.77968   0.00000  Uiso   1.00
C98    C     0.34299   0.76778   0.63805   0.00000  Uiso   1.00
C99    C     0.42287   0.71178   0.64630   0.00000  Uiso   1.00
C100   C     0.41244   0.62201   0.61765   0.00000  Uiso   1.00
C101   C     0.43279   0.47119   0.58094   0.00000  Uiso   1.00
C102   C     0.29035   0.95575   0.62756   0.00000  Uiso   1.00
C103   C     0.32598   0.05780   0.62698   0.00000  Uiso   1.00
C104   C     0.27125   0.12628   0.58948   0.00000  Uiso   1.00
C105   C     0.20988   0.26733   0.53649   0.00000  Uiso   1.00
C106   C     0.17790   0.80823   0.59960   0.00000  Uiso   1.00
C107   C     0.18475   0.80720   0.64935   0.00000  Uiso   1.00
C108   C     0.11447   0.77797   0.66012   0.00000  Uiso   1.00
C109   C     0.13450   0.78242   0.70784   0.00000  Uiso   1.00
C110   C     0.25580   0.73526   0.60243   0.00000  Uiso   1.00
C111   C     0.24526   0.64555   0.57375   0.00000  Uiso   1.00
C112   C     0.32509   0.58943   0.58196   0.00000  Uiso   1.00
C113   C     0.20315   0.92324   0.59194   0.00000  Uiso   1.00
C114   C     0.14837   0.99157   0.55443   0.00000  Uiso   1.00
C115   C     0.18390   0.09370   0.55380   0.00000  Uiso   1.00
H116   H     0.40631   0.89341   0.69290   0.00000  Uiso   1.00
H117   H     0.35957   0.86937   0.76023   0.00000  Uiso   1.00
H118   H     0.49033   0.73697   0.67387   0.00000  Uiso   1.00
H119   H     0.39346   0.08294   0.65455   0.00000  Uiso   1.00
H120   H     0.26931   0.82834   0.81917   0.00000  Uiso   1.00
H121   H     0.54503   0.54920   0.63706   0.00000  Uiso   1.00
H122   H     0.34075   0.27873   0.59632   0.00000  Uiso   1.00
H123   H     0.11001   0.78291   0.57186   0.00000  Uiso   1.00
H124   H     0.04700   0.75281   0.63255   0.00000  Uiso   1.00
H125   H     0.17777   0.62041   0.54619   0.00000  Uiso   1.00
H126   H     0.08089   0.96638   0.52687   0.00000  Uiso   1.00
H127   H     0.01561   0.73373   0.71555   0.00000  Uiso   1.00
H128   H     0.29134   0.45459   0.53344   0.00000  Uiso   1.00
H129   H     0.08706   0.18412   0.49270   0.00000  Uiso   1.00
O130   O     0.10637   0.76320   0.80947   0.00000  Uiso   1.00
O131   O     0.46811   0.39698   0.57054   0.00000  Uiso   1.00
O132   O     0.20010   0.35412   0.51710   0.00000  Uiso   1.00
N133   N     0.21824   0.81023   0.78645   0.00000  Uiso   1.00
N134   N     0.47602   0.54923   0.61620   0.00000  Uiso   1.00
N135   N     0.28505   0.23128   0.57810   0.00000  Uiso   1.00
N136   N     0.08173   0.75932   0.73069   0.00000  Uiso   1.00
N137   N     0.33951   0.49833   0.56044   0.00000  Uiso   1.00
N138   N     0.14854   0.18037   0.52234   0.00000  Uiso   1.00
C139   C     0.83843   0.36810   0.66517   0.00000  Uiso   1.00
C140   C     0.77194   0.33973   0.68497   0.00000  Uiso   1.00
C141   C     0.79208   0.34421   0.73267   0.00000  Uiso   1.00
C142   C     0.72186   0.31499   0.74352   0.00000  Uiso   1.00
C143   C     0.63190   0.27583   0.77968   0.00000  Uiso   1.00
C144   C     0.84299   0.26778   0.63805   0.00000  Uiso   1.00
C145   C     0.92287   0.21178   0.64630   0.00000  Uiso   1.00
C146   C     0.91244   0.12201   0.61765   0.00000  Uiso   1.00
C147   C     0.93279   0.97119   0.58094   0.00000  Uiso   1.00
C148   C     0.79035   0.45575   0.62756   0.00000  Uiso   1.00
C149   C     0.82598   0.55780   0.62698   0.00000  Uiso   1.00
C150   C     0.77125   0.62628   0.58948   0.00000  Uiso   1.00
C151   C     0.70988   0.76733   0.53649   0.00000  Uiso   1.00
C152   C     0.67790   0.30823   0.59960   0.00000  Uiso   1.00
C153   C     0.68475   0.30720   0.64935   0.00000  Uiso   1.00
C154   C     0.61447   0.27797   0.66012   0.00000  Uiso   1.00
C155   C     0.63450   0.28242   0.70784   0.00000  Uiso   1.00
C156   C     0.75580   0.23526   0.60243   0.00000  Uiso   1.00
C157   C     0.74526   0.14555   0.57375   0.00000  Uiso   1.00
C158   C     0.82509   0.08943   0.58196   0.00000  Uiso   1.00
C159   C     0.70315   0.42324   0.59194   0.00000  Uiso   1.00
C160   C     0.64837   0.49157   0.55443   0.00000  Uiso   1.00
C161   C     0.68390   0.59370   0.55380   0.00000  Uiso   1.00
H162   H     0.90631   0.39341   0.69290   0.00000  Uiso   1.00
H163   H     0.85957   0.36937   0.76023   0.00000  Uiso   1.00
H164   H     0.99033   0.23697   0.67387   0.00000  Uiso   1.00
H165   H     0.89346   0.58294   0.65455   0.00000  Uiso   1.00
H166   H     0.76931   0.32834   0.81917   0.00000  Uiso   1.00
H167   H     0.04503   0.04920   0.63706   0.00000  Uiso   1.00
H168   H     0.84075   0.77873   0.59632   0.00000  Uiso   1.00
H169   H     0.61001   0.28291   0.57186   0.00000  Uiso   1.00
H170   H     0.54700   0.25281   0.63255   0.00000  Uiso   1.00
H171   H     0.67777   0.12041   0.54619   0.00000  Uiso   1.00
H172   H     0.58089   0.46638   0.52687   0.00000  Uiso   1.00
H173   H     0.51561   0.23373   0.71555   0.00000  Uiso   1.00
H174   H     0.79134   0.95459   0.53344   0.00000  Uiso   1.00
H175   H     0.58706   0.68412   0.49270   0.00000  Uiso   1.00
O176   O     0.60637   0.26320   0.80947   0.00000  Uiso   1.00
O177   O     0.96811   0.89698   0.57054   0.00000  Uiso   1.00
O178   O     0.70010   0.85412   0.51710   0.00000  Uiso   1.00
N179   N     0.71824   0.31023   0.78645   0.00000  Uiso   1.00
N180   N     0.97602   0.04923   0.61620   0.00000  Uiso   1.00
N181   N     0.78505   0.73128   0.57810   0.00000  Uiso   1.00
N182   N     0.58173   0.25932   0.73069   0.00000  Uiso   1.00
N183   N     0.83951   0.99833   0.56044   0.00000  Uiso   1.00
N184   N     0.64854   0.68037   0.52234   0.00000  Uiso   1.00
C185   C     0.33843   0.13190   0.16517   0.00000  Uiso   1.00
C186   C     0.27194   0.16027   0.18497   0.00000  Uiso   1.00
C187   C     0.29208   0.15579   0.23267   0.00000  Uiso   1.00
C188   C     0.22186   0.18501   0.24352   0.00000  Uiso   1.00
C189   C     0.13190   0.22417   0.27968   0.00000  Uiso   1.00
C190   C     0.34299   0.23222   0.13805   0.00000  Uiso   1.00
C191   C     0.42287   0.28822   0.14630   0.00000  Uiso   1.00
C192   C     0.41244   0.37799   0.11765   0.00000  Uiso   1.00
C193   C     0.43279   0.52881   0.08094   0.00000  Uiso   1.00
C194   C     0.29035   0.04425   0.12756   0.00000  Uiso   1.00
C195   C     0.32598   0.94220   0.12698   0.00000  Uiso   1.00
C196   C     0.27125   0.87372   0.08948   0.00000  Uiso   1.00
C197   C     0.20988   0.73267   0.03649   0.00000  Uiso   1.00
C198   C     0.17790   0.19177   0.09960   0.00000  Uiso   1.00
C199   C     0.18475   0.19280   0.14935   0.00000  Uiso   1.00
C200   C     0.11447   0.22203   0.16012   0.00000  Uiso   1.00
C201   C     0.13450   0.21758   0.20784   0.00000  Uiso   1.00
C202   C     0.25580   0.26474   0.10243   0.00000  Uiso   1.00
C203   C     0.24526   0.35445   0.07375   0.00000  Uiso   1.00
C204   C     0.32509   0.41057   0.08196   0.00000  Uiso   1.00
C205   C     0.20315   0.07676   0.09194   0.00000  Uiso   1.00
C206   C     0.14837   0.00843   0.05443   0.00000  Uiso   1.00
C207   C     0.18390   0.90630   0.05380   0.00000  Uiso   1.00
H208   H     0.40631   0.10659   0.19290   0.00000  Uiso   1.00
H209   H     0.35957   0.13063   0.26023   0.00000  Uiso   1.00
H210   H     0.49033   0.26303   0.17387   0.00000  Uiso   1.00
H211   H     0.39346   0.91706   0.15455   0.00000  Uiso   1.00
H212   H     0.26931   0.17166   0.31917   0.00000  Uiso   1.00
H213   H     0.54503   0.45080   0.13706   0.00000  Uiso   1.00
H214   H     0.34075   0.72127   0.09632   0.00000  Uiso   1.00
H215   H     0.11001   0.21709   0.07186   0.00000  Uiso   1.00
H216   H     0.04700   0.24719   0.13255   0.00000  Uiso   1.00
H217   H     0.17777   0.37959   0.04619   0.00000  Uiso   1.00
H218   H     0.08089   0.03362   0.02687   0.00000  Uiso   1.00
H219   H     0.01561   0.26627   0.21555   0.00000  Uiso   1.00
H220   H     0.29134   0.54541   0.03344   0.00000  Uiso   1.00
H221   H     0.08706   0.81588   0.99270   0.00000  Uiso   1.00
O222   O     0.10637   0.23680   0.30947   0.00000  Uiso   1.00
O223   O     0.46811   0.60302   0.07054   0.00000  Uiso   1.00
O224   O     0.20010   0.64588   0.01710   0.00000  Uiso   1.00
N225   N     0.21824   0.18977   0.28645   0.00000  Uiso   1.00
N226   N     0.47602   0.45077   0.11620   0.00000  Uiso   1.00
N227   N     0.28505   0.76872   0.07810   0.00000  Uiso   1.00
N228   N     0.08173   0.24068   0.23069   0.00000  Uiso   1.00
N229   N     0.33951   0.50167   0.06044   0.00000  Uiso   1.00
N230   N     0.14854   0.81963   0.02234   0.00000  Uiso   1.00
C231   C     0.83843   0.63190   0.16517   0.00000  Uiso   1.00
C232   C     0.77194   0.66027   0.18497   0.00000  Uiso   1.00
C233   C     0.79208   0.65579   0.23267   0.00000  Uiso   1.00
C234   C     0.72186   0.68501   0.24352   0.00000  Uiso   1.00
C235   C     0.63190   0.72417   0.27968   0.00000  Uiso   1.00
C236   C     0.84299   0.73222   0.13805   0.00000  Uiso   1.00
C237   C     0.92287   0.78822   0.14630   0.00000  Uiso   1.00
C238   C     0.91244   0.87799   0.11765   0.00000  Uiso   1.00
C239   C     0.93279   0.02881   0.08094   0.00000  Uiso   1.00
C240   C     0.79035   0.54425   0.12756   0.00000  Uiso   1.00
C241   C     0.82598   0.44220   0.12698   0.00000  Uiso   1.00
C242   C     0.77125   0.37372   0.08948   0.00000  Uiso   1.00
C243   C     0.70988   0.23267   0.03649   0.00000  Uiso   1.00
C244   C     0.67790   0.69177   0.09960   0.00000  Uiso   1.00
C245   C     0.68475   0.69280   0.14935   0.00000  Uiso   1.00
C246   C     0.61447   0.72203   0.16012   0.00000  Uiso   1.00
C247   C     0.63450   0.71758   0.20784   0.00000  Uiso   1.00
C248   C     0.75580   0.76474   0.10243   0.00000  Uiso   1.00
C249   C     0.74526   0.85445   0.07375   0.00000  Uiso   1.00
C250   C     0.82509   0.91057   0.08196   0.00000  Uiso   1.00
C251   C     0.70315   0.57676   0.09194   0.00000  Uiso   1.00
C252   C     0.64837   0.50843   0.05443   0.00000  Uiso   1.00
C253   C     0.68390   0.40630   0.05380   0.00000  Uiso   1.00
H254   H     0.90631   0.60659   0.19290   0.00000  Uiso   1.00
H255   H     0.85957   0.63063   0.26023   0.00000  Uiso   1.00
H256   H     0.99033   0.76303   0.17387   0.00000  Uiso   1.00
H257   H     0.89346   0.41706   0.15455   0.00000  Uiso   1.00
H258   H     0.76931   0.67166   0.31917   0.00000  Uiso   1.00
H259   H     0.04503   0.95080   0.13706   0.00000  Uiso   1.00
H260   H     0.84075   0.22127   0.09632   0.00000  Uiso   1.00
H261   H     0.61001   0.71709   0.07186   0.00000  Uiso   1.00
H262   H     0.54700   0.74719   0.13255   0.00000  Uiso   1.00
H263   H     0.67777   0.87959   0.04619   0.00000  Uiso   1.00
H264   H     0.58089   0.53362   0.02687   0.00000  Uiso   1.00
H265   H     0.51561   0.76627   0.21555   0.00000  Uiso   1.00
H266   H     0.79134   0.04541   0.03344   0.00000  Uiso   1.00
H267   H     0.58706   0.31588   0.99270   0.00000  Uiso   1.00
O268   O     0.60637   0.73680   0.30947   0.00000  Uiso   1.00
O269   O     0.96811   0.10302   0.07054   0.00000  Uiso   1.00
O270   O     0.70010   0.14588   0.01710   0.00000  Uiso   1.00
N271   N     0.71824   0.68977   0.28645   0.00000  Uiso   1.00
N272   N     0.97602   0.95077   0.11620   0.00000  Uiso   1.00
N273   N     0.78505   0.26872   0.07810   0.00000  Uiso   1.00
N274   N     0.58173   0.74068   0.23069   0.00000  Uiso   1.00
N275   N     0.83951   0.00167   0.06044   0.00000  Uiso   1.00
N276   N     0.64854   0.31963   0.02234   0.00000  Uiso   1.00
C277   C     0.66157   0.13190   0.33483   0.00000  Uiso   1.00
C278   C     0.72806   0.16027   0.31503   0.00000  Uiso   1.00
C279   C     0.70792   0.15579   0.26733   0.00000  Uiso   1.00
C280   C     0.77814   0.18501   0.25648   0.00000  Uiso   1.00
C281   C     0.86810   0.22417   0.22032   0.00000  Uiso   1.00
C282   C     0.65701   0.23222   0.36195   0.00000  Uiso   1.00
C283   C     0.57713   0.28822   0.35370   0.00000  Uiso   1.00
C284   C     0.58756   0.37799   0.38235   0.00000  Uiso   1.00
C285   C     0.56721   0.52881   0.41906   0.00000  Uiso   1.00
C286   C     0.70965   0.04425   0.37244   0.00000  Uiso   1.00
C287   C     0.67402   0.94220   0.37302   0.00000  Uiso   1.00
C288   C     0.72875   0.87372   0.41052   0.00000  Uiso   1.00
C289   C     0.79012   0.73267   0.46351   0.00000  Uiso   1.00
C290   C     0.82210   0.19177   0.40040   0.00000  Uiso   1.00
C291   C     0.81525   0.19280   0.35065   0.00000  Uiso   1.00
C292   C     0.88553   0.22203   0.33988   0.00000  Uiso   1.00
C293   C     0.86550   0.21758   0.29216   0.00000  Uiso   1.00
C294   C     0.74420   0.26474   0.39757   0.00000  Uiso   1.00
C295   C     0.75474   0.35445   0.42625   0.00000  Uiso   1.00
C296   C     0.67491   0.41057   0.41804   0.00000  Uiso   1.00
C297   C     0.79685   0.07676   0.40806   0.00000  Uiso   1.00
C298   C     0.85163   0.00843   0.44557   0.00000  Uiso   1.00
C299   C     0.81610   0.90630   0.44620   0.00000  Uiso   1.00
H300   H     0.59369   0.10659   0.30710   0.00000  Uiso   1.00
H301   H     0.64043   0.13063   0.23977   0.00000  Uiso   1.00
H302   H     0.50967   0.26303   0.32613   0.00000  Uiso   1.00
H303   H     0.60654   0.91706   0.34545   0.00000  Uiso   1.00
H304   H     0.73069   0.17166   0.18083   0.00000  Uiso   1.00
H305   H     0.45497   0.45080   0.36294   0.00000  Uiso   1.00
H306   H     0.65925   0.72127   0.40368   0.00000  Uiso   1.00
H307   H     0.88999   0.21709   0.42814   0.00000  Uiso   1.00
H308   H     0.95300   0.24719   0.36745   0.00000  Uiso   1.00
H309   H     0.82223   0.37959   0.45381   0.00000  Uiso   1.00
H310   H     0.91911   0.03362   0.47313   0.00000  Uiso   1.00
H311   H     0.98439   0.26627   0.28445   0.00000  Uiso   1.00
H312   H     0.70866   0.54541   0.46656   0.00000  Uiso   1.00
H313   H     0.91294   0.81588   0.50730   0.00000  Uiso   1.00
O314   O     0.89363   0.23680   0.19053   0.00000  Uiso   1.00
O315   O     0.53189   0.60302   0.42946   0.00000  Uiso   1.00
O316   O     0.79990   0.64588   0.48290   0.00000  Uiso   1.00
N317   N     0.78176   0.18977   0.21355   0.00000  Uiso   1.00
N318   N     0.52398   0.45077   0.38380   0.00000  Uiso   1.00
N319   N     0.71495   0.76872   0.42190   0.00000  Uiso   1.00
N320   N     0.91827   0.24068   0.26931   0.00000  Uiso   1.00
N321   N     0.66049   0.50167   0.43956   0.00000  Uiso   1.00
N322   N     0.85146   0.81963   0.47766   0.00000  Uiso   1.00
C323   C     0.16157   0.63190   0.33483   0.00000  Uiso   1.00
C324   C     0.22806   0.66027   0.31503   0.00000  Uiso   1.00
C325   C     0.20792   0.65579   0.26733   0.00000  Uiso   1.00
C326   C     0.27814   0.68501   0.25648   0.00000  Uiso   1.00
C327   C     0.36810   0.72417   0.22032   0.00000  Uiso   1.00
C328   C     0.15701   0.73222   0.36195   0.00000  Uiso   1.00
C329   C     0.07713   0.78822   0.35370   0.00000  Uiso   1.00
C330   C     0.08756   0.87799   0.38235   0.00000  Uiso   1.00
C331   C     0.06721   0.02881   0.41906   0.00000  Uiso   1.00
C332   C     0.20965   0.54425   0.37244   0.00000  Uiso   1.00
C333   C     0.17402   0.44220   0.37302   0.00000  Uiso   1.00
C334   C     0.22875   0.37372   0.41052   0.00000  Uiso   1.00
C335   C     0.29012   0.23267   0.46351   0.00000  Uiso   1.00
C336   C     0.32210   0.69177   0.40040   0.00000  Uiso   1.00
C337   C     0.31525   0.69280   0.35065   0.00000  Uiso   1.00
C338   C     0.38553   0.72203   0.33988   0.00000  Uiso   1.00
C339   C     0.36550   0.71758   0.29216   0.00000  Uiso   1.00
C340   C     0.24420   0.76474   0.39757   0.00000  Uiso   1.00
C341   C     0.25474   0.85445   0.42625   0.00000  Uiso   1.00
C342   C     0.17491   0.91057   0.41804   0.00000  Uiso   1.00
C343   C     0.29685   0.57676   0.40806   0.00000  Uiso   1.00
C344   C     0.35163   0.50843   0.44557   0.00000  Uiso   1.00
C345   C     0.31610   0.40630   0.44620   0.00000  Uiso   1.00
H346   H     0.09369   0.60659   0.30710   0.00000  Uiso   1.00
H347   H     0.14043   0.63063   0.23977   0.00000  Uiso   1.00
H348   H     0.00967   0.76303   0.32613   0.00000  Uiso   1.00
H349   H     0.10654   0.41706   0.34545   0.00000  Uiso   1.00
H350   H     0.23069   0.67166   0.18083   0.00000  Uiso   1.00
H351   H     0.95497   0.95080   0.36294   0.00000  Uiso   1.00
H352   H     0.15925   0.22127   0.40368   0.00000  Uiso   1.00
H353   H     0.38999   0.71709   0.42814   0.00000  Uiso   1.00
H354   H     0.45300   0.74719   0.36745   0.00000  Uiso   1.00
H355   H     0.32223   0.87959   0.45381   0.00000  Uiso   1.00
H356   H     0.41911   0.53362   0.47313   0.00000  Uiso   1.00
H357   H     0.48439   0.76627   0.28445   0.00000  Uiso   1.00
H358   H     0.20866   0.04541   0.46656   0.00000  Uiso   1.00
H359   H     0.41294   0.31588   0.50730   0.00000  Uiso   1.00
O360   O     0.39363   0.73680   0.19053   0.00000  Uiso   1.00
O361   O     0.03189   0.10302   0.42946   0.00000  Uiso   1.00
O362   O     0.29990   0.14588   0.48290   0.00000  Uiso   1.00
N363   N     0.28176   0.68977   0.21355   0.00000  Uiso   1.00
N364   N     0.02398   0.95077   0.38380   0.00000  Uiso   1.00
N365   N     0.21495   0.26872   0.42190   0.00000  Uiso   1.00
N366   N     0.41827   0.74068   0.26931   0.00000  Uiso   1.00
N367   N     0.16049   0.00167   0.43956   0.00000  Uiso   1.00
N368   N     0.35146   0.31963   0.47766   0.00000  Uiso   1.00
