data_job_01363
_audit_creation_date              2018-12-19
_audit_creation_method            'Materials Studio'
_symmetry_space_group_name_H-M    'P1'
_symmetry_Int_Tables_number       1
_symmetry_cell_setting            triclinic
loop_
_symmetry_equiv_pos_as_xyz
  x,y,z
_cell_length_a                    18.4600
_cell_length_b                    8.8581
_cell_length_c                    32.5313
_cell_angle_alpha                 90.0000
_cell_angle_beta                  90.0000
_cell_angle_gamma                 90.0000
loop_
_atom_site_label
_atom_site_type_symbol
_atom_site_fract_x
_atom_site_fract_y
_atom_site_fract_z
_atom_site_U_iso_or_equiv
_atom_site_adp_type
_atom_site_occupancy
C1     C     0.06563   0.63878   0.60512   0.00000  Uiso   1.00
C2     C     0.98607   0.60104   0.61244   0.00000  Uiso   1.00
C3     C     0.92743   0.68707   0.59963   0.00000  Uiso   1.00
C4     C     0.85890   0.63324   0.60936   0.00000  Uiso   1.00
C5     C     0.73681   0.59522   0.61743   0.00000  Uiso   1.00
C6     C     0.10105   0.64209   0.64745   0.00000  Uiso   1.00
C7     C     0.13910   0.76262   0.66409   0.00000  Uiso   1.00
C8     C     0.16737   0.74332   0.70329   0.00000  Uiso   1.00
C9     C     0.22384   0.76899   0.76572   0.00000  Uiso   1.00
C10    C     0.09783   0.50287   0.58289   0.00000  Uiso   1.00
C11    C     0.13318   0.50634   0.54526   0.00000  Uiso   1.00
C12    C     0.15875   0.36984   0.53010   0.00000  Uiso   1.00
C13    C     0.21020   0.17935   0.49230   0.00000  Uiso   1.00
C14    C     0.04821   0.39020   0.64514   0.00000  Uiso   1.00
C15    C     0.97661   0.46602   0.63418   0.00000  Uiso   1.00
C16    C     0.90815   0.41204   0.64392   0.00000  Uiso   1.00
C17    C     0.84942   0.49797   0.63113   0.00000  Uiso   1.00
C18    C     0.09159   0.50707   0.66920   0.00000  Uiso   1.00
C19    C     0.11982   0.48759   0.70838   0.00000  Uiso   1.00
C20    C     0.15790   0.60806   0.72507   0.00000  Uiso   1.00
C21    C     0.08836   0.36784   0.60464   0.00000  Uiso   1.00
C22    C     0.11389   0.23131   0.58954   0.00000  Uiso   1.00
C23    C     0.14927   0.23458   0.55189   0.00000  Uiso   1.00
H24    H     0.07300   0.74390   0.58819   0.00000  Uiso   1.00
H25    H     0.93477   0.79156   0.58281   0.00000  Uiso   1.00
H26    H     0.14642   0.86708   0.64726   0.00000  Uiso   1.00
H27    H     0.14049   0.61085   0.52844   0.00000  Uiso   1.00
H28    H     0.77735   0.78488   0.58645   0.00000  Uiso   1.00
H29    H     0.22364   0.94412   0.72233   0.00000  Uiso   1.00
H30    H     0.21114   0.40379   0.47178   0.00000  Uiso   1.00
H31    H     0.04084   0.28507   0.66207   0.00000  Uiso   1.00
H32    H     0.90085   0.30755   0.66075   0.00000  Uiso   1.00
H33    H     0.11249   0.38309   0.72519   0.00000  Uiso   1.00
H34    H     0.10656   0.12685   0.60637   0.00000  Uiso   1.00
H35    H     0.74982   0.39205   0.64971   0.00000  Uiso   1.00
H36    H     0.19611   0.55128   0.78559   0.00000  Uiso   1.00
H37    H     0.18360   0.01096   0.53503   0.00000  Uiso   1.00
O38    O     0.67207   0.61156   0.61588   0.00000  Uiso   1.00
O39    O     0.25759   0.82046   0.79415   0.00000  Uiso   1.00
O40    O     0.24119   0.11157   0.46543   0.00000  Uiso   1.00
N41    N     0.79009   0.68933   0.60151   0.00000  Uiso   1.00
N42    N     0.20732   0.83821   0.72856   0.00000  Uiso   1.00
N43    N     0.19565   0.33306   0.49432   0.00000  Uiso   1.00
N44    N     0.77527   0.47795   0.63555   0.00000  Uiso   1.00
N45    N     0.19251   0.62683   0.76259   0.00000  Uiso   1.00
N46    N     0.18084   0.12168   0.52835   0.00000  Uiso   1.00
C47    C     0.43437   0.86122   0.10512   0.00000  Uiso   1.00
C48    C     0.51393   0.89896   0.11244   0.00000  Uiso   1.00
C49    C     0.57257   0.81293   0.09963   0.00000  Uiso   1.00
C50    C     0.64110   0.86676   0.10936   0.00000  Uiso   1.00
C51    C     0.76319   0.90478   0.11743   0.00000  Uiso   1.00
C52    C     0.39895   0.85791   0.14745   0.00000  Uiso   1.00
C53    C     0.36090   0.73738   0.16409   0.00000  Uiso   1.00
C54    C     0.33263   0.75668   0.20329   0.00000  Uiso   1.00
C55    C     0.27616   0.73101   0.26572   0.00000  Uiso   1.00
C56    C     0.40217   0.99713   0.08289   0.00000  Uiso   1.00
C57    C     0.36682   0.99366   0.04526   0.00000  Uiso   1.00
C58    C     0.34125   0.13016   0.03010   0.00000  Uiso   1.00
C59    C     0.28980   0.32065   0.99230   0.00000  Uiso   1.00
C60    C     0.45179   0.10980   0.14514   0.00000  Uiso   1.00
C61    C     0.52339   0.03398   0.13418   0.00000  Uiso   1.00
C62    C     0.59185   0.08796   0.14392   0.00000  Uiso   1.00
C63    C     0.65058   0.00203   0.13113   0.00000  Uiso   1.00
C64    C     0.40841   0.99293   0.16920   0.00000  Uiso   1.00
C65    C     0.38018   0.01241   0.20838   0.00000  Uiso   1.00
C66    C     0.34210   0.89194   0.22507   0.00000  Uiso   1.00
C67    C     0.41164   0.13216   0.10464   0.00000  Uiso   1.00
C68    C     0.38611   0.26869   0.08954   0.00000  Uiso   1.00
C69    C     0.35073   0.26542   0.05189   0.00000  Uiso   1.00
H70    H     0.42700   0.75610   0.08819   0.00000  Uiso   1.00
H71    H     0.56523   0.70844   0.08281   0.00000  Uiso   1.00
H72    H     0.35358   0.63292   0.14726   0.00000  Uiso   1.00
H73    H     0.35951   0.88915   0.02844   0.00000  Uiso   1.00
H74    H     0.72265   0.71512   0.08645   0.00000  Uiso   1.00
H75    H     0.27636   0.55588   0.22233   0.00000  Uiso   1.00
H76    H     0.28886   0.09621   0.97178   0.00000  Uiso   1.00
H77    H     0.45916   0.21493   0.16207   0.00000  Uiso   1.00
H78    H     0.59915   0.19245   0.16075   0.00000  Uiso   1.00
H79    H     0.38751   0.11691   0.22519   0.00000  Uiso   1.00
H80    H     0.39344   0.37315   0.10637   0.00000  Uiso   1.00
H81    H     0.75018   0.10795   0.14971   0.00000  Uiso   1.00
H82    H     0.30389   0.94872   0.28559   0.00000  Uiso   1.00
H83    H     0.31640   0.48904   0.03503   0.00000  Uiso   1.00
O84    O     0.82793   0.88844   0.11588   0.00000  Uiso   1.00
O85    O     0.24241   0.67954   0.29415   0.00000  Uiso   1.00
O86    O     0.25881   0.38843   0.96543   0.00000  Uiso   1.00
N87    N     0.70991   0.81067   0.10151   0.00000  Uiso   1.00
N88    N     0.29268   0.66179   0.22856   0.00000  Uiso   1.00
N89    N     0.30435   0.16694   0.99432   0.00000  Uiso   1.00
N90    N     0.72473   0.02205   0.13555   0.00000  Uiso   1.00
N91    N     0.30749   0.87317   0.26259   0.00000  Uiso   1.00
N92    N     0.31916   0.37832   0.02835   0.00000  Uiso   1.00
C93    C     0.93437   0.63878   0.89488   0.00000  Uiso   1.00
C94    C     0.01393   0.60104   0.88756   0.00000  Uiso   1.00
C95    C     0.07257   0.68707   0.90037   0.00000  Uiso   1.00
C96    C     0.14110   0.63324   0.89064   0.00000  Uiso   1.00
C97    C     0.26319   0.59522   0.88257   0.00000  Uiso   1.00
C98    C     0.89895   0.64209   0.85255   0.00000  Uiso   1.00
C99    C     0.86090   0.76262   0.83591   0.00000  Uiso   1.00
C100   C     0.83263   0.74332   0.79671   0.00000  Uiso   1.00
C101   C     0.77616   0.76899   0.73428   0.00000  Uiso   1.00
C102   C     0.90217   0.50287   0.91711   0.00000  Uiso   1.00
C103   C     0.86682   0.50634   0.95474   0.00000  Uiso   1.00
C104   C     0.84125   0.36984   0.96990   0.00000  Uiso   1.00
C105   C     0.78980   0.17935   0.00770   0.00000  Uiso   1.00
C106   C     0.95179   0.39020   0.85486   0.00000  Uiso   1.00
C107   C     0.02339   0.46602   0.86582   0.00000  Uiso   1.00
C108   C     0.09185   0.41204   0.85608   0.00000  Uiso   1.00
C109   C     0.15058   0.49797   0.86887   0.00000  Uiso   1.00
C110   C     0.90841   0.50707   0.83080   0.00000  Uiso   1.00
C111   C     0.88018   0.48759   0.79162   0.00000  Uiso   1.00
C112   C     0.84210   0.60806   0.77493   0.00000  Uiso   1.00
C113   C     0.91164   0.36784   0.89536   0.00000  Uiso   1.00
C114   C     0.88611   0.23131   0.91046   0.00000  Uiso   1.00
C115   C     0.85073   0.23458   0.94811   0.00000  Uiso   1.00
H116   H     0.92700   0.74390   0.91181   0.00000  Uiso   1.00
H117   H     0.06523   0.79156   0.91719   0.00000  Uiso   1.00
H118   H     0.85358   0.86708   0.85274   0.00000  Uiso   1.00
H119   H     0.85951   0.61085   0.97156   0.00000  Uiso   1.00
H120   H     0.22265   0.78488   0.91355   0.00000  Uiso   1.00
H121   H     0.77636   0.94412   0.77767   0.00000  Uiso   1.00
H122   H     0.78886   0.40379   0.02822   0.00000  Uiso   1.00
H123   H     0.95916   0.28507   0.83793   0.00000  Uiso   1.00
H124   H     0.09915   0.30755   0.83925   0.00000  Uiso   1.00
H125   H     0.88751   0.38309   0.77481   0.00000  Uiso   1.00
H126   H     0.89344   0.12685   0.89363   0.00000  Uiso   1.00
H127   H     0.25018   0.39205   0.85029   0.00000  Uiso   1.00
H128   H     0.80389   0.55128   0.71441   0.00000  Uiso   1.00
H129   H     0.81640   0.01096   0.96497   0.00000  Uiso   1.00
O130   O     0.32793   0.61156   0.88412   0.00000  Uiso   1.00
O131   O     0.74241   0.82046   0.70585   0.00000  Uiso   1.00
O132   O     0.75881   0.11157   0.03457   0.00000  Uiso   1.00
N133   N     0.20991   0.68933   0.89849   0.00000  Uiso   1.00
N134   N     0.79268   0.83821   0.77144   0.00000  Uiso   1.00
N135   N     0.80435   0.33306   0.00568   0.00000  Uiso   1.00
N136   N     0.22473   0.47795   0.86445   0.00000  Uiso   1.00
N137   N     0.80749   0.62683   0.73741   0.00000  Uiso   1.00
N138   N     0.81916   0.12168   0.97165   0.00000  Uiso   1.00
C139   C     0.56563   0.86122   0.39488   0.00000  Uiso   1.00
C140   C     0.48607   0.89896   0.38756   0.00000  Uiso   1.00
C141   C     0.42743   0.81293   0.40037   0.00000  Uiso   1.00
C142   C     0.35890   0.86676   0.39064   0.00000  Uiso   1.00
C143   C     0.23681   0.90478   0.38257   0.00000  Uiso   1.00
C144   C     0.60105   0.85791   0.35255   0.00000  Uiso   1.00
C145   C     0.63910   0.73738   0.33591   0.00000  Uiso   1.00
C146   C     0.66737   0.75668   0.29671   0.00000  Uiso   1.00
C147   C     0.72384   0.73101   0.23428   0.00000  Uiso   1.00
C148   C     0.59783   0.99713   0.41711   0.00000  Uiso   1.00
C149   C     0.63318   0.99366   0.45474   0.00000  Uiso   1.00
C150   C     0.65875   0.13016   0.46990   0.00000  Uiso   1.00
C151   C     0.71020   0.32065   0.50770   0.00000  Uiso   1.00
C152   C     0.54821   0.10980   0.35486   0.00000  Uiso   1.00
C153   C     0.47661   0.03398   0.36582   0.00000  Uiso   1.00
C154   C     0.40815   0.08796   0.35608   0.00000  Uiso   1.00
C155   C     0.34942   0.00203   0.36887   0.00000  Uiso   1.00
C156   C     0.59159   0.99293   0.33080   0.00000  Uiso   1.00
C157   C     0.61982   0.01241   0.29162   0.00000  Uiso   1.00
C158   C     0.65790   0.89194   0.27493   0.00000  Uiso   1.00
C159   C     0.58836   0.13216   0.39536   0.00000  Uiso   1.00
C160   C     0.61389   0.26869   0.41046   0.00000  Uiso   1.00
C161   C     0.64927   0.26542   0.44811   0.00000  Uiso   1.00
H162   H     0.57300   0.75610   0.41181   0.00000  Uiso   1.00
H163   H     0.43477   0.70844   0.41719   0.00000  Uiso   1.00
H164   H     0.64642   0.63292   0.35274   0.00000  Uiso   1.00
H165   H     0.64049   0.88915   0.47156   0.00000  Uiso   1.00
H166   H     0.27735   0.71512   0.41355   0.00000  Uiso   1.00
H167   H     0.72364   0.55588   0.27767   0.00000  Uiso   1.00
H168   H     0.71114   0.09621   0.52822   0.00000  Uiso   1.00
H169   H     0.54084   0.21493   0.33793   0.00000  Uiso   1.00
H170   H     0.40085   0.19245   0.33925   0.00000  Uiso   1.00
H171   H     0.61249   0.11691   0.27481   0.00000  Uiso   1.00
H172   H     0.60656   0.37315   0.39363   0.00000  Uiso   1.00
H173   H     0.24982   0.10795   0.35029   0.00000  Uiso   1.00
H174   H     0.69611   0.94872   0.21441   0.00000  Uiso   1.00
H175   H     0.68360   0.48904   0.46497   0.00000  Uiso   1.00
O176   O     0.17207   0.88844   0.38412   0.00000  Uiso   1.00
O177   O     0.75759   0.67954   0.20585   0.00000  Uiso   1.00
O178   O     0.74119   0.38843   0.53457   0.00000  Uiso   1.00
N179   N     0.29009   0.81067   0.39849   0.00000  Uiso   1.00
N180   N     0.70732   0.66179   0.27144   0.00000  Uiso   1.00
N181   N     0.69565   0.16694   0.50568   0.00000  Uiso   1.00
N182   N     0.27527   0.02205   0.36445   0.00000  Uiso   1.00
N183   N     0.69251   0.87317   0.23741   0.00000  Uiso   1.00
N184   N     0.68084   0.37832   0.47165   0.00000  Uiso   1.00
C185   C     0.93437   0.36122   0.39488   0.00000  Uiso   1.00
C186   C     0.01393   0.39896   0.38756   0.00000  Uiso   1.00
C187   C     0.07257   0.31293   0.40037   0.00000  Uiso   1.00
C188   C     0.14110   0.36676   0.39064   0.00000  Uiso   1.00
C189   C     0.26319   0.40478   0.38257   0.00000  Uiso   1.00
C190   C     0.89895   0.35791   0.35255   0.00000  Uiso   1.00
C191   C     0.86090   0.23738   0.33591   0.00000  Uiso   1.00
C192   C     0.83263   0.25668   0.29671   0.00000  Uiso   1.00
C193   C     0.77616   0.23101   0.23428   0.00000  Uiso   1.00
C194   C     0.90217   0.49713   0.41711   0.00000  Uiso   1.00
C195   C     0.86682   0.49366   0.45474   0.00000  Uiso   1.00
C196   C     0.84125   0.63016   0.46990   0.00000  Uiso   1.00
C197   C     0.78980   0.82065   0.50770   0.00000  Uiso   1.00
C198   C     0.95179   0.60980   0.35486   0.00000  Uiso   1.00
C199   C     0.02339   0.53398   0.36582   0.00000  Uiso   1.00
C200   C     0.09185   0.58796   0.35608   0.00000  Uiso   1.00
C201   C     0.15058   0.50203   0.36887   0.00000  Uiso   1.00
C202   C     0.90841   0.49293   0.33080   0.00000  Uiso   1.00
C203   C     0.88018   0.51241   0.29162   0.00000  Uiso   1.00
C204   C     0.84210   0.39194   0.27493   0.00000  Uiso   1.00
C205   C     0.91164   0.63216   0.39536   0.00000  Uiso   1.00
C206   C     0.88611   0.76869   0.41046   0.00000  Uiso   1.00
C207   C     0.85073   0.76542   0.44811   0.00000  Uiso   1.00
H208   H     0.92700   0.25610   0.41181   0.00000  Uiso   1.00
H209   H     0.06523   0.20844   0.41719   0.00000  Uiso   1.00
H210   H     0.85358   0.13292   0.35274   0.00000  Uiso   1.00
H211   H     0.85951   0.38915   0.47156   0.00000  Uiso   1.00
H212   H     0.22265   0.21512   0.41355   0.00000  Uiso   1.00
H213   H     0.77636   0.05588   0.27767   0.00000  Uiso   1.00
H214   H     0.78886   0.59621   0.52822   0.00000  Uiso   1.00
H215   H     0.95916   0.71493   0.33793   0.00000  Uiso   1.00
H216   H     0.09915   0.69245   0.33925   0.00000  Uiso   1.00
H217   H     0.88751   0.61691   0.27481   0.00000  Uiso   1.00
H218   H     0.89344   0.87315   0.39363   0.00000  Uiso   1.00
H219   H     0.25018   0.60795   0.35029   0.00000  Uiso   1.00
H220   H     0.80389   0.44872   0.21441   0.00000  Uiso   1.00
H221   H     0.81640   0.98904   0.46497   0.00000  Uiso   1.00
O222   O     0.32793   0.38844   0.38412   0.00000  Uiso   1.00
O223   O     0.74241   0.17954   0.20585   0.00000  Uiso   1.00
O224   O     0.75881   0.88843   0.53457   0.00000  Uiso   1.00
N225   N     0.20991   0.31067   0.39849   0.00000  Uiso   1.00
N226   N     0.79268   0.16179   0.27144   0.00000  Uiso   1.00
N227   N     0.80435   0.66694   0.50568   0.00000  Uiso   1.00
N228   N     0.22473   0.52205   0.36445   0.00000  Uiso   1.00
N229   N     0.80749   0.37317   0.23741   0.00000  Uiso   1.00
N230   N     0.81916   0.87832   0.47165   0.00000  Uiso   1.00
C231   C     0.56563   0.13878   0.89488   0.00000  Uiso   1.00
C232   C     0.48607   0.10104   0.88756   0.00000  Uiso   1.00
C233   C     0.42743   0.18707   0.90037   0.00000  Uiso   1.00
C234   C     0.35890   0.13324   0.89064   0.00000  Uiso   1.00
C235   C     0.23681   0.09522   0.88257   0.00000  Uiso   1.00
C236   C     0.60105   0.14209   0.85255   0.00000  Uiso   1.00
C237   C     0.63910   0.26262   0.83591   0.00000  Uiso   1.00
C238   C     0.66737   0.24332   0.79671   0.00000  Uiso   1.00
C239   C     0.72384   0.26899   0.73428   0.00000  Uiso   1.00
C240   C     0.59783   0.00287   0.91711   0.00000  Uiso   1.00
C241   C     0.63318   0.00634   0.95474   0.00000  Uiso   1.00
C242   C     0.65875   0.86984   0.96990   0.00000  Uiso   1.00
C243   C     0.71020   0.67935   0.00770   0.00000  Uiso   1.00
C244   C     0.54821   0.89020   0.85486   0.00000  Uiso   1.00
C245   C     0.47661   0.96602   0.86582   0.00000  Uiso   1.00
C246   C     0.40815   0.91204   0.85608   0.00000  Uiso   1.00
C247   C     0.34942   0.99797   0.86887   0.00000  Uiso   1.00
C248   C     0.59159   0.00707   0.83080   0.00000  Uiso   1.00
C249   C     0.61982   0.98759   0.79162   0.00000  Uiso   1.00
C250   C     0.65790   0.10806   0.77493   0.00000  Uiso   1.00
C251   C     0.58836   0.86784   0.89536   0.00000  Uiso   1.00
C252   C     0.61389   0.73131   0.91046   0.00000  Uiso   1.00
C253   C     0.64927   0.73458   0.94811   0.00000  Uiso   1.00
H254   H     0.57300   0.24390   0.91181   0.00000  Uiso   1.00
H255   H     0.43477   0.29156   0.91719   0.00000  Uiso   1.00
H256   H     0.64642   0.36708   0.85274   0.00000  Uiso   1.00
H257   H     0.64049   0.11085   0.97156   0.00000  Uiso   1.00
H258   H     0.27735   0.28488   0.91355   0.00000  Uiso   1.00
H259   H     0.72364   0.44412   0.77767   0.00000  Uiso   1.00
H260   H     0.71114   0.90379   0.02822   0.00000  Uiso   1.00
H261   H     0.54084   0.78507   0.83793   0.00000  Uiso   1.00
H262   H     0.40085   0.80755   0.83925   0.00000  Uiso   1.00
H263   H     0.61249   0.88309   0.77481   0.00000  Uiso   1.00
H264   H     0.60656   0.62685   0.89363   0.00000  Uiso   1.00
H265   H     0.24982   0.89205   0.85029   0.00000  Uiso   1.00
H266   H     0.69611   0.05128   0.71441   0.00000  Uiso   1.00
H267   H     0.68360   0.51096   0.96497   0.00000  Uiso   1.00
O268   O     0.17207   0.11156   0.88412   0.00000  Uiso   1.00
O269   O     0.75759   0.32046   0.70585   0.00000  Uiso   1.00
O270   O     0.74119   0.61157   0.03457   0.00000  Uiso   1.00
N271   N     0.29009   0.18933   0.89849   0.00000  Uiso   1.00
N272   N     0.70732   0.33821   0.77144   0.00000  Uiso   1.00
N273   N     0.69565   0.83306   0.00568   0.00000  Uiso   1.00
N274   N     0.27527   0.97795   0.86445   0.00000  Uiso   1.00
N275   N     0.69251   0.12683   0.73741   0.00000  Uiso   1.00
N276   N     0.68084   0.62168   0.97165   0.00000  Uiso   1.00
C277   C     0.06563   0.36122   0.10512   0.00000  Uiso   1.00
C278   C     0.98607   0.39896   0.11244   0.00000  Uiso   1.00
C279   C     0.92743   0.31293   0.09963   0.00000  Uiso   1.00
C280   C     0.85890   0.36676   0.10936   0.00000  Uiso   1.00
C281   C     0.73681   0.40478   0.11743   0.00000  Uiso   1.00
C282   C     0.10105   0.35791   0.14745   0.00000  Uiso   1.00
C283   C     0.13910   0.23738   0.16409   0.00000  Uiso   1.00
C284   C     0.16737   0.25668   0.20329   0.00000  Uiso   1.00
C285   C     0.22384   0.23101   0.26572   0.00000  Uiso   1.00
C286   C     0.09783   0.49713   0.08289   0.00000  Uiso   1.00
C287   C     0.13318   0.49366   0.04526   0.00000  Uiso   1.00
C288   C     0.15875   0.63016   0.03010   0.00000  Uiso   1.00
C289   C     0.21020   0.82065   0.99230   0.00000  Uiso   1.00
C290   C     0.04821   0.60980   0.14514   0.00000  Uiso   1.00
C291   C     0.97661   0.53398   0.13418   0.00000  Uiso   1.00
C292   C     0.90815   0.58796   0.14392   0.00000  Uiso   1.00
C293   C     0.84942   0.50203   0.13113   0.00000  Uiso   1.00
C294   C     0.09159   0.49293   0.16920   0.00000  Uiso   1.00
C295   C     0.11982   0.51241   0.20838   0.00000  Uiso   1.00
C296   C     0.15790   0.39194   0.22507   0.00000  Uiso   1.00
C297   C     0.08836   0.63216   0.10464   0.00000  Uiso   1.00
C298   C     0.11389   0.76869   0.08954   0.00000  Uiso   1.00
C299   C     0.14927   0.76542   0.05189   0.00000  Uiso   1.00
H300   H     0.07300   0.25610   0.08819   0.00000  Uiso   1.00
H301   H     0.93477   0.20844   0.08281   0.00000  Uiso   1.00
H302   H     0.14642   0.13292   0.14726   0.00000  Uiso   1.00
H303   H     0.14049   0.38915   0.02844   0.00000  Uiso   1.00
H304   H     0.77735   0.21512   0.08645   0.00000  Uiso   1.00
H305   H     0.22364   0.05588   0.22233   0.00000  Uiso   1.00
H306   H     0.21114   0.59621   0.97178   0.00000  Uiso   1.00
H307   H     0.04084   0.71493   0.16207   0.00000  Uiso   1.00
H308   H     0.90085   0.69245   0.16075   0.00000  Uiso   1.00
H309   H     0.11249   0.61691   0.22519   0.00000  Uiso   1.00
H310   H     0.10656   0.87315   0.10637   0.00000  Uiso   1.00
H311   H     0.74982   0.60795   0.14971   0.00000  Uiso   1.00
H312   H     0.19611   0.44872   0.28559   0.00000  Uiso   1.00
H313   H     0.18360   0.98904   0.03503   0.00000  Uiso   1.00
O314   O     0.67207   0.38844   0.11588   0.00000  Uiso   1.00
O315   O     0.25759   0.17954   0.29415   0.00000  Uiso   1.00
O316   O     0.24119   0.88843   0.96543   0.00000  Uiso   1.00
N317   N     0.79009   0.31067   0.10151   0.00000  Uiso   1.00
N318   N     0.20732   0.16179   0.22856   0.00000  Uiso   1.00
N319   N     0.19565   0.66694   0.99432   0.00000  Uiso   1.00
N320   N     0.77527   0.52205   0.13555   0.00000  Uiso   1.00
N321   N     0.19251   0.37317   0.26259   0.00000  Uiso   1.00
N322   N     0.18084   0.87832   0.02835   0.00000  Uiso   1.00
C323   C     0.43437   0.13878   0.60512   0.00000  Uiso   1.00
C324   C     0.51393   0.10104   0.61244   0.00000  Uiso   1.00
C325   C     0.57257   0.18707   0.59963   0.00000  Uiso   1.00
C326   C     0.64110   0.13324   0.60936   0.00000  Uiso   1.00
C327   C     0.76319   0.09522   0.61743   0.00000  Uiso   1.00
C328   C     0.39895   0.14209   0.64745   0.00000  Uiso   1.00
C329   C     0.36090   0.26262   0.66409   0.00000  Uiso   1.00
C330   C     0.33263   0.24332   0.70329   0.00000  Uiso   1.00
C331   C     0.27616   0.26899   0.76572   0.00000  Uiso   1.00
C332   C     0.40217   0.00287   0.58289   0.00000  Uiso   1.00
C333   C     0.36682   0.00634   0.54526   0.00000  Uiso   1.00
C334   C     0.34125   0.86984   0.53010   0.00000  Uiso   1.00
C335   C     0.28980   0.67935   0.49230   0.00000  Uiso   1.00
C336   C     0.45179   0.89020   0.64514   0.00000  Uiso   1.00
C337   C     0.52339   0.96602   0.63418   0.00000  Uiso   1.00
C338   C     0.59185   0.91204   0.64392   0.00000  Uiso   1.00
C339   C     0.65058   0.99797   0.63113   0.00000  Uiso   1.00
C340   C     0.40841   0.00707   0.66920   0.00000  Uiso   1.00
C341   C     0.38018   0.98759   0.70838   0.00000  Uiso   1.00
C342   C     0.34210   0.10806   0.72507   0.00000  Uiso   1.00
C343   C     0.41164   0.86784   0.60464   0.00000  Uiso   1.00
C344   C     0.38611   0.73131   0.58954   0.00000  Uiso   1.00
C345   C     0.35073   0.73458   0.55189   0.00000  Uiso   1.00
H346   H     0.42700   0.24390   0.58819   0.00000  Uiso   1.00
H347   H     0.56523   0.29156   0.58281   0.00000  Uiso   1.00
H348   H     0.35358   0.36708   0.64726   0.00000  Uiso   1.00
H349   H     0.35951   0.11085   0.52844   0.00000  Uiso   1.00
H350   H     0.72265   0.28488   0.58645   0.00000  Uiso   1.00
H351   H     0.27636   0.44412   0.72233   0.00000  Uiso   1.00
H352   H     0.28886   0.90379   0.47178   0.00000  Uiso   1.00
H353   H     0.45916   0.78507   0.66207   0.00000  Uiso   1.00
H354   H     0.59915   0.80755   0.66075   0.00000  Uiso   1.00
H355   H     0.38751   0.88309   0.72519   0.00000  Uiso   1.00
H356   H     0.39344   0.62685   0.60637   0.00000  Uiso   1.00
H357   H     0.75018   0.89205   0.64971   0.00000  Uiso   1.00
H358   H     0.30389   0.05128   0.78559   0.00000  Uiso   1.00
H359   H     0.31640   0.51096   0.53503   0.00000  Uiso   1.00
O360   O     0.82793   0.11156   0.61588   0.00000  Uiso   1.00
O361   O     0.24241   0.32046   0.79415   0.00000  Uiso   1.00
O362   O     0.25881   0.61157   0.46543   0.00000  Uiso   1.00
N363   N     0.70991   0.18933   0.60151   0.00000  Uiso   1.00
N364   N     0.29268   0.33821   0.72856   0.00000  Uiso   1.00
N365   N     0.30435   0.83306   0.49432   0.00000  Uiso   1.00
N366   N     0.72473   0.97795   0.63555   0.00000  Uiso   1.00
N367   N     0.30749   0.12683   0.76259   0.00000  Uiso   1.00
N368   N     0.31916   0.62168   0.52835   0.00000  Uiso   1.00
