data_job_01135
_audit_creation_date              2018-12-19
_audit_creation_method            'Materials Studio'
_symmetry_space_group_name_H-M    'P1'
_symmetry_Int_Tables_number       1
_symmetry_cell_setting            triclinic
loop_
_symmetry_equiv_pos_as_xyz
  x,y,z
_cell_length_a                    12.4121
_cell_length_b                    15.4257
_cell_length_c                    18.1695
_cell_angle_alpha                 90.0000
_cell_angle_beta                  121.3501
_cell_angle_gamma                 90.0000
loop_
_atom_site_label
_atom_site_type_symbol
_atom_site_fract_x
_atom_site_fract_y
_atom_site_fract_z
_atom_site_U_iso_or_equiv
_atom_site_adp_type
_atom_site_occupancy
C1     C     0.85110   0.62797   0.76117   0.00000  Uiso   1.00
C2     C     0.98294   0.59648   0.78768   0.00000  Uiso   1.00
C3     C     0.09545   0.63571   0.84806   0.00000  Uiso   1.00
C4     C     0.20613   0.59690   0.86323   0.00000  Uiso   1.00
C5     C     0.41113   0.55949   0.91101   0.00000  Uiso   1.00
C6     C     0.78106   0.64026   0.66371   0.00000  Uiso   1.00
C7     C     0.72383   0.71629   0.61986   0.00000  Uiso   1.00
C8     C     0.66455   0.71431   0.53067   0.00000  Uiso   1.00
C9     C     0.55605   0.74484   0.38598   0.00000  Uiso   1.00
C10    C     0.78688   0.55213   0.77700   0.00000  Uiso   1.00
C11    C     0.73451   0.55407   0.82837   0.00000  Uiso   1.00
C12    C     0.68011   0.47790   0.83454   0.00000  Uiso   1.00
C13    C     0.58065   0.37160   0.86575   0.00000  Uiso   1.00
C14    C     0.84757   0.48927   0.68076   0.00000  Uiso   1.00
C15    C     0.98101   0.52115   0.74400   0.00000  Uiso   1.00
C16    C     0.09155   0.48226   0.75909   0.00000  Uiso   1.00
C17    C     0.20421   0.52142   0.81948   0.00000  Uiso   1.00
C18    C     0.77914   0.56492   0.62003   0.00000  Uiso   1.00
C19    C     0.71992   0.56283   0.53089   0.00000  Uiso   1.00
C20    C     0.66262   0.63884   0.48691   0.00000  Uiso   1.00
C21    C     0.78496   0.47679   0.73332   0.00000  Uiso   1.00
C22    C     0.73061   0.40061   0.73941   0.00000  Uiso   1.00
C23    C     0.67818   0.40243   0.79079   0.00000  Uiso   1.00
H24    H     0.85259   0.68662   0.79517   0.00000  Uiso   1.00
H25    H     0.09690   0.69402   0.88184   0.00000  Uiso   1.00
H26    H     0.72532   0.77457   0.65367   0.00000  Uiso   1.00
H27    H     0.73602   0.61238   0.86216   0.00000  Uiso   1.00
H28    H     0.36692   0.66901   0.95865   0.00000  Uiso   1.00
H29    H     0.58339   0.83886   0.47754   0.00000  Uiso   1.00
H30    H     0.60593   0.49684   0.91718   0.00000  Uiso   1.00
H31    H     0.84607   0.43062   0.64675   0.00000  Uiso   1.00
H32    H     0.09003   0.42396   0.72528   0.00000  Uiso   1.00
H33    H     0.71845   0.50452   0.49711   0.00000  Uiso   1.00
H34    H     0.72915   0.34232   0.70560   0.00000  Uiso   1.00
H35    H     0.36134   0.44982   0.83157   0.00000  Uiso   1.00
H36    H     0.57780   0.61967   0.35047   0.00000  Uiso   1.00
H37    H     0.60036   0.27765   0.79010   0.00000  Uiso   1.00
O38    O     0.52473   0.55967   0.94943   0.00000  Uiso   1.00
O39    O     0.49675   0.78250   0.31824   0.00000  Uiso   1.00
O40    O     0.52634   0.33378   0.89503   0.00000  Uiso   1.00
N41    N     0.33213   0.61833   0.91798   0.00000  Uiso   1.00
N42    N     0.59959   0.77713   0.46817   0.00000  Uiso   1.00
N43    N     0.62063   0.45737   0.87918   0.00000  Uiso   1.00
N44    N     0.32913   0.50038   0.84960   0.00000  Uiso   1.00
N45    N     0.59659   0.65919   0.39980   0.00000  Uiso   1.00
N46    N     0.61764   0.33943   0.81080   0.00000  Uiso   1.00
C47    C     0.14890   0.12797   0.73883   0.00000  Uiso   1.00
C48    C     0.01706   0.09648   0.71232   0.00000  Uiso   1.00
C49    C     0.90455   0.13571   0.65194   0.00000  Uiso   1.00
C50    C     0.79387   0.09690   0.63677   0.00000  Uiso   1.00
C51    C     0.58887   0.05949   0.58899   0.00000  Uiso   1.00
C52    C     0.21894   0.14026   0.83629   0.00000  Uiso   1.00
C53    C     0.27617   0.21629   0.88014   0.00000  Uiso   1.00
C54    C     0.33545   0.21431   0.96933   0.00000  Uiso   1.00
C55    C     0.44395   0.24484   0.11402   0.00000  Uiso   1.00
C56    C     0.21312   0.05213   0.72300   0.00000  Uiso   1.00
C57    C     0.26549   0.05407   0.67163   0.00000  Uiso   1.00
C58    C     0.31989   0.97790   0.66546   0.00000  Uiso   1.00
C59    C     0.41935   0.87160   0.63425   0.00000  Uiso   1.00
C60    C     0.15243   0.98927   0.81924   0.00000  Uiso   1.00
C61    C     0.01899   0.02115   0.75600   0.00000  Uiso   1.00
C62    C     0.90845   0.98226   0.74091   0.00000  Uiso   1.00
C63    C     0.79579   0.02142   0.68052   0.00000  Uiso   1.00
C64    C     0.22086   0.06492   0.87997   0.00000  Uiso   1.00
C65    C     0.28008   0.06283   0.96911   0.00000  Uiso   1.00
C66    C     0.33738   0.13884   0.01309   0.00000  Uiso   1.00
C67    C     0.21504   0.97679   0.76668   0.00000  Uiso   1.00
C68    C     0.26939   0.90061   0.76059   0.00000  Uiso   1.00
C69    C     0.32182   0.90243   0.70921   0.00000  Uiso   1.00
H70    H     0.14741   0.18662   0.70483   0.00000  Uiso   1.00
H71    H     0.90310   0.19402   0.61816   0.00000  Uiso   1.00
H72    H     0.27468   0.27457   0.84633   0.00000  Uiso   1.00
H73    H     0.26398   0.11238   0.63784   0.00000  Uiso   1.00
H74    H     0.63308   0.16901   0.54135   0.00000  Uiso   1.00
H75    H     0.41661   0.33886   0.02246   0.00000  Uiso   1.00
H76    H     0.39407   0.99684   0.58282   0.00000  Uiso   1.00
H77    H     0.15393   0.93062   0.85325   0.00000  Uiso   1.00
H78    H     0.90997   0.92396   0.77472   0.00000  Uiso   1.00
H79    H     0.28155   0.00452   0.00289   0.00000  Uiso   1.00
H80    H     0.27085   0.84232   0.79440   0.00000  Uiso   1.00
H81    H     0.63866   0.94982   0.66843   0.00000  Uiso   1.00
H82    H     0.42220   0.11967   0.14953   0.00000  Uiso   1.00
H83    H     0.39964   0.77765   0.70990   0.00000  Uiso   1.00
O84    O     0.47527   0.05967   0.55057   0.00000  Uiso   1.00
O85    O     0.50325   0.28250   0.18176   0.00000  Uiso   1.00
O86    O     0.47366   0.83378   0.60497   0.00000  Uiso   1.00
N87    N     0.66787   0.11833   0.58202   0.00000  Uiso   1.00
N88    N     0.40041   0.27713   0.03183   0.00000  Uiso   1.00
N89    N     0.37937   0.95737   0.62082   0.00000  Uiso   1.00
N90    N     0.67087   0.00038   0.65040   0.00000  Uiso   1.00
N91    N     0.40341   0.15919   0.10020   0.00000  Uiso   1.00
N92    N     0.38236   0.83943   0.68920   0.00000  Uiso   1.00
C93    C     0.14890   0.37203   0.23883   0.00000  Uiso   1.00
C94    C     0.01706   0.40352   0.21232   0.00000  Uiso   1.00
C95    C     0.90455   0.36429   0.15194   0.00000  Uiso   1.00
C96    C     0.79387   0.40310   0.13677   0.00000  Uiso   1.00
C97    C     0.58887   0.44051   0.08899   0.00000  Uiso   1.00
C98    C     0.21894   0.35974   0.33629   0.00000  Uiso   1.00
C99    C     0.27617   0.28371   0.38014   0.00000  Uiso   1.00
C100   C     0.33545   0.28569   0.46933   0.00000  Uiso   1.00
C101   C     0.44395   0.25516   0.61402   0.00000  Uiso   1.00
C102   C     0.21312   0.44787   0.22300   0.00000  Uiso   1.00
C103   C     0.26549   0.44593   0.17163   0.00000  Uiso   1.00
C104   C     0.31989   0.52210   0.16546   0.00000  Uiso   1.00
C105   C     0.41935   0.62840   0.13425   0.00000  Uiso   1.00
C106   C     0.15243   0.51073   0.31924   0.00000  Uiso   1.00
C107   C     0.01899   0.47885   0.25600   0.00000  Uiso   1.00
C108   C     0.90845   0.51774   0.24091   0.00000  Uiso   1.00
C109   C     0.79579   0.47858   0.18052   0.00000  Uiso   1.00
C110   C     0.22086   0.43508   0.37997   0.00000  Uiso   1.00
C111   C     0.28008   0.43717   0.46911   0.00000  Uiso   1.00
C112   C     0.33738   0.36116   0.51309   0.00000  Uiso   1.00
C113   C     0.21504   0.52321   0.26668   0.00000  Uiso   1.00
C114   C     0.26939   0.59939   0.26059   0.00000  Uiso   1.00
C115   C     0.32182   0.59757   0.20921   0.00000  Uiso   1.00
H116   H     0.14741   0.31338   0.20483   0.00000  Uiso   1.00
H117   H     0.90310   0.30598   0.11816   0.00000  Uiso   1.00
H118   H     0.27468   0.22543   0.34633   0.00000  Uiso   1.00
H119   H     0.26398   0.38762   0.13784   0.00000  Uiso   1.00
H120   H     0.63308   0.33099   0.04135   0.00000  Uiso   1.00
H121   H     0.41661   0.16114   0.52246   0.00000  Uiso   1.00
H122   H     0.39407   0.50316   0.08282   0.00000  Uiso   1.00
H123   H     0.15393   0.56938   0.35325   0.00000  Uiso   1.00
H124   H     0.90997   0.57604   0.27472   0.00000  Uiso   1.00
H125   H     0.28155   0.49548   0.50289   0.00000  Uiso   1.00
H126   H     0.27085   0.65768   0.29440   0.00000  Uiso   1.00
H127   H     0.63866   0.55018   0.16843   0.00000  Uiso   1.00
H128   H     0.42220   0.38033   0.64953   0.00000  Uiso   1.00
H129   H     0.39964   0.72235   0.20990   0.00000  Uiso   1.00
O130   O     0.47527   0.44033   0.05057   0.00000  Uiso   1.00
O131   O     0.50325   0.21750   0.68176   0.00000  Uiso   1.00
O132   O     0.47366   0.66622   0.10497   0.00000  Uiso   1.00
N133   N     0.66787   0.38167   0.08202   0.00000  Uiso   1.00
N134   N     0.40041   0.22287   0.53183   0.00000  Uiso   1.00
N135   N     0.37937   0.54263   0.12082   0.00000  Uiso   1.00
N136   N     0.67087   0.49962   0.15040   0.00000  Uiso   1.00
N137   N     0.40341   0.34081   0.60020   0.00000  Uiso   1.00
N138   N     0.38236   0.66057   0.18920   0.00000  Uiso   1.00
C139   C     0.85110   0.87203   0.26117   0.00000  Uiso   1.00
C140   C     0.98294   0.90352   0.28768   0.00000  Uiso   1.00
C141   C     0.09545   0.86429   0.34806   0.00000  Uiso   1.00
C142   C     0.20613   0.90310   0.36323   0.00000  Uiso   1.00
C143   C     0.41113   0.94051   0.41101   0.00000  Uiso   1.00
C144   C     0.78106   0.85974   0.16371   0.00000  Uiso   1.00
C145   C     0.72383   0.78371   0.11986   0.00000  Uiso   1.00
C146   C     0.66455   0.78569   0.03067   0.00000  Uiso   1.00
C147   C     0.55605   0.75516   0.88598   0.00000  Uiso   1.00
C148   C     0.78688   0.94787   0.27700   0.00000  Uiso   1.00
C149   C     0.73451   0.94593   0.32837   0.00000  Uiso   1.00
C150   C     0.68011   0.02210   0.33454   0.00000  Uiso   1.00
C151   C     0.58065   0.12840   0.36575   0.00000  Uiso   1.00
C152   C     0.84757   0.01073   0.18076   0.00000  Uiso   1.00
C153   C     0.98101   0.97885   0.24400   0.00000  Uiso   1.00
C154   C     0.09155   0.01774   0.25909   0.00000  Uiso   1.00
C155   C     0.20421   0.97858   0.31948   0.00000  Uiso   1.00
C156   C     0.77914   0.93508   0.12003   0.00000  Uiso   1.00
C157   C     0.71992   0.93717   0.03089   0.00000  Uiso   1.00
C158   C     0.66262   0.86116   0.98691   0.00000  Uiso   1.00
C159   C     0.78496   0.02321   0.23332   0.00000  Uiso   1.00
C160   C     0.73061   0.09939   0.23941   0.00000  Uiso   1.00
C161   C     0.67818   0.09757   0.29079   0.00000  Uiso   1.00
H162   H     0.85259   0.81338   0.29517   0.00000  Uiso   1.00
H163   H     0.09690   0.80598   0.38184   0.00000  Uiso   1.00
H164   H     0.72532   0.72543   0.15367   0.00000  Uiso   1.00
H165   H     0.73602   0.88762   0.36216   0.00000  Uiso   1.00
H166   H     0.36692   0.83099   0.45865   0.00000  Uiso   1.00
H167   H     0.58339   0.66114   0.97754   0.00000  Uiso   1.00
H168   H     0.60593   0.00316   0.41718   0.00000  Uiso   1.00
H169   H     0.84607   0.06938   0.14675   0.00000  Uiso   1.00
H170   H     0.09003   0.07604   0.22528   0.00000  Uiso   1.00
H171   H     0.71845   0.99548   0.99711   0.00000  Uiso   1.00
H172   H     0.72915   0.15768   0.20560   0.00000  Uiso   1.00
H173   H     0.36134   0.05018   0.33157   0.00000  Uiso   1.00
H174   H     0.57780   0.88033   0.85047   0.00000  Uiso   1.00
H175   H     0.60036   0.22235   0.29010   0.00000  Uiso   1.00
O176   O     0.52473   0.94033   0.44943   0.00000  Uiso   1.00
O177   O     0.49675   0.71750   0.81824   0.00000  Uiso   1.00
O178   O     0.52634   0.16622   0.39503   0.00000  Uiso   1.00
N179   N     0.33213   0.88167   0.41798   0.00000  Uiso   1.00
N180   N     0.59959   0.72287   0.96817   0.00000  Uiso   1.00
N181   N     0.62063   0.04263   0.37918   0.00000  Uiso   1.00
N182   N     0.32913   0.99962   0.34960   0.00000  Uiso   1.00
N183   N     0.59659   0.84081   0.89980   0.00000  Uiso   1.00
N184   N     0.61764   0.16057   0.31080   0.00000  Uiso   1.00
