data_job_03579
_audit_creation_date              2018-12-19
_audit_creation_method            'Materials Studio'
_symmetry_space_group_name_H-M    'P1'
_symmetry_Int_Tables_number       1
_symmetry_cell_setting            triclinic
loop_
_symmetry_equiv_pos_as_xyz
  x,y,z
_cell_length_a                    17.3329
_cell_length_b                    18.8365
_cell_length_c                    15.7524
_cell_angle_alpha                 90.0000
_cell_angle_beta                  90.0000
_cell_angle_gamma                 90.0000
loop_
_atom_site_label
_atom_site_type_symbol
_atom_site_fract_x
_atom_site_fract_y
_atom_site_fract_z
_atom_site_U_iso_or_equiv
_atom_site_adp_type
_atom_site_occupancy
C1     C     0.99133   0.15286   0.17239   0.00000  Uiso   1.00
C2     C     0.96388   0.22245   0.13321   0.00000  Uiso   1.00
C3     C     0.92099   0.22906   0.05924   0.00000  Uiso   1.00
C4     C     0.90161   0.29737   0.03393   0.00000  Uiso   1.00
C5     C     0.85557   0.39637   0.96591   0.00000  Uiso   1.00
C6     C     0.07873   0.15921   0.18044   0.00000  Uiso   1.00
C7     C     0.13240   0.11263   0.14620   0.00000  Uiso   1.00
C8     C     0.20970   0.12771   0.16066   0.00000  Uiso   1.00
C9     C     0.34196   0.12849   0.16603   0.00000  Uiso   1.00
C10    C     0.96005   0.15202   0.26287   0.00000  Uiso   1.00
C11    C     0.91396   0.09940   0.29793   0.00000  Uiso   1.00
C12    C     0.89136   0.10841   0.38181   0.00000  Uiso   1.00
C13    C     0.83936   0.09804   0.51514   0.00000  Uiso   1.00
C14    C     0.03318   0.26244   0.25900   0.00000  Uiso   1.00
C15    C     0.98661   0.28197   0.18025   0.00000  Uiso   1.00
C16    C     0.96729   0.35029   0.15506   0.00000  Uiso   1.00
C17    C     0.92438   0.35700   0.08106   0.00000  Uiso   1.00
C18    C     0.10146   0.21872   0.22748   0.00000  Uiso   1.00
C19    C     0.17870   0.23387   0.24201   0.00000  Uiso   1.00
C20    C     0.23247   0.18733   0.20779   0.00000  Uiso   1.00
C21    C     0.98278   0.21154   0.30991   0.00000  Uiso   1.00
C22    C     0.96026   0.22064   0.39375   0.00000  Uiso   1.00
C23    C     0.91413   0.16804   0.42893   0.00000  Uiso   1.00
H24    H     0.97363   0.10652   0.13577   0.00000  Uiso   1.00
H25    H     0.90342   0.18298   0.02285   0.00000  Uiso   1.00
H26    H     0.11479   0.06657   0.10980   0.00000  Uiso   1.00
H27    H     0.89638   0.05335   0.26151   0.00000  Uiso   1.00
H28    H     0.83562   0.29400   0.91838   0.00000  Uiso   1.00
H29    H     0.28131   0.04853   0.10175   0.00000  Uiso   1.00
H30    H     0.82075   0.02063   0.42166   0.00000  Uiso   1.00
H31    H     0.05087   0.30878   0.29562   0.00000  Uiso   1.00
H32    H     0.98489   0.39634   0.19147   0.00000  Uiso   1.00
H33    H     0.19627   0.27993   0.27842   0.00000  Uiso   1.00
H34    H     0.97786   0.26670   0.43013   0.00000  Uiso   1.00
H35    H     0.90175   0.46717   0.05524   0.00000  Uiso   1.00
H36    H     0.34744   0.22170   0.23861   0.00000  Uiso   1.00
H37    H     0.88688   0.19380   0.55852   0.00000  Uiso   1.00
O38    O     0.82391   0.43454   0.91539   0.00000  Uiso   1.00
O39    O     0.40863   0.11248   0.15599   0.00000  Uiso   1.00
O40    O     0.80439   0.07589   0.57569   0.00000  Uiso   1.00
N41    N     0.86022   0.32274   0.96489   0.00000  Uiso   1.00
N42    N     0.27692   0.09325   0.13632   0.00000  Uiso   1.00
N43    N     0.84635   0.06716   0.43542   0.00000  Uiso   1.00
N44    N     0.89581   0.41592   0.03853   0.00000  Uiso   1.00
N45    N     0.31250   0.18643   0.20996   0.00000  Uiso   1.00
N46    N     0.88194   0.16034   0.50906   0.00000  Uiso   1.00
C47    C     0.49133   0.65286   0.67239   0.00000  Uiso   1.00
C48    C     0.46388   0.72245   0.63321   0.00000  Uiso   1.00
C49    C     0.42099   0.72906   0.55924   0.00000  Uiso   1.00
C50    C     0.40161   0.79737   0.53393   0.00000  Uiso   1.00
C51    C     0.35557   0.89637   0.46591   0.00000  Uiso   1.00
C52    C     0.57873   0.65921   0.68044   0.00000  Uiso   1.00
C53    C     0.63240   0.61263   0.64620   0.00000  Uiso   1.00
C54    C     0.70970   0.62771   0.66066   0.00000  Uiso   1.00
C55    C     0.84196   0.62849   0.66603   0.00000  Uiso   1.00
C56    C     0.46005   0.65202   0.76287   0.00000  Uiso   1.00
C57    C     0.41396   0.59940   0.79793   0.00000  Uiso   1.00
C58    C     0.39136   0.60841   0.88181   0.00000  Uiso   1.00
C59    C     0.33936   0.59804   0.01514   0.00000  Uiso   1.00
C60    C     0.53318   0.76244   0.75900   0.00000  Uiso   1.00
C61    C     0.48661   0.78197   0.68025   0.00000  Uiso   1.00
C62    C     0.46729   0.85029   0.65506   0.00000  Uiso   1.00
C63    C     0.42438   0.85700   0.58106   0.00000  Uiso   1.00
C64    C     0.60146   0.71872   0.72748   0.00000  Uiso   1.00
C65    C     0.67870   0.73387   0.74201   0.00000  Uiso   1.00
C66    C     0.73247   0.68733   0.70779   0.00000  Uiso   1.00
C67    C     0.48278   0.71154   0.80991   0.00000  Uiso   1.00
C68    C     0.46026   0.72064   0.89375   0.00000  Uiso   1.00
C69    C     0.41413   0.66804   0.92893   0.00000  Uiso   1.00
H70    H     0.47363   0.60652   0.63577   0.00000  Uiso   1.00
H71    H     0.40342   0.68298   0.52285   0.00000  Uiso   1.00
H72    H     0.61479   0.56657   0.60980   0.00000  Uiso   1.00
H73    H     0.39638   0.55335   0.76151   0.00000  Uiso   1.00
H74    H     0.33562   0.79400   0.41838   0.00000  Uiso   1.00
H75    H     0.78131   0.54853   0.60175   0.00000  Uiso   1.00
H76    H     0.32075   0.52063   0.92166   0.00000  Uiso   1.00
H77    H     0.55087   0.80878   0.79562   0.00000  Uiso   1.00
H78    H     0.48489   0.89634   0.69147   0.00000  Uiso   1.00
H79    H     0.69627   0.77993   0.77842   0.00000  Uiso   1.00
H80    H     0.47786   0.76670   0.93013   0.00000  Uiso   1.00
H81    H     0.40175   0.96717   0.55524   0.00000  Uiso   1.00
H82    H     0.84744   0.72170   0.73861   0.00000  Uiso   1.00
H83    H     0.38688   0.69380   0.05852   0.00000  Uiso   1.00
O84    O     0.32391   0.93454   0.41539   0.00000  Uiso   1.00
O85    O     0.90863   0.61248   0.65599   0.00000  Uiso   1.00
O86    O     0.30439   0.57589   0.07569   0.00000  Uiso   1.00
N87    N     0.36022   0.82274   0.46489   0.00000  Uiso   1.00
N88    N     0.77692   0.59325   0.63632   0.00000  Uiso   1.00
N89    N     0.34635   0.56716   0.93542   0.00000  Uiso   1.00
N90    N     0.39581   0.91592   0.53853   0.00000  Uiso   1.00
N91    N     0.81250   0.68643   0.70996   0.00000  Uiso   1.00
N92    N     0.38194   0.66034   0.00906   0.00000  Uiso   1.00
C93    C     0.00867   0.84714   0.17239   0.00000  Uiso   1.00
C94    C     0.03612   0.77755   0.13321   0.00000  Uiso   1.00
C95    C     0.07901   0.77094   0.05924   0.00000  Uiso   1.00
C96    C     0.09839   0.70263   0.03393   0.00000  Uiso   1.00
C97    C     0.14443   0.60363   0.96591   0.00000  Uiso   1.00
C98    C     0.92127   0.84079   0.18044   0.00000  Uiso   1.00
C99    C     0.86760   0.88737   0.14620   0.00000  Uiso   1.00
C100   C     0.79030   0.87229   0.16066   0.00000  Uiso   1.00
C101   C     0.65804   0.87151   0.16603   0.00000  Uiso   1.00
C102   C     0.03995   0.84798   0.26287   0.00000  Uiso   1.00
C103   C     0.08604   0.90060   0.29793   0.00000  Uiso   1.00
C104   C     0.10864   0.89159   0.38181   0.00000  Uiso   1.00
C105   C     0.16064   0.90196   0.51514   0.00000  Uiso   1.00
C106   C     0.96682   0.73756   0.25900   0.00000  Uiso   1.00
C107   C     0.01339   0.71803   0.18025   0.00000  Uiso   1.00
C108   C     0.03271   0.64971   0.15506   0.00000  Uiso   1.00
C109   C     0.07562   0.64300   0.08106   0.00000  Uiso   1.00
C110   C     0.89854   0.78128   0.22748   0.00000  Uiso   1.00
C111   C     0.82130   0.76613   0.24201   0.00000  Uiso   1.00
C112   C     0.76753   0.81267   0.20779   0.00000  Uiso   1.00
C113   C     0.01722   0.78846   0.30991   0.00000  Uiso   1.00
C114   C     0.03974   0.77936   0.39375   0.00000  Uiso   1.00
C115   C     0.08587   0.83196   0.42893   0.00000  Uiso   1.00
H116   H     0.02637   0.89348   0.13577   0.00000  Uiso   1.00
H117   H     0.09658   0.81702   0.02285   0.00000  Uiso   1.00
H118   H     0.88521   0.93343   0.10980   0.00000  Uiso   1.00
H119   H     0.10362   0.94665   0.26151   0.00000  Uiso   1.00
H120   H     0.16438   0.70600   0.91838   0.00000  Uiso   1.00
H121   H     0.71869   0.95147   0.10175   0.00000  Uiso   1.00
H122   H     0.17925   0.97937   0.42166   0.00000  Uiso   1.00
H123   H     0.94913   0.69122   0.29562   0.00000  Uiso   1.00
H124   H     0.01511   0.60366   0.19147   0.00000  Uiso   1.00
H125   H     0.80373   0.72007   0.27842   0.00000  Uiso   1.00
H126   H     0.02214   0.73330   0.43013   0.00000  Uiso   1.00
H127   H     0.09825   0.53283   0.05524   0.00000  Uiso   1.00
H128   H     0.65256   0.77830   0.23861   0.00000  Uiso   1.00
H129   H     0.11312   0.80620   0.55852   0.00000  Uiso   1.00
O130   O     0.17609   0.56546   0.91539   0.00000  Uiso   1.00
O131   O     0.59137   0.88752   0.15599   0.00000  Uiso   1.00
O132   O     0.19561   0.92411   0.57569   0.00000  Uiso   1.00
N133   N     0.13978   0.67726   0.96489   0.00000  Uiso   1.00
N134   N     0.72308   0.90675   0.13632   0.00000  Uiso   1.00
N135   N     0.15365   0.93284   0.43542   0.00000  Uiso   1.00
N136   N     0.10419   0.58408   0.03853   0.00000  Uiso   1.00
N137   N     0.68750   0.81357   0.20996   0.00000  Uiso   1.00
N138   N     0.11806   0.83966   0.50906   0.00000  Uiso   1.00
C139   C     0.50867   0.34714   0.67239   0.00000  Uiso   1.00
C140   C     0.53612   0.27755   0.63321   0.00000  Uiso   1.00
C141   C     0.57901   0.27094   0.55924   0.00000  Uiso   1.00
C142   C     0.59839   0.20263   0.53393   0.00000  Uiso   1.00
C143   C     0.64443   0.10363   0.46591   0.00000  Uiso   1.00
C144   C     0.42127   0.34079   0.68044   0.00000  Uiso   1.00
C145   C     0.36760   0.38737   0.64620   0.00000  Uiso   1.00
C146   C     0.29030   0.37229   0.66066   0.00000  Uiso   1.00
C147   C     0.15804   0.37151   0.66603   0.00000  Uiso   1.00
C148   C     0.53995   0.34798   0.76287   0.00000  Uiso   1.00
C149   C     0.58604   0.40060   0.79793   0.00000  Uiso   1.00
C150   C     0.60864   0.39159   0.88181   0.00000  Uiso   1.00
C151   C     0.66064   0.40196   0.01514   0.00000  Uiso   1.00
C152   C     0.46682   0.23756   0.75900   0.00000  Uiso   1.00
C153   C     0.51339   0.21803   0.68025   0.00000  Uiso   1.00
C154   C     0.53271   0.14971   0.65506   0.00000  Uiso   1.00
C155   C     0.57562   0.14300   0.58106   0.00000  Uiso   1.00
C156   C     0.39854   0.28128   0.72748   0.00000  Uiso   1.00
C157   C     0.32130   0.26613   0.74201   0.00000  Uiso   1.00
C158   C     0.26753   0.31267   0.70779   0.00000  Uiso   1.00
C159   C     0.51722   0.28846   0.80991   0.00000  Uiso   1.00
C160   C     0.53974   0.27936   0.89375   0.00000  Uiso   1.00
C161   C     0.58587   0.33196   0.92893   0.00000  Uiso   1.00
H162   H     0.52637   0.39348   0.63577   0.00000  Uiso   1.00
H163   H     0.59658   0.31702   0.52285   0.00000  Uiso   1.00
H164   H     0.38521   0.43343   0.60980   0.00000  Uiso   1.00
H165   H     0.60362   0.44665   0.76151   0.00000  Uiso   1.00
H166   H     0.66438   0.20600   0.41838   0.00000  Uiso   1.00
H167   H     0.21869   0.45147   0.60175   0.00000  Uiso   1.00
H168   H     0.67925   0.47937   0.92166   0.00000  Uiso   1.00
H169   H     0.44913   0.19122   0.79562   0.00000  Uiso   1.00
H170   H     0.51511   0.10366   0.69147   0.00000  Uiso   1.00
H171   H     0.30373   0.22007   0.77842   0.00000  Uiso   1.00
H172   H     0.52214   0.23330   0.93013   0.00000  Uiso   1.00
H173   H     0.59825   0.03283   0.55524   0.00000  Uiso   1.00
H174   H     0.15256   0.27830   0.73861   0.00000  Uiso   1.00
H175   H     0.61312   0.30620   0.05852   0.00000  Uiso   1.00
O176   O     0.67609   0.06546   0.41539   0.00000  Uiso   1.00
O177   O     0.09137   0.38752   0.65599   0.00000  Uiso   1.00
O178   O     0.69561   0.42411   0.07569   0.00000  Uiso   1.00
N179   N     0.63978   0.17726   0.46489   0.00000  Uiso   1.00
N180   N     0.22308   0.40675   0.63632   0.00000  Uiso   1.00
N181   N     0.65365   0.43284   0.93542   0.00000  Uiso   1.00
N182   N     0.60419   0.08408   0.53853   0.00000  Uiso   1.00
N183   N     0.18750   0.31357   0.70996   0.00000  Uiso   1.00
N184   N     0.61806   0.33966   0.00906   0.00000  Uiso   1.00
C185   C     0.00867   0.15286   0.82761   0.00000  Uiso   1.00
C186   C     0.03612   0.22245   0.86679   0.00000  Uiso   1.00
C187   C     0.07901   0.22906   0.94076   0.00000  Uiso   1.00
C188   C     0.09839   0.29737   0.96607   0.00000  Uiso   1.00
C189   C     0.14443   0.39637   0.03409   0.00000  Uiso   1.00
C190   C     0.92127   0.15921   0.81956   0.00000  Uiso   1.00
C191   C     0.86760   0.11263   0.85380   0.00000  Uiso   1.00
C192   C     0.79030   0.12771   0.83934   0.00000  Uiso   1.00
C193   C     0.65804   0.12849   0.83397   0.00000  Uiso   1.00
C194   C     0.03995   0.15202   0.73713   0.00000  Uiso   1.00
C195   C     0.08604   0.09940   0.70207   0.00000  Uiso   1.00
C196   C     0.10864   0.10841   0.61819   0.00000  Uiso   1.00
C197   C     0.16064   0.09804   0.48486   0.00000  Uiso   1.00
C198   C     0.96682   0.26244   0.74100   0.00000  Uiso   1.00
C199   C     0.01339   0.28197   0.81975   0.00000  Uiso   1.00
C200   C     0.03271   0.35029   0.84494   0.00000  Uiso   1.00
C201   C     0.07562   0.35700   0.91894   0.00000  Uiso   1.00
C202   C     0.89854   0.21872   0.77252   0.00000  Uiso   1.00
C203   C     0.82130   0.23387   0.75799   0.00000  Uiso   1.00
C204   C     0.76753   0.18733   0.79221   0.00000  Uiso   1.00
C205   C     0.01722   0.21154   0.69009   0.00000  Uiso   1.00
C206   C     0.03974   0.22064   0.60625   0.00000  Uiso   1.00
C207   C     0.08587   0.16804   0.57107   0.00000  Uiso   1.00
H208   H     0.02637   0.10652   0.86423   0.00000  Uiso   1.00
H209   H     0.09658   0.18298   0.97715   0.00000  Uiso   1.00
H210   H     0.88521   0.06657   0.89020   0.00000  Uiso   1.00
H211   H     0.10362   0.05335   0.73849   0.00000  Uiso   1.00
H212   H     0.16438   0.29400   0.08162   0.00000  Uiso   1.00
H213   H     0.71869   0.04853   0.89825   0.00000  Uiso   1.00
H214   H     0.17925   0.02063   0.57834   0.00000  Uiso   1.00
H215   H     0.94913   0.30878   0.70438   0.00000  Uiso   1.00
H216   H     0.01511   0.39634   0.80853   0.00000  Uiso   1.00
H217   H     0.80373   0.27993   0.72158   0.00000  Uiso   1.00
H218   H     0.02214   0.26670   0.56987   0.00000  Uiso   1.00
H219   H     0.09825   0.46717   0.94476   0.00000  Uiso   1.00
H220   H     0.65256   0.22170   0.76139   0.00000  Uiso   1.00
H221   H     0.11312   0.19380   0.44148   0.00000  Uiso   1.00
O222   O     0.17609   0.43454   0.08461   0.00000  Uiso   1.00
O223   O     0.59137   0.11248   0.84401   0.00000  Uiso   1.00
O224   O     0.19561   0.07589   0.42431   0.00000  Uiso   1.00
N225   N     0.13978   0.32274   0.03511   0.00000  Uiso   1.00
N226   N     0.72308   0.09325   0.86368   0.00000  Uiso   1.00
N227   N     0.15365   0.06716   0.56458   0.00000  Uiso   1.00
N228   N     0.10419   0.41592   0.96147   0.00000  Uiso   1.00
N229   N     0.68750   0.18643   0.79004   0.00000  Uiso   1.00
N230   N     0.11806   0.16034   0.49094   0.00000  Uiso   1.00
C231   C     0.50867   0.65286   0.32761   0.00000  Uiso   1.00
C232   C     0.53612   0.72245   0.36679   0.00000  Uiso   1.00
C233   C     0.57901   0.72906   0.44076   0.00000  Uiso   1.00
C234   C     0.59839   0.79737   0.46607   0.00000  Uiso   1.00
C235   C     0.64443   0.89637   0.53409   0.00000  Uiso   1.00
C236   C     0.42127   0.65921   0.31956   0.00000  Uiso   1.00
C237   C     0.36760   0.61263   0.35380   0.00000  Uiso   1.00
C238   C     0.29030   0.62771   0.33934   0.00000  Uiso   1.00
C239   C     0.15804   0.62849   0.33397   0.00000  Uiso   1.00
C240   C     0.53995   0.65202   0.23713   0.00000  Uiso   1.00
C241   C     0.58604   0.59940   0.20207   0.00000  Uiso   1.00
C242   C     0.60864   0.60841   0.11819   0.00000  Uiso   1.00
C243   C     0.66064   0.59804   0.98486   0.00000  Uiso   1.00
C244   C     0.46682   0.76244   0.24100   0.00000  Uiso   1.00
C245   C     0.51339   0.78197   0.31975   0.00000  Uiso   1.00
C246   C     0.53271   0.85029   0.34494   0.00000  Uiso   1.00
C247   C     0.57562   0.85700   0.41894   0.00000  Uiso   1.00
C248   C     0.39854   0.71872   0.27252   0.00000  Uiso   1.00
C249   C     0.32130   0.73387   0.25799   0.00000  Uiso   1.00
C250   C     0.26753   0.68733   0.29221   0.00000  Uiso   1.00
C251   C     0.51722   0.71154   0.19009   0.00000  Uiso   1.00
C252   C     0.53974   0.72064   0.10625   0.00000  Uiso   1.00
C253   C     0.58587   0.66804   0.07107   0.00000  Uiso   1.00
H254   H     0.52637   0.60652   0.36423   0.00000  Uiso   1.00
H255   H     0.59658   0.68298   0.47715   0.00000  Uiso   1.00
H256   H     0.38521   0.56657   0.39020   0.00000  Uiso   1.00
H257   H     0.60362   0.55335   0.23849   0.00000  Uiso   1.00
H258   H     0.66438   0.79400   0.58162   0.00000  Uiso   1.00
H259   H     0.21869   0.54853   0.39825   0.00000  Uiso   1.00
H260   H     0.67925   0.52063   0.07834   0.00000  Uiso   1.00
H261   H     0.44913   0.80878   0.20438   0.00000  Uiso   1.00
H262   H     0.51511   0.89634   0.30853   0.00000  Uiso   1.00
H263   H     0.30373   0.77993   0.22158   0.00000  Uiso   1.00
H264   H     0.52214   0.76670   0.06987   0.00000  Uiso   1.00
H265   H     0.59825   0.96717   0.44476   0.00000  Uiso   1.00
H266   H     0.15256   0.72170   0.26139   0.00000  Uiso   1.00
H267   H     0.61312   0.69380   0.94148   0.00000  Uiso   1.00
O268   O     0.67609   0.93454   0.58461   0.00000  Uiso   1.00
O269   O     0.09137   0.61248   0.34401   0.00000  Uiso   1.00
O270   O     0.69561   0.57589   0.92431   0.00000  Uiso   1.00
N271   N     0.63978   0.82274   0.53511   0.00000  Uiso   1.00
N272   N     0.22308   0.59325   0.36368   0.00000  Uiso   1.00
N273   N     0.65365   0.56716   0.06458   0.00000  Uiso   1.00
N274   N     0.60419   0.91592   0.46147   0.00000  Uiso   1.00
N275   N     0.18750   0.68643   0.29004   0.00000  Uiso   1.00
N276   N     0.61806   0.66034   0.99094   0.00000  Uiso   1.00
C277   C     0.99133   0.84714   0.82761   0.00000  Uiso   1.00
C278   C     0.96388   0.77755   0.86679   0.00000  Uiso   1.00
C279   C     0.92099   0.77094   0.94076   0.00000  Uiso   1.00
C280   C     0.90161   0.70263   0.96607   0.00000  Uiso   1.00
C281   C     0.85557   0.60363   0.03409   0.00000  Uiso   1.00
C282   C     0.07873   0.84079   0.81956   0.00000  Uiso   1.00
C283   C     0.13240   0.88737   0.85380   0.00000  Uiso   1.00
C284   C     0.20970   0.87229   0.83934   0.00000  Uiso   1.00
C285   C     0.34196   0.87151   0.83397   0.00000  Uiso   1.00
C286   C     0.96005   0.84798   0.73713   0.00000  Uiso   1.00
C287   C     0.91396   0.90060   0.70207   0.00000  Uiso   1.00
C288   C     0.89136   0.89159   0.61819   0.00000  Uiso   1.00
C289   C     0.83936   0.90196   0.48486   0.00000  Uiso   1.00
C290   C     0.03318   0.73756   0.74100   0.00000  Uiso   1.00
C291   C     0.98661   0.71803   0.81975   0.00000  Uiso   1.00
C292   C     0.96729   0.64971   0.84494   0.00000  Uiso   1.00
C293   C     0.92438   0.64300   0.91894   0.00000  Uiso   1.00
C294   C     0.10146   0.78128   0.77252   0.00000  Uiso   1.00
C295   C     0.17870   0.76613   0.75799   0.00000  Uiso   1.00
C296   C     0.23247   0.81267   0.79221   0.00000  Uiso   1.00
C297   C     0.98278   0.78846   0.69009   0.00000  Uiso   1.00
C298   C     0.96026   0.77936   0.60625   0.00000  Uiso   1.00
C299   C     0.91413   0.83196   0.57107   0.00000  Uiso   1.00
H300   H     0.97363   0.89348   0.86423   0.00000  Uiso   1.00
H301   H     0.90342   0.81702   0.97715   0.00000  Uiso   1.00
H302   H     0.11479   0.93343   0.89020   0.00000  Uiso   1.00
H303   H     0.89638   0.94665   0.73849   0.00000  Uiso   1.00
H304   H     0.83562   0.70600   0.08162   0.00000  Uiso   1.00
H305   H     0.28131   0.95147   0.89825   0.00000  Uiso   1.00
H306   H     0.82075   0.97937   0.57834   0.00000  Uiso   1.00
H307   H     0.05087   0.69122   0.70438   0.00000  Uiso   1.00
H308   H     0.98489   0.60366   0.80853   0.00000  Uiso   1.00
H309   H     0.19627   0.72007   0.72158   0.00000  Uiso   1.00
H310   H     0.97786   0.73330   0.56987   0.00000  Uiso   1.00
H311   H     0.90175   0.53283   0.94476   0.00000  Uiso   1.00
H312   H     0.34744   0.77830   0.76139   0.00000  Uiso   1.00
H313   H     0.88688   0.80620   0.44148   0.00000  Uiso   1.00
O314   O     0.82391   0.56546   0.08461   0.00000  Uiso   1.00
O315   O     0.40863   0.88752   0.84401   0.00000  Uiso   1.00
O316   O     0.80439   0.92411   0.42431   0.00000  Uiso   1.00
N317   N     0.86022   0.67726   0.03511   0.00000  Uiso   1.00
N318   N     0.27692   0.90675   0.86368   0.00000  Uiso   1.00
N319   N     0.84635   0.93284   0.56458   0.00000  Uiso   1.00
N320   N     0.89581   0.58408   0.96147   0.00000  Uiso   1.00
N321   N     0.31250   0.81357   0.79004   0.00000  Uiso   1.00
N322   N     0.88194   0.83966   0.49094   0.00000  Uiso   1.00
C323   C     0.49133   0.34714   0.32761   0.00000  Uiso   1.00
C324   C     0.46388   0.27755   0.36679   0.00000  Uiso   1.00
C325   C     0.42099   0.27094   0.44076   0.00000  Uiso   1.00
C326   C     0.40161   0.20263   0.46607   0.00000  Uiso   1.00
C327   C     0.35557   0.10363   0.53409   0.00000  Uiso   1.00
C328   C     0.57873   0.34079   0.31956   0.00000  Uiso   1.00
C329   C     0.63240   0.38737   0.35380   0.00000  Uiso   1.00
C330   C     0.70970   0.37229   0.33934   0.00000  Uiso   1.00
C331   C     0.84196   0.37151   0.33397   0.00000  Uiso   1.00
C332   C     0.46005   0.34798   0.23713   0.00000  Uiso   1.00
C333   C     0.41396   0.40060   0.20207   0.00000  Uiso   1.00
C334   C     0.39136   0.39159   0.11819   0.00000  Uiso   1.00
C335   C     0.33936   0.40196   0.98486   0.00000  Uiso   1.00
C336   C     0.53318   0.23756   0.24100   0.00000  Uiso   1.00
C337   C     0.48661   0.21803   0.31975   0.00000  Uiso   1.00
C338   C     0.46729   0.14971   0.34494   0.00000  Uiso   1.00
C339   C     0.42438   0.14300   0.41894   0.00000  Uiso   1.00
C340   C     0.60146   0.28128   0.27252   0.00000  Uiso   1.00
C341   C     0.67870   0.26613   0.25799   0.00000  Uiso   1.00
C342   C     0.73247   0.31267   0.29221   0.00000  Uiso   1.00
C343   C     0.48278   0.28846   0.19009   0.00000  Uiso   1.00
C344   C     0.46026   0.27936   0.10625   0.00000  Uiso   1.00
C345   C     0.41413   0.33196   0.07107   0.00000  Uiso   1.00
H346   H     0.47363   0.39348   0.36423   0.00000  Uiso   1.00
H347   H     0.40342   0.31702   0.47715   0.00000  Uiso   1.00
H348   H     0.61479   0.43343   0.39020   0.00000  Uiso   1.00
H349   H     0.39638   0.44665   0.23849   0.00000  Uiso   1.00
H350   H     0.33562   0.20600   0.58162   0.00000  Uiso   1.00
H351   H     0.78131   0.45147   0.39825   0.00000  Uiso   1.00
H352   H     0.32075   0.47937   0.07834   0.00000  Uiso   1.00
H353   H     0.55087   0.19122   0.20438   0.00000  Uiso   1.00
H354   H     0.48489   0.10366   0.30853   0.00000  Uiso   1.00
H355   H     0.69627   0.22007   0.22158   0.00000  Uiso   1.00
H356   H     0.47786   0.23330   0.06987   0.00000  Uiso   1.00
H357   H     0.40175   0.03283   0.44476   0.00000  Uiso   1.00
H358   H     0.84744   0.27830   0.26139   0.00000  Uiso   1.00
H359   H     0.38688   0.30620   0.94148   0.00000  Uiso   1.00
O360   O     0.32391   0.06546   0.58461   0.00000  Uiso   1.00
O361   O     0.90863   0.38752   0.34401   0.00000  Uiso   1.00
O362   O     0.30439   0.42411   0.92431   0.00000  Uiso   1.00
N363   N     0.36022   0.17726   0.53511   0.00000  Uiso   1.00
N364   N     0.77692   0.40675   0.36368   0.00000  Uiso   1.00
N365   N     0.34635   0.43284   0.06458   0.00000  Uiso   1.00
N366   N     0.39581   0.08408   0.46147   0.00000  Uiso   1.00
N367   N     0.81250   0.31357   0.29004   0.00000  Uiso   1.00
N368   N     0.38194   0.33966   0.99094   0.00000  Uiso   1.00
