data_job_04714
_audit_creation_date              2018-12-19
_audit_creation_method            'Materials Studio'
_symmetry_space_group_name_H-M    'P1'
_symmetry_Int_Tables_number       1
_symmetry_cell_setting            triclinic
loop_
_symmetry_equiv_pos_as_xyz
  x,y,z
_cell_length_a                    14.5954
_cell_length_b                    15.2064
_cell_length_c                    19.1299
_cell_angle_alpha                 90.0000
_cell_angle_beta                  90.0000
_cell_angle_gamma                 90.0000
loop_
_atom_site_label
_atom_site_type_symbol
_atom_site_fract_x
_atom_site_fract_y
_atom_site_fract_z
_atom_site_U_iso_or_equiv
_atom_site_adp_type
_atom_site_occupancy
C1     C     0.04459   0.04323   0.41563   0.00000  Uiso   1.00
C2     C     0.07016   0.05110   0.49267   0.00000  Uiso   1.00
C3     C     0.15501   0.07645   0.51847   0.00000  Uiso   1.00
C4     C     0.16468   0.07955   0.59063   0.00000  Uiso   1.00
C5     C     0.21546   0.09500   0.70345   0.00000  Uiso   1.00
C6     C     0.01071   0.94923   0.40547   0.00000  Uiso   1.00
C7     C     0.04557   0.88892   0.35795   0.00000  Uiso   1.00
C8     C     0.00518   0.80627   0.35670   0.00000  Uiso   1.00
C9     C     0.96362   0.66359   0.33410   0.00000  Uiso   1.00
C10    C     0.96124   0.10224   0.40514   0.00000  Uiso   1.00
C11    C     0.95449   0.17057   0.35733   0.00000  Uiso   1.00
C12    C     0.87244   0.21673   0.35578   0.00000  Uiso   1.00
C13    C     0.75406   0.31162   0.33267   0.00000  Uiso   1.00
C14    C     0.91086   0.00368   0.49790   0.00000  Uiso   1.00
C15    C     0.99753   0.02962   0.53735   0.00000  Uiso   1.00
C16    C     0.00706   0.03269   0.60949   0.00000  Uiso   1.00
C17    C     0.09192   0.05803   0.63539   0.00000  Uiso   1.00
C18    C     0.93808   0.92774   0.45015   0.00000  Uiso   1.00
C19    C     0.89762   0.84516   0.44896   0.00000  Uiso   1.00
C20    C     0.93242   0.78475   0.40146   0.00000  Uiso   1.00
C21    C     0.88861   0.08076   0.44982   0.00000  Uiso   1.00
C22    C     0.80654   0.12681   0.44835   0.00000  Uiso   1.00
C23    C     0.79967   0.19521   0.40055   0.00000  Uiso   1.00
H24    H     0.10113   0.05995   0.38084   0.00000  Uiso   1.00
H25    H     0.21121   0.09306   0.48388   0.00000  Uiso   1.00
H26    H     0.10178   0.90557   0.32337   0.00000  Uiso   1.00
H27    H     0.01071   0.18718   0.32276   0.00000  Uiso   1.00
H28    H     0.30123   0.12026   0.61781   0.00000  Uiso   1.00
H29    H     0.07046   0.72494   0.27937   0.00000  Uiso   1.00
H30    H     0.87844   0.31877   0.27806   0.00000  Uiso   1.00
H31    H     0.85431   0.98695   0.53268   0.00000  Uiso   1.00
H32    H     0.95084   0.01606   0.64405   0.00000  Uiso   1.00
H33    H     0.84141   0.82856   0.48355   0.00000  Uiso   1.00
H34    H     0.75035   0.11017   0.48293   0.00000  Uiso   1.00
H35    H     0.08991   0.05776   0.74782   0.00000  Uiso   1.00
H36    H     0.85914   0.66244   0.40937   0.00000  Uiso   1.00
H37    H     0.66712   0.25626   0.40807   0.00000  Uiso   1.00
O38    O     0.26354   0.10945   0.75333   0.00000  Uiso   1.00
O39    O     0.96077   0.59081   0.30930   0.00000  Uiso   1.00
O40    O     0.70884   0.36990   0.30759   0.00000  Uiso   1.00
N41    N     0.23824   0.10158   0.63312   0.00000  Uiso   1.00
N42    N     0.02250   0.73197   0.31670   0.00000  Uiso   1.00
N43    N     0.84296   0.28713   0.31547   0.00000  Uiso   1.00
N44    N     0.12453   0.06795   0.70308   0.00000  Uiso   1.00
N45    N     0.90879   0.69834   0.38666   0.00000  Uiso   1.00
N46    N     0.72925   0.25350   0.38543   0.00000  Uiso   1.00
C47    C     0.70722   0.53957   0.58375   0.00000  Uiso   1.00
C48    C     0.68015   0.55010   0.50722   0.00000  Uiso   1.00
C49    C     0.59434   0.57479   0.48291   0.00000  Uiso   1.00
C50    C     0.58336   0.58067   0.41097   0.00000  Uiso   1.00
C51    C     0.53031   0.59973   0.29911   0.00000  Uiso   1.00
C52    C     0.74326   0.44590   0.59113   0.00000  Uiso   1.00
C53    C     0.71051   0.38299   0.63737   0.00000  Uiso   1.00
C54    C     0.75267   0.30116   0.63607   0.00000  Uiso   1.00
C55    C     0.79764   0.15848   0.65452   0.00000  Uiso   1.00
C56    C     0.78947   0.59977   0.59499   0.00000  Uiso   1.00
C57    C     0.79560   0.66622   0.64450   0.00000  Uiso   1.00
C58    C     0.87668   0.71392   0.64646   0.00000  Uiso   1.00
C59    C     0.99341   0.81015   0.67091   0.00000  Uiso   1.00
C60    C     0.84032   0.50610   0.49923   0.00000  Uiso   1.00
C61    C     0.75245   0.53191   0.46131   0.00000  Uiso   1.00
C62    C     0.74160   0.53776   0.38938   0.00000  Uiso   1.00
C63    C     0.65578   0.56245   0.36497   0.00000  Uiso   1.00
C64    C     0.81555   0.42772   0.54522   0.00000  Uiso   1.00
C65    C     0.85777   0.34596   0.54385   0.00000  Uiso   1.00
C66    C     0.82509   0.28294   0.59008   0.00000  Uiso   1.00
C67    C     0.86177   0.58159   0.54908   0.00000  Uiso   1.00
C68    C     0.94286   0.62919   0.55097   0.00000  Uiso   1.00
C69    C     0.94910   0.69571   0.60046   0.00000  Uiso   1.00
H70    H     0.65094   0.55372   0.61950   0.00000  Uiso   1.00
H71    H     0.53841   0.58885   0.51846   0.00000  Uiso   1.00
H72    H     0.65457   0.39709   0.67290   0.00000  Uiso   1.00
H73    H     0.73964   0.68027   0.68002   0.00000  Uiso   1.00
H74    H     0.44551   0.61974   0.38618   0.00000  Uiso   1.00
H75    H     0.69047   0.21541   0.71185   0.00000  Uiso   1.00
H76    H     0.86987   0.81257   0.72686   0.00000  Uiso   1.00
H77    H     0.89661   0.49194   0.46348   0.00000  Uiso   1.00
H78    H     0.79755   0.52368   0.35387   0.00000  Uiso   1.00
H79    H     0.91371   0.33191   0.50832   0.00000  Uiso   1.00
H80    H     0.99879   0.61510   0.51543   0.00000  Uiso   1.00
H81    H     0.65584   0.56684   0.25259   0.00000  Uiso   1.00
H82    H     0.90080   0.16251   0.57827   0.00000  Uiso   1.00
H83    H     0.08020   0.75967   0.59328   0.00000  Uiso   1.00
O84    O     0.48108   0.61526   0.25009   0.00000  Uiso   1.00
O85    O     0.80246   0.08480   0.67738   0.00000  Uiso   1.00
O86    O     0.03782   0.86825   0.69707   0.00000  Uiso   1.00
N87    N     0.50861   0.60295   0.36978   0.00000  Uiso   1.00
N88    N     0.73762   0.22492   0.67426   0.00000  Uiso   1.00
N89    N     0.90535   0.78320   0.68831   0.00000  Uiso   1.00
N90    N     0.62179   0.57449   0.29790   0.00000  Uiso   1.00
N91    N     0.85080   0.19646   0.60238   0.00000  Uiso   1.00
N92    N     0.01853   0.75474   0.61643   0.00000  Uiso   1.00
C93    C     0.95541   0.95677   0.91563   0.00000  Uiso   1.00
C94    C     0.92984   0.94890   0.99267   0.00000  Uiso   1.00
C95    C     0.84499   0.92355   0.01847   0.00000  Uiso   1.00
C96    C     0.83532   0.92045   0.09063   0.00000  Uiso   1.00
C97    C     0.78454   0.90500   0.20345   0.00000  Uiso   1.00
C98    C     0.98929   0.05077   0.90547   0.00000  Uiso   1.00
C99    C     0.95443   0.11108   0.85795   0.00000  Uiso   1.00
C100   C     0.99482   0.19373   0.85670   0.00000  Uiso   1.00
C101   C     0.03638   0.33641   0.83410   0.00000  Uiso   1.00
C102   C     0.03876   0.89776   0.90514   0.00000  Uiso   1.00
C103   C     0.04551   0.82943   0.85733   0.00000  Uiso   1.00
C104   C     0.12756   0.78327   0.85578   0.00000  Uiso   1.00
C105   C     0.24594   0.68838   0.83267   0.00000  Uiso   1.00
C106   C     0.08914   0.99632   0.99790   0.00000  Uiso   1.00
C107   C     0.00247   0.97038   0.03735   0.00000  Uiso   1.00
C108   C     0.99294   0.96731   0.10949   0.00000  Uiso   1.00
C109   C     0.90808   0.94197   0.13539   0.00000  Uiso   1.00
C110   C     0.06192   0.07226   0.95015   0.00000  Uiso   1.00
C111   C     0.10238   0.15484   0.94896   0.00000  Uiso   1.00
C112   C     0.06758   0.21525   0.90146   0.00000  Uiso   1.00
C113   C     0.11139   0.91924   0.94982   0.00000  Uiso   1.00
C114   C     0.19346   0.87319   0.94835   0.00000  Uiso   1.00
C115   C     0.20033   0.80479   0.90055   0.00000  Uiso   1.00
H116   H     0.89887   0.94005   0.88084   0.00000  Uiso   1.00
H117   H     0.78879   0.90694   0.98388   0.00000  Uiso   1.00
H118   H     0.89822   0.09443   0.82337   0.00000  Uiso   1.00
H119   H     0.98929   0.81282   0.82276   0.00000  Uiso   1.00
H120   H     0.69877   0.87974   0.11781   0.00000  Uiso   1.00
H121   H     0.92954   0.27506   0.77937   0.00000  Uiso   1.00
H122   H     0.12156   0.68123   0.77806   0.00000  Uiso   1.00
H123   H     0.14569   0.01305   0.03268   0.00000  Uiso   1.00
H124   H     0.04916   0.98394   0.14405   0.00000  Uiso   1.00
H125   H     0.15859   0.17144   0.98355   0.00000  Uiso   1.00
H126   H     0.24965   0.88983   0.98293   0.00000  Uiso   1.00
H127   H     0.91009   0.94224   0.24782   0.00000  Uiso   1.00
H128   H     0.14086   0.33756   0.90937   0.00000  Uiso   1.00
H129   H     0.33288   0.74374   0.90807   0.00000  Uiso   1.00
O130   O     0.73646   0.89055   0.25333   0.00000  Uiso   1.00
O131   O     0.03923   0.40919   0.80930   0.00000  Uiso   1.00
O132   O     0.29116   0.63010   0.80759   0.00000  Uiso   1.00
N133   N     0.76176   0.89842   0.13312   0.00000  Uiso   1.00
N134   N     0.97750   0.26803   0.81670   0.00000  Uiso   1.00
N135   N     0.15704   0.71287   0.81547   0.00000  Uiso   1.00
N136   N     0.87547   0.93205   0.20308   0.00000  Uiso   1.00
N137   N     0.09121   0.30166   0.88666   0.00000  Uiso   1.00
N138   N     0.27075   0.74650   0.88543   0.00000  Uiso   1.00
C139   C     0.29278   0.46043   0.08375   0.00000  Uiso   1.00
C140   C     0.31985   0.44990   0.00722   0.00000  Uiso   1.00
C141   C     0.40566   0.42521   0.98291   0.00000  Uiso   1.00
C142   C     0.41664   0.41933   0.91097   0.00000  Uiso   1.00
C143   C     0.46969   0.40027   0.79911   0.00000  Uiso   1.00
C144   C     0.25674   0.55410   0.09113   0.00000  Uiso   1.00
C145   C     0.28949   0.61701   0.13737   0.00000  Uiso   1.00
C146   C     0.24733   0.69884   0.13607   0.00000  Uiso   1.00
C147   C     0.20236   0.84152   0.15452   0.00000  Uiso   1.00
C148   C     0.21053   0.40023   0.09499   0.00000  Uiso   1.00
C149   C     0.20440   0.33378   0.14450   0.00000  Uiso   1.00
C150   C     0.12332   0.28608   0.14646   0.00000  Uiso   1.00
C151   C     0.00659   0.18985   0.17091   0.00000  Uiso   1.00
C152   C     0.15968   0.49390   0.99923   0.00000  Uiso   1.00
C153   C     0.24755   0.46809   0.96131   0.00000  Uiso   1.00
C154   C     0.25840   0.46224   0.88938   0.00000  Uiso   1.00
C155   C     0.34422   0.43755   0.86497   0.00000  Uiso   1.00
C156   C     0.18445   0.57228   0.04522   0.00000  Uiso   1.00
C157   C     0.14223   0.65404   0.04385   0.00000  Uiso   1.00
C158   C     0.17491   0.71706   0.09008   0.00000  Uiso   1.00
C159   C     0.13823   0.41841   0.04908   0.00000  Uiso   1.00
C160   C     0.05714   0.37081   0.05097   0.00000  Uiso   1.00
C161   C     0.05090   0.30429   0.10046   0.00000  Uiso   1.00
H162   H     0.34906   0.44628   0.11950   0.00000  Uiso   1.00
H163   H     0.46159   0.41115   0.01846   0.00000  Uiso   1.00
H164   H     0.34543   0.60291   0.17290   0.00000  Uiso   1.00
H165   H     0.26036   0.31973   0.18002   0.00000  Uiso   1.00
H166   H     0.55449   0.38026   0.88618   0.00000  Uiso   1.00
H167   H     0.30953   0.78459   0.21185   0.00000  Uiso   1.00
H168   H     0.13013   0.18743   0.22686   0.00000  Uiso   1.00
H169   H     0.10339   0.50806   0.96348   0.00000  Uiso   1.00
H170   H     0.20245   0.47632   0.85387   0.00000  Uiso   1.00
H171   H     0.08629   0.66809   0.00832   0.00000  Uiso   1.00
H172   H     0.00121   0.38490   0.01543   0.00000  Uiso   1.00
H173   H     0.34416   0.43316   0.75259   0.00000  Uiso   1.00
H174   H     0.09920   0.83749   0.07827   0.00000  Uiso   1.00
H175   H     0.91980   0.24033   0.09328   0.00000  Uiso   1.00
O176   O     0.51892   0.38474   0.75009   0.00000  Uiso   1.00
O177   O     0.19754   0.91520   0.17738   0.00000  Uiso   1.00
O178   O     0.96218   0.13175   0.19707   0.00000  Uiso   1.00
N179   N     0.49139   0.39705   0.86978   0.00000  Uiso   1.00
N180   N     0.26238   0.77508   0.17426   0.00000  Uiso   1.00
N181   N     0.09465   0.21680   0.18831   0.00000  Uiso   1.00
N182   N     0.37821   0.42551   0.79790   0.00000  Uiso   1.00
N183   N     0.14920   0.80354   0.10238   0.00000  Uiso   1.00
N184   N     0.98147   0.24526   0.11643   0.00000  Uiso   1.00
C185   C     0.54459   0.95677   0.41563   0.00000  Uiso   1.00
C186   C     0.57016   0.94890   0.49267   0.00000  Uiso   1.00
C187   C     0.65501   0.92355   0.51847   0.00000  Uiso   1.00
C188   C     0.66468   0.92045   0.59063   0.00000  Uiso   1.00
C189   C     0.71546   0.90500   0.70345   0.00000  Uiso   1.00
C190   C     0.51071   0.05077   0.40547   0.00000  Uiso   1.00
C191   C     0.54557   0.11108   0.35795   0.00000  Uiso   1.00
C192   C     0.50518   0.19373   0.35670   0.00000  Uiso   1.00
C193   C     0.46362   0.33641   0.33410   0.00000  Uiso   1.00
C194   C     0.46124   0.89776   0.40514   0.00000  Uiso   1.00
C195   C     0.45449   0.82943   0.35733   0.00000  Uiso   1.00
C196   C     0.37244   0.78327   0.35578   0.00000  Uiso   1.00
C197   C     0.25406   0.68838   0.33267   0.00000  Uiso   1.00
C198   C     0.41086   0.99632   0.49790   0.00000  Uiso   1.00
C199   C     0.49753   0.97038   0.53735   0.00000  Uiso   1.00
C200   C     0.50706   0.96731   0.60949   0.00000  Uiso   1.00
C201   C     0.59192   0.94197   0.63539   0.00000  Uiso   1.00
C202   C     0.43808   0.07226   0.45015   0.00000  Uiso   1.00
C203   C     0.39762   0.15484   0.44896   0.00000  Uiso   1.00
C204   C     0.43242   0.21525   0.40146   0.00000  Uiso   1.00
C205   C     0.38861   0.91924   0.44982   0.00000  Uiso   1.00
C206   C     0.30654   0.87319   0.44835   0.00000  Uiso   1.00
C207   C     0.29967   0.80479   0.40055   0.00000  Uiso   1.00
H208   H     0.60113   0.94005   0.38084   0.00000  Uiso   1.00
H209   H     0.71121   0.90694   0.48388   0.00000  Uiso   1.00
H210   H     0.60178   0.09443   0.32337   0.00000  Uiso   1.00
H211   H     0.51071   0.81282   0.32276   0.00000  Uiso   1.00
H212   H     0.80123   0.87974   0.61781   0.00000  Uiso   1.00
H213   H     0.57046   0.27506   0.27937   0.00000  Uiso   1.00
H214   H     0.37844   0.68123   0.27806   0.00000  Uiso   1.00
H215   H     0.35431   0.01305   0.53268   0.00000  Uiso   1.00
H216   H     0.45084   0.98394   0.64405   0.00000  Uiso   1.00
H217   H     0.34141   0.17144   0.48355   0.00000  Uiso   1.00
H218   H     0.25035   0.88983   0.48293   0.00000  Uiso   1.00
H219   H     0.58991   0.94224   0.74782   0.00000  Uiso   1.00
H220   H     0.35914   0.33756   0.40937   0.00000  Uiso   1.00
H221   H     0.16712   0.74374   0.40807   0.00000  Uiso   1.00
O222   O     0.76354   0.89055   0.75333   0.00000  Uiso   1.00
O223   O     0.46077   0.40919   0.30930   0.00000  Uiso   1.00
O224   O     0.20884   0.63010   0.30759   0.00000  Uiso   1.00
N225   N     0.73824   0.89842   0.63312   0.00000  Uiso   1.00
N226   N     0.52250   0.26803   0.31670   0.00000  Uiso   1.00
N227   N     0.34296   0.71287   0.31547   0.00000  Uiso   1.00
N228   N     0.62453   0.93205   0.70308   0.00000  Uiso   1.00
N229   N     0.40879   0.30166   0.38666   0.00000  Uiso   1.00
N230   N     0.22925   0.74650   0.38543   0.00000  Uiso   1.00
C231   C     0.20722   0.46043   0.58375   0.00000  Uiso   1.00
C232   C     0.18015   0.44990   0.50722   0.00000  Uiso   1.00
C233   C     0.09434   0.42521   0.48291   0.00000  Uiso   1.00
C234   C     0.08336   0.41933   0.41097   0.00000  Uiso   1.00
C235   C     0.03031   0.40027   0.29911   0.00000  Uiso   1.00
C236   C     0.24326   0.55410   0.59113   0.00000  Uiso   1.00
C237   C     0.21051   0.61701   0.63737   0.00000  Uiso   1.00
C238   C     0.25267   0.69884   0.63607   0.00000  Uiso   1.00
C239   C     0.29764   0.84152   0.65452   0.00000  Uiso   1.00
C240   C     0.28947   0.40023   0.59499   0.00000  Uiso   1.00
C241   C     0.29560   0.33378   0.64450   0.00000  Uiso   1.00
C242   C     0.37668   0.28608   0.64646   0.00000  Uiso   1.00
C243   C     0.49341   0.18985   0.67091   0.00000  Uiso   1.00
C244   C     0.34032   0.49390   0.49923   0.00000  Uiso   1.00
C245   C     0.25245   0.46809   0.46131   0.00000  Uiso   1.00
C246   C     0.24160   0.46224   0.38938   0.00000  Uiso   1.00
C247   C     0.15578   0.43755   0.36497   0.00000  Uiso   1.00
C248   C     0.31555   0.57228   0.54522   0.00000  Uiso   1.00
C249   C     0.35777   0.65404   0.54385   0.00000  Uiso   1.00
C250   C     0.32509   0.71706   0.59008   0.00000  Uiso   1.00
C251   C     0.36177   0.41841   0.54908   0.00000  Uiso   1.00
C252   C     0.44286   0.37081   0.55097   0.00000  Uiso   1.00
C253   C     0.44910   0.30429   0.60046   0.00000  Uiso   1.00
H254   H     0.15094   0.44628   0.61950   0.00000  Uiso   1.00
H255   H     0.03841   0.41115   0.51846   0.00000  Uiso   1.00
H256   H     0.15457   0.60291   0.67290   0.00000  Uiso   1.00
H257   H     0.23964   0.31973   0.68002   0.00000  Uiso   1.00
H258   H     0.94551   0.38026   0.38618   0.00000  Uiso   1.00
H259   H     0.19047   0.78459   0.71185   0.00000  Uiso   1.00
H260   H     0.36987   0.18743   0.72686   0.00000  Uiso   1.00
H261   H     0.39661   0.50806   0.46348   0.00000  Uiso   1.00
H262   H     0.29755   0.47632   0.35387   0.00000  Uiso   1.00
H263   H     0.41371   0.66809   0.50832   0.00000  Uiso   1.00
H264   H     0.49879   0.38490   0.51543   0.00000  Uiso   1.00
H265   H     0.15584   0.43316   0.25259   0.00000  Uiso   1.00
H266   H     0.40080   0.83749   0.57827   0.00000  Uiso   1.00
H267   H     0.58020   0.24033   0.59328   0.00000  Uiso   1.00
O268   O     0.98108   0.38474   0.25009   0.00000  Uiso   1.00
O269   O     0.30246   0.91520   0.67738   0.00000  Uiso   1.00
O270   O     0.53782   0.13175   0.69707   0.00000  Uiso   1.00
N271   N     0.00861   0.39705   0.36978   0.00000  Uiso   1.00
N272   N     0.23762   0.77508   0.67426   0.00000  Uiso   1.00
N273   N     0.40535   0.21680   0.68831   0.00000  Uiso   1.00
N274   N     0.12179   0.42551   0.29790   0.00000  Uiso   1.00
N275   N     0.35080   0.80354   0.60238   0.00000  Uiso   1.00
N276   N     0.51853   0.24526   0.61643   0.00000  Uiso   1.00
C277   C     0.45541   0.04323   0.91563   0.00000  Uiso   1.00
C278   C     0.42984   0.05110   0.99267   0.00000  Uiso   1.00
C279   C     0.34499   0.07645   0.01847   0.00000  Uiso   1.00
C280   C     0.33532   0.07955   0.09063   0.00000  Uiso   1.00
C281   C     0.28454   0.09500   0.20345   0.00000  Uiso   1.00
C282   C     0.48929   0.94923   0.90547   0.00000  Uiso   1.00
C283   C     0.45443   0.88892   0.85795   0.00000  Uiso   1.00
C284   C     0.49482   0.80627   0.85670   0.00000  Uiso   1.00
C285   C     0.53638   0.66359   0.83410   0.00000  Uiso   1.00
C286   C     0.53876   0.10224   0.90514   0.00000  Uiso   1.00
C287   C     0.54551   0.17057   0.85733   0.00000  Uiso   1.00
C288   C     0.62756   0.21673   0.85578   0.00000  Uiso   1.00
C289   C     0.74594   0.31162   0.83267   0.00000  Uiso   1.00
C290   C     0.58914   0.00368   0.99790   0.00000  Uiso   1.00
C291   C     0.50247   0.02962   0.03735   0.00000  Uiso   1.00
C292   C     0.49294   0.03269   0.10949   0.00000  Uiso   1.00
C293   C     0.40808   0.05803   0.13539   0.00000  Uiso   1.00
C294   C     0.56192   0.92774   0.95015   0.00000  Uiso   1.00
C295   C     0.60238   0.84516   0.94896   0.00000  Uiso   1.00
C296   C     0.56758   0.78475   0.90146   0.00000  Uiso   1.00
C297   C     0.61139   0.08076   0.94982   0.00000  Uiso   1.00
C298   C     0.69346   0.12681   0.94835   0.00000  Uiso   1.00
C299   C     0.70033   0.19521   0.90055   0.00000  Uiso   1.00
H300   H     0.39887   0.05995   0.88084   0.00000  Uiso   1.00
H301   H     0.28879   0.09306   0.98388   0.00000  Uiso   1.00
H302   H     0.39822   0.90557   0.82337   0.00000  Uiso   1.00
H303   H     0.48929   0.18718   0.82276   0.00000  Uiso   1.00
H304   H     0.19877   0.12026   0.11781   0.00000  Uiso   1.00
H305   H     0.42954   0.72494   0.77937   0.00000  Uiso   1.00
H306   H     0.62156   0.31877   0.77806   0.00000  Uiso   1.00
H307   H     0.64569   0.98695   0.03268   0.00000  Uiso   1.00
H308   H     0.54916   0.01606   0.14405   0.00000  Uiso   1.00
H309   H     0.65859   0.82856   0.98355   0.00000  Uiso   1.00
H310   H     0.74965   0.11017   0.98293   0.00000  Uiso   1.00
H311   H     0.41009   0.05776   0.24782   0.00000  Uiso   1.00
H312   H     0.64086   0.66244   0.90937   0.00000  Uiso   1.00
H313   H     0.83288   0.25626   0.90807   0.00000  Uiso   1.00
O314   O     0.23646   0.10945   0.25333   0.00000  Uiso   1.00
O315   O     0.53923   0.59081   0.80930   0.00000  Uiso   1.00
O316   O     0.79116   0.36990   0.80759   0.00000  Uiso   1.00
N317   N     0.26176   0.10158   0.13312   0.00000  Uiso   1.00
N318   N     0.47750   0.73197   0.81670   0.00000  Uiso   1.00
N319   N     0.65704   0.28713   0.81547   0.00000  Uiso   1.00
N320   N     0.37547   0.06795   0.20308   0.00000  Uiso   1.00
N321   N     0.59121   0.69834   0.88666   0.00000  Uiso   1.00
N322   N     0.77075   0.25350   0.88543   0.00000  Uiso   1.00
C323   C     0.79278   0.53957   0.08375   0.00000  Uiso   1.00
C324   C     0.81985   0.55010   0.00722   0.00000  Uiso   1.00
C325   C     0.90566   0.57479   0.98291   0.00000  Uiso   1.00
C326   C     0.91664   0.58067   0.91097   0.00000  Uiso   1.00
C327   C     0.96969   0.59973   0.79911   0.00000  Uiso   1.00
C328   C     0.75674   0.44590   0.09113   0.00000  Uiso   1.00
C329   C     0.78949   0.38299   0.13737   0.00000  Uiso   1.00
C330   C     0.74733   0.30116   0.13607   0.00000  Uiso   1.00
C331   C     0.70236   0.15848   0.15452   0.00000  Uiso   1.00
C332   C     0.71053   0.59977   0.09499   0.00000  Uiso   1.00
C333   C     0.70440   0.66622   0.14450   0.00000  Uiso   1.00
C334   C     0.62332   0.71392   0.14646   0.00000  Uiso   1.00
C335   C     0.50659   0.81015   0.17091   0.00000  Uiso   1.00
C336   C     0.65968   0.50610   0.99923   0.00000  Uiso   1.00
C337   C     0.74755   0.53191   0.96131   0.00000  Uiso   1.00
C338   C     0.75840   0.53776   0.88938   0.00000  Uiso   1.00
C339   C     0.84422   0.56245   0.86497   0.00000  Uiso   1.00
C340   C     0.68445   0.42772   0.04522   0.00000  Uiso   1.00
C341   C     0.64223   0.34596   0.04385   0.00000  Uiso   1.00
C342   C     0.67491   0.28294   0.09008   0.00000  Uiso   1.00
C343   C     0.63823   0.58159   0.04908   0.00000  Uiso   1.00
C344   C     0.55714   0.62919   0.05097   0.00000  Uiso   1.00
C345   C     0.55090   0.69571   0.10046   0.00000  Uiso   1.00
H346   H     0.84906   0.55372   0.11950   0.00000  Uiso   1.00
H347   H     0.96159   0.58885   0.01846   0.00000  Uiso   1.00
H348   H     0.84543   0.39709   0.17290   0.00000  Uiso   1.00
H349   H     0.76036   0.68027   0.18002   0.00000  Uiso   1.00
H350   H     0.05449   0.61974   0.88618   0.00000  Uiso   1.00
H351   H     0.80953   0.21541   0.21185   0.00000  Uiso   1.00
H352   H     0.63013   0.81257   0.22686   0.00000  Uiso   1.00
H353   H     0.60339   0.49194   0.96348   0.00000  Uiso   1.00
H354   H     0.70245   0.52368   0.85387   0.00000  Uiso   1.00
H355   H     0.58629   0.33191   0.00832   0.00000  Uiso   1.00
H356   H     0.50121   0.61510   0.01543   0.00000  Uiso   1.00
H357   H     0.84416   0.56684   0.75259   0.00000  Uiso   1.00
H358   H     0.59920   0.16251   0.07827   0.00000  Uiso   1.00
H359   H     0.41980   0.75967   0.09328   0.00000  Uiso   1.00
O360   O     0.01892   0.61526   0.75009   0.00000  Uiso   1.00
O361   O     0.69754   0.08480   0.17738   0.00000  Uiso   1.00
O362   O     0.46218   0.86825   0.19707   0.00000  Uiso   1.00
N363   N     0.99139   0.60295   0.86978   0.00000  Uiso   1.00
N364   N     0.76238   0.22492   0.17426   0.00000  Uiso   1.00
N365   N     0.59465   0.78320   0.18831   0.00000  Uiso   1.00
N366   N     0.87821   0.57449   0.79790   0.00000  Uiso   1.00
N367   N     0.64920   0.19646   0.10238   0.00000  Uiso   1.00
N368   N     0.48147   0.75474   0.11643   0.00000  Uiso   1.00
