data_job_03513
_audit_creation_date              2018-12-19
_audit_creation_method            'Materials Studio'
_symmetry_space_group_name_H-M    'P1'
_symmetry_Int_Tables_number       1
_symmetry_cell_setting            triclinic
loop_
_symmetry_equiv_pos_as_xyz
  x,y,z
_cell_length_a                    12.0766
_cell_length_b                    12.0766
_cell_length_c                    49.5445
_cell_angle_alpha                 90.0000
_cell_angle_beta                  90.0000
_cell_angle_gamma                 90.0000
loop_
_atom_site_label
_atom_site_type_symbol
_atom_site_fract_x
_atom_site_fract_y
_atom_site_fract_z
_atom_site_U_iso_or_equiv
_atom_site_adp_type
_atom_site_occupancy
C1     C     0.20659   0.41744   0.06541   0.00000  Uiso   1.00
C2     C     0.19606   0.30094   0.05381   0.00000  Uiso   1.00
C3     C     0.28330   0.23356   0.04590   0.00000  Uiso   1.00
C4     C     0.25642   0.12976   0.03579   0.00000  Uiso   1.00
C5     C     0.25683   0.95423   0.01810   0.00000  Uiso   1.00
C6     C     0.13742   0.49204   0.04717   0.00000  Uiso   1.00
C7     C     0.17536   0.58533   0.03368   0.00000  Uiso   1.00
C8     C     0.09911   0.64240   0.01799   0.00000  Uiso   1.00
C9     C     0.00847   0.76359   0.99000   0.00000  Uiso   1.00
C10    C     0.14725   0.41512   0.09257   0.00000  Uiso   1.00
C11    C     0.19344   0.44378   0.11725   0.00000  Uiso   1.00
C12    C     0.12546   0.43613   0.13977   0.00000  Uiso   1.00
C13    C     0.05007   0.43790   0.18227   0.00000  Uiso   1.00
C14    C     0.00370   0.35292   0.06152   0.00000  Uiso   1.00
C15    C     0.08585   0.26590   0.05170   0.00000  Uiso   1.00
C16    C     0.05883   0.16217   0.04160   0.00000  Uiso   1.00
C17    C     0.14603   0.09465   0.03368   0.00000  Uiso   1.00
C18    C     0.02722   0.45699   0.04506   0.00000  Uiso   1.00
C19    C     0.95090   0.51394   0.02938   0.00000  Uiso   1.00
C20    C     0.98872   0.60730   0.01587   0.00000  Uiso   1.00
C21    C     0.03705   0.38008   0.09046   0.00000  Uiso   1.00
C22    C     0.96897   0.37239   0.11295   0.00000  Uiso   1.00
C23    C     0.01506   0.40102   0.13765   0.00000  Uiso   1.00
H24    H     0.29238   0.44473   0.06705   0.00000  Uiso   1.00
H25    H     0.36857   0.26072   0.04754   0.00000  Uiso   1.00
H26    H     0.26065   0.61244   0.03532   0.00000  Uiso   1.00
H27    H     0.27872   0.47090   0.11887   0.00000  Uiso   1.00
H28    H     0.40445   0.04127   0.02496   0.00000  Uiso   1.00
H29    H     0.17687   0.78291   0.99922   0.00000  Uiso   1.00
H30    H     0.21499   0.48446   0.17540   0.00000  Uiso   1.00
H31    H     0.91790   0.32563   0.05988   0.00000  Uiso   1.00
H32    H     0.97355   0.13508   0.03997   0.00000  Uiso   1.00
H33    H     0.86562   0.48680   0.02775   0.00000  Uiso   1.00
H34    H     0.88370   0.34526   0.11130   0.00000  Uiso   1.00
H35    H     0.08383   0.93930   0.01882   0.00000  Uiso   1.00
H36    H     0.85625   0.68095   0.99307   0.00000  Uiso   1.00
H37    H     0.89437   0.38249   0.16926   0.00000  Uiso   1.00
O38    O     0.28750   0.86709   0.00892   0.00000  Uiso   1.00
O39    O     0.98892   0.84011   0.97514   0.00000  Uiso   1.00
O40    O     0.03894   0.44854   0.20629   0.00000  Uiso   1.00
N41    N     0.32136   0.04341   0.02625   0.00000  Uiso   1.00
N42    N     0.10859   0.73679   0.00218   0.00000  Uiso   1.00
N43    N     0.14422   0.45779   0.16689   0.00000  Uiso   1.00
N44    N     0.14883   0.98854   0.02295   0.00000  Uiso   1.00
N45    N     0.93607   0.68192   0.99887   0.00000  Uiso   1.00
N46    N     0.97169   0.40292   0.16359   0.00000  Uiso   1.00
C47    C     0.79341   0.58256   0.56541   0.00000  Uiso   1.00
C48    C     0.80394   0.69906   0.55381   0.00000  Uiso   1.00
C49    C     0.71670   0.76644   0.54590   0.00000  Uiso   1.00
C50    C     0.74358   0.87024   0.53579   0.00000  Uiso   1.00
C51    C     0.74317   0.04577   0.51810   0.00000  Uiso   1.00
C52    C     0.86258   0.50796   0.54717   0.00000  Uiso   1.00
C53    C     0.82464   0.41467   0.53368   0.00000  Uiso   1.00
C54    C     0.90089   0.35760   0.51799   0.00000  Uiso   1.00
C55    C     0.99153   0.23641   0.49000   0.00000  Uiso   1.00
C56    C     0.85275   0.58488   0.59257   0.00000  Uiso   1.00
C57    C     0.80656   0.55622   0.61725   0.00000  Uiso   1.00
C58    C     0.87454   0.56387   0.63977   0.00000  Uiso   1.00
C59    C     0.94993   0.56210   0.68227   0.00000  Uiso   1.00
C60    C     0.99630   0.64708   0.56152   0.00000  Uiso   1.00
C61    C     0.91415   0.73410   0.55170   0.00000  Uiso   1.00
C62    C     0.94117   0.83783   0.54160   0.00000  Uiso   1.00
C63    C     0.85397   0.90535   0.53368   0.00000  Uiso   1.00
C64    C     0.97278   0.54301   0.54506   0.00000  Uiso   1.00
C65    C     0.04910   0.48606   0.52938   0.00000  Uiso   1.00
C66    C     0.01128   0.39270   0.51587   0.00000  Uiso   1.00
C67    C     0.96295   0.61992   0.59046   0.00000  Uiso   1.00
C68    C     0.03103   0.62761   0.61295   0.00000  Uiso   1.00
C69    C     0.98494   0.59898   0.63765   0.00000  Uiso   1.00
H70    H     0.70762   0.55527   0.56705   0.00000  Uiso   1.00
H71    H     0.63143   0.73928   0.54754   0.00000  Uiso   1.00
H72    H     0.73935   0.38756   0.53532   0.00000  Uiso   1.00
H73    H     0.72128   0.52910   0.61887   0.00000  Uiso   1.00
H74    H     0.59555   0.95873   0.52496   0.00000  Uiso   1.00
H75    H     0.82313   0.21709   0.49922   0.00000  Uiso   1.00
H76    H     0.78501   0.51554   0.67540   0.00000  Uiso   1.00
H77    H     0.08210   0.67437   0.55988   0.00000  Uiso   1.00
H78    H     0.02645   0.86492   0.53997   0.00000  Uiso   1.00
H79    H     0.13438   0.51320   0.52775   0.00000  Uiso   1.00
H80    H     0.11630   0.65474   0.61130   0.00000  Uiso   1.00
H81    H     0.91617   0.06070   0.51882   0.00000  Uiso   1.00
H82    H     0.14375   0.31905   0.49307   0.00000  Uiso   1.00
H83    H     0.10563   0.61751   0.66926   0.00000  Uiso   1.00
O84    O     0.71250   0.13291   0.50892   0.00000  Uiso   1.00
O85    O     0.01108   0.15989   0.47514   0.00000  Uiso   1.00
O86    O     0.96106   0.55146   0.70629   0.00000  Uiso   1.00
N87    N     0.67864   0.95659   0.52625   0.00000  Uiso   1.00
N88    N     0.89141   0.26321   0.50218   0.00000  Uiso   1.00
N89    N     0.85578   0.54221   0.66689   0.00000  Uiso   1.00
N90    N     0.85117   0.01146   0.52295   0.00000  Uiso   1.00
N91    N     0.06393   0.31808   0.49887   0.00000  Uiso   1.00
N92    N     0.02831   0.59708   0.66359   0.00000  Uiso   1.00
C93    C     0.08256   0.70659   0.81541   0.00000  Uiso   1.00
C94    C     0.19906   0.69606   0.80381   0.00000  Uiso   1.00
C95    C     0.26644   0.78330   0.79590   0.00000  Uiso   1.00
C96    C     0.37024   0.75642   0.78579   0.00000  Uiso   1.00
C97    C     0.54577   0.75683   0.76810   0.00000  Uiso   1.00
C98    C     0.00796   0.63742   0.79717   0.00000  Uiso   1.00
C99    C     0.91467   0.67536   0.78368   0.00000  Uiso   1.00
C100   C     0.85760   0.59911   0.76799   0.00000  Uiso   1.00
C101   C     0.73641   0.50847   0.74000   0.00000  Uiso   1.00
C102   C     0.08488   0.64725   0.84257   0.00000  Uiso   1.00
C103   C     0.05622   0.69344   0.86725   0.00000  Uiso   1.00
C104   C     0.06387   0.62546   0.88977   0.00000  Uiso   1.00
C105   C     0.06210   0.55007   0.93227   0.00000  Uiso   1.00
C106   C     0.14708   0.50370   0.81152   0.00000  Uiso   1.00
C107   C     0.23410   0.58585   0.80170   0.00000  Uiso   1.00
C108   C     0.33783   0.55883   0.79160   0.00000  Uiso   1.00
C109   C     0.40535   0.64603   0.78368   0.00000  Uiso   1.00
C110   C     0.04301   0.52722   0.79506   0.00000  Uiso   1.00
C111   C     0.98606   0.45090   0.77938   0.00000  Uiso   1.00
C112   C     0.89270   0.48872   0.76587   0.00000  Uiso   1.00
C113   C     0.11992   0.53705   0.84046   0.00000  Uiso   1.00
C114   C     0.12761   0.46897   0.86295   0.00000  Uiso   1.00
C115   C     0.09898   0.51506   0.88765   0.00000  Uiso   1.00
H116   H     0.05527   0.79238   0.81705   0.00000  Uiso   1.00
H117   H     0.23928   0.86857   0.79754   0.00000  Uiso   1.00
H118   H     0.88756   0.76065   0.78532   0.00000  Uiso   1.00
H119   H     0.02910   0.77872   0.86887   0.00000  Uiso   1.00
H120   H     0.45873   0.90445   0.77496   0.00000  Uiso   1.00
H121   H     0.71709   0.67687   0.74922   0.00000  Uiso   1.00
H122   H     0.01554   0.71499   0.92540   0.00000  Uiso   1.00
H123   H     0.17437   0.41790   0.80988   0.00000  Uiso   1.00
H124   H     0.36492   0.47355   0.78997   0.00000  Uiso   1.00
H125   H     0.01320   0.36562   0.77775   0.00000  Uiso   1.00
H126   H     0.15474   0.38370   0.86130   0.00000  Uiso   1.00
H127   H     0.56070   0.58383   0.76882   0.00000  Uiso   1.00
H128   H     0.81905   0.35625   0.74307   0.00000  Uiso   1.00
H129   H     0.11751   0.39437   0.91926   0.00000  Uiso   1.00
O130   O     0.63291   0.78750   0.75892   0.00000  Uiso   1.00
O131   O     0.65989   0.48892   0.72514   0.00000  Uiso   1.00
O132   O     0.05146   0.53894   0.95629   0.00000  Uiso   1.00
N133   N     0.45659   0.82136   0.77625   0.00000  Uiso   1.00
N134   N     0.76321   0.60859   0.75218   0.00000  Uiso   1.00
N135   N     0.04221   0.64422   0.91689   0.00000  Uiso   1.00
N136   N     0.51146   0.64883   0.77295   0.00000  Uiso   1.00
N137   N     0.81808   0.43607   0.74887   0.00000  Uiso   1.00
N138   N     0.09708   0.47169   0.91359   0.00000  Uiso   1.00
C139   C     0.91744   0.29341   0.31541   0.00000  Uiso   1.00
C140   C     0.80094   0.30394   0.30381   0.00000  Uiso   1.00
C141   C     0.73356   0.21670   0.29590   0.00000  Uiso   1.00
C142   C     0.62976   0.24358   0.28579   0.00000  Uiso   1.00
C143   C     0.45423   0.24317   0.26810   0.00000  Uiso   1.00
C144   C     0.99204   0.36258   0.29717   0.00000  Uiso   1.00
C145   C     0.08533   0.32464   0.28368   0.00000  Uiso   1.00
C146   C     0.14240   0.40089   0.26799   0.00000  Uiso   1.00
C147   C     0.26359   0.49153   0.24000   0.00000  Uiso   1.00
C148   C     0.91512   0.35275   0.34257   0.00000  Uiso   1.00
C149   C     0.94378   0.30656   0.36725   0.00000  Uiso   1.00
C150   C     0.93613   0.37454   0.38977   0.00000  Uiso   1.00
C151   C     0.93790   0.44993   0.43227   0.00000  Uiso   1.00
C152   C     0.85292   0.49630   0.31152   0.00000  Uiso   1.00
C153   C     0.76590   0.41415   0.30170   0.00000  Uiso   1.00
C154   C     0.66217   0.44117   0.29160   0.00000  Uiso   1.00
C155   C     0.59465   0.35397   0.28368   0.00000  Uiso   1.00
C156   C     0.95699   0.47278   0.29506   0.00000  Uiso   1.00
C157   C     0.01394   0.54910   0.27938   0.00000  Uiso   1.00
C158   C     0.10730   0.51128   0.26587   0.00000  Uiso   1.00
C159   C     0.88008   0.46295   0.34046   0.00000  Uiso   1.00
C160   C     0.87239   0.53103   0.36295   0.00000  Uiso   1.00
C161   C     0.90102   0.48494   0.38765   0.00000  Uiso   1.00
H162   H     0.94473   0.20762   0.31705   0.00000  Uiso   1.00
H163   H     0.76072   0.13143   0.29754   0.00000  Uiso   1.00
H164   H     0.11244   0.23935   0.28532   0.00000  Uiso   1.00
H165   H     0.97090   0.22128   0.36887   0.00000  Uiso   1.00
H166   H     0.54127   0.09555   0.27496   0.00000  Uiso   1.00
H167   H     0.28291   0.32313   0.24922   0.00000  Uiso   1.00
H168   H     0.98446   0.28501   0.42540   0.00000  Uiso   1.00
H169   H     0.82563   0.58210   0.30988   0.00000  Uiso   1.00
H170   H     0.63508   0.52645   0.28997   0.00000  Uiso   1.00
H171   H     0.98680   0.63438   0.27775   0.00000  Uiso   1.00
H172   H     0.84526   0.61630   0.36130   0.00000  Uiso   1.00
H173   H     0.43930   0.41617   0.26882   0.00000  Uiso   1.00
H174   H     0.18095   0.64375   0.24307   0.00000  Uiso   1.00
H175   H     0.88249   0.60563   0.41926   0.00000  Uiso   1.00
O176   O     0.36709   0.21250   0.25892   0.00000  Uiso   1.00
O177   O     0.34011   0.51108   0.22514   0.00000  Uiso   1.00
O178   O     0.94854   0.46106   0.45629   0.00000  Uiso   1.00
N179   N     0.54341   0.17864   0.27625   0.00000  Uiso   1.00
N180   N     0.23679   0.39141   0.25218   0.00000  Uiso   1.00
N181   N     0.95779   0.35578   0.41689   0.00000  Uiso   1.00
N182   N     0.48854   0.35117   0.27295   0.00000  Uiso   1.00
N183   N     0.18192   0.56393   0.24887   0.00000  Uiso   1.00
N184   N     0.90292   0.52831   0.41359   0.00000  Uiso   1.00
C185   C     0.29341   0.91744   0.68459   0.00000  Uiso   1.00
C186   C     0.30394   0.80094   0.69619   0.00000  Uiso   1.00
C187   C     0.21670   0.73356   0.70410   0.00000  Uiso   1.00
C188   C     0.24358   0.62976   0.71421   0.00000  Uiso   1.00
C189   C     0.24317   0.45423   0.73190   0.00000  Uiso   1.00
C190   C     0.36258   0.99204   0.70283   0.00000  Uiso   1.00
C191   C     0.32464   0.08533   0.71632   0.00000  Uiso   1.00
C192   C     0.40089   0.14240   0.73201   0.00000  Uiso   1.00
C193   C     0.49153   0.26359   0.76000   0.00000  Uiso   1.00
C194   C     0.35275   0.91512   0.65743   0.00000  Uiso   1.00
C195   C     0.30656   0.94378   0.63275   0.00000  Uiso   1.00
C196   C     0.37454   0.93613   0.61023   0.00000  Uiso   1.00
C197   C     0.44993   0.93790   0.56773   0.00000  Uiso   1.00
C198   C     0.49630   0.85292   0.68848   0.00000  Uiso   1.00
C199   C     0.41415   0.76590   0.69830   0.00000  Uiso   1.00
C200   C     0.44117   0.66217   0.70840   0.00000  Uiso   1.00
C201   C     0.35397   0.59465   0.71632   0.00000  Uiso   1.00
C202   C     0.47278   0.95699   0.70494   0.00000  Uiso   1.00
C203   C     0.54910   0.01394   0.72062   0.00000  Uiso   1.00
C204   C     0.51128   0.10730   0.73413   0.00000  Uiso   1.00
C205   C     0.46295   0.88008   0.65954   0.00000  Uiso   1.00
C206   C     0.53103   0.87239   0.63705   0.00000  Uiso   1.00
C207   C     0.48494   0.90102   0.61235   0.00000  Uiso   1.00
H208   H     0.20762   0.94473   0.68295   0.00000  Uiso   1.00
H209   H     0.13143   0.76072   0.70246   0.00000  Uiso   1.00
H210   H     0.23935   0.11244   0.71468   0.00000  Uiso   1.00
H211   H     0.22128   0.97090   0.63113   0.00000  Uiso   1.00
H212   H     0.09555   0.54127   0.72504   0.00000  Uiso   1.00
H213   H     0.32313   0.28291   0.75078   0.00000  Uiso   1.00
H214   H     0.28501   0.98446   0.57460   0.00000  Uiso   1.00
H215   H     0.58210   0.82563   0.69012   0.00000  Uiso   1.00
H216   H     0.52645   0.63508   0.71003   0.00000  Uiso   1.00
H217   H     0.63438   0.98680   0.72225   0.00000  Uiso   1.00
H218   H     0.61630   0.84526   0.63870   0.00000  Uiso   1.00
H219   H     0.41617   0.43930   0.73118   0.00000  Uiso   1.00
H220   H     0.64375   0.18095   0.75693   0.00000  Uiso   1.00
H221   H     0.60563   0.88249   0.58074   0.00000  Uiso   1.00
O222   O     0.21250   0.36709   0.74108   0.00000  Uiso   1.00
O223   O     0.51108   0.34011   0.77486   0.00000  Uiso   1.00
O224   O     0.46106   0.94854   0.54371   0.00000  Uiso   1.00
N225   N     0.17864   0.54341   0.72375   0.00000  Uiso   1.00
N226   N     0.39141   0.23679   0.74782   0.00000  Uiso   1.00
N227   N     0.35578   0.95779   0.58311   0.00000  Uiso   1.00
N228   N     0.35117   0.48854   0.72705   0.00000  Uiso   1.00
N229   N     0.56393   0.18192   0.75113   0.00000  Uiso   1.00
N230   N     0.52831   0.90292   0.58641   0.00000  Uiso   1.00
C231   C     0.70659   0.08256   0.18459   0.00000  Uiso   1.00
C232   C     0.69606   0.19906   0.19619   0.00000  Uiso   1.00
C233   C     0.78330   0.26644   0.20410   0.00000  Uiso   1.00
C234   C     0.75642   0.37024   0.21421   0.00000  Uiso   1.00
C235   C     0.75683   0.54577   0.23190   0.00000  Uiso   1.00
C236   C     0.63742   0.00796   0.20283   0.00000  Uiso   1.00
C237   C     0.67536   0.91467   0.21632   0.00000  Uiso   1.00
C238   C     0.59911   0.85760   0.23201   0.00000  Uiso   1.00
C239   C     0.50847   0.73641   0.26000   0.00000  Uiso   1.00
C240   C     0.64725   0.08488   0.15743   0.00000  Uiso   1.00
C241   C     0.69344   0.05622   0.13275   0.00000  Uiso   1.00
C242   C     0.62546   0.06387   0.11023   0.00000  Uiso   1.00
C243   C     0.55007   0.06210   0.06773   0.00000  Uiso   1.00
C244   C     0.50370   0.14708   0.18848   0.00000  Uiso   1.00
C245   C     0.58585   0.23410   0.19830   0.00000  Uiso   1.00
C246   C     0.55883   0.33783   0.20840   0.00000  Uiso   1.00
C247   C     0.64603   0.40535   0.21632   0.00000  Uiso   1.00
C248   C     0.52722   0.04301   0.20494   0.00000  Uiso   1.00
C249   C     0.45090   0.98606   0.22062   0.00000  Uiso   1.00
C250   C     0.48872   0.89270   0.23413   0.00000  Uiso   1.00
C251   C     0.53705   0.11992   0.15954   0.00000  Uiso   1.00
C252   C     0.46897   0.12761   0.13705   0.00000  Uiso   1.00
C253   C     0.51506   0.09898   0.11235   0.00000  Uiso   1.00
H254   H     0.79238   0.05527   0.18295   0.00000  Uiso   1.00
H255   H     0.86857   0.23928   0.20246   0.00000  Uiso   1.00
H256   H     0.76065   0.88756   0.21468   0.00000  Uiso   1.00
H257   H     0.77872   0.02910   0.13113   0.00000  Uiso   1.00
H258   H     0.90445   0.45873   0.22504   0.00000  Uiso   1.00
H259   H     0.67687   0.71709   0.25078   0.00000  Uiso   1.00
H260   H     0.71499   0.01554   0.07460   0.00000  Uiso   1.00
H261   H     0.41790   0.17437   0.19012   0.00000  Uiso   1.00
H262   H     0.47355   0.36492   0.21003   0.00000  Uiso   1.00
H263   H     0.36562   0.01320   0.22225   0.00000  Uiso   1.00
H264   H     0.38370   0.15474   0.13870   0.00000  Uiso   1.00
H265   H     0.58383   0.56070   0.23118   0.00000  Uiso   1.00
H266   H     0.35625   0.81905   0.25693   0.00000  Uiso   1.00
H267   H     0.39437   0.11751   0.08074   0.00000  Uiso   1.00
O268   O     0.78750   0.63291   0.24108   0.00000  Uiso   1.00
O269   O     0.48892   0.65989   0.27486   0.00000  Uiso   1.00
O270   O     0.53894   0.05146   0.04371   0.00000  Uiso   1.00
N271   N     0.82136   0.45659   0.22375   0.00000  Uiso   1.00
N272   N     0.60859   0.76321   0.24782   0.00000  Uiso   1.00
N273   N     0.64422   0.04221   0.08311   0.00000  Uiso   1.00
N274   N     0.64883   0.51146   0.22705   0.00000  Uiso   1.00
N275   N     0.43607   0.81808   0.25113   0.00000  Uiso   1.00
N276   N     0.47169   0.09708   0.08641   0.00000  Uiso   1.00
C277   C     0.41744   0.20659   0.93459   0.00000  Uiso   1.00
C278   C     0.30094   0.19606   0.94619   0.00000  Uiso   1.00
C279   C     0.23356   0.28330   0.95410   0.00000  Uiso   1.00
C280   C     0.12976   0.25642   0.96421   0.00000  Uiso   1.00
C281   C     0.95423   0.25683   0.98190   0.00000  Uiso   1.00
C282   C     0.49204   0.13742   0.95283   0.00000  Uiso   1.00
C283   C     0.58533   0.17536   0.96632   0.00000  Uiso   1.00
C284   C     0.64240   0.09911   0.98201   0.00000  Uiso   1.00
C285   C     0.76359   0.00847   0.01000   0.00000  Uiso   1.00
C286   C     0.41512   0.14725   0.90743   0.00000  Uiso   1.00
C287   C     0.44378   0.19344   0.88275   0.00000  Uiso   1.00
C288   C     0.43613   0.12546   0.86023   0.00000  Uiso   1.00
C289   C     0.43790   0.05007   0.81773   0.00000  Uiso   1.00
C290   C     0.35292   0.00370   0.93848   0.00000  Uiso   1.00
C291   C     0.26590   0.08585   0.94830   0.00000  Uiso   1.00
C292   C     0.16217   0.05883   0.95840   0.00000  Uiso   1.00
C293   C     0.09465   0.14603   0.96632   0.00000  Uiso   1.00
C294   C     0.45699   0.02722   0.95494   0.00000  Uiso   1.00
C295   C     0.51394   0.95090   0.97062   0.00000  Uiso   1.00
C296   C     0.60730   0.98872   0.98413   0.00000  Uiso   1.00
C297   C     0.38008   0.03705   0.90954   0.00000  Uiso   1.00
C298   C     0.37239   0.96897   0.88705   0.00000  Uiso   1.00
C299   C     0.40102   0.01506   0.86235   0.00000  Uiso   1.00
H300   H     0.44473   0.29238   0.93295   0.00000  Uiso   1.00
H301   H     0.26072   0.36857   0.95246   0.00000  Uiso   1.00
H302   H     0.61244   0.26065   0.96468   0.00000  Uiso   1.00
H303   H     0.47090   0.27872   0.88113   0.00000  Uiso   1.00
H304   H     0.04127   0.40445   0.97504   0.00000  Uiso   1.00
H305   H     0.78291   0.17687   0.00078   0.00000  Uiso   1.00
H306   H     0.48446   0.21499   0.82460   0.00000  Uiso   1.00
H307   H     0.32563   0.91790   0.94012   0.00000  Uiso   1.00
H308   H     0.13508   0.97355   0.96003   0.00000  Uiso   1.00
H309   H     0.48680   0.86562   0.97225   0.00000  Uiso   1.00
H310   H     0.34526   0.88370   0.88870   0.00000  Uiso   1.00
H311   H     0.93930   0.08383   0.98118   0.00000  Uiso   1.00
H312   H     0.68095   0.85625   0.00693   0.00000  Uiso   1.00
H313   H     0.38249   0.89437   0.83074   0.00000  Uiso   1.00
O314   O     0.86709   0.28750   0.99108   0.00000  Uiso   1.00
O315   O     0.84011   0.98892   0.02486   0.00000  Uiso   1.00
O316   O     0.44854   0.03894   0.79371   0.00000  Uiso   1.00
N317   N     0.04341   0.32136   0.97375   0.00000  Uiso   1.00
N318   N     0.73679   0.10859   0.99782   0.00000  Uiso   1.00
N319   N     0.45779   0.14422   0.83311   0.00000  Uiso   1.00
N320   N     0.98854   0.14883   0.97705   0.00000  Uiso   1.00
N321   N     0.68192   0.93607   0.00113   0.00000  Uiso   1.00
N322   N     0.40292   0.97169   0.83641   0.00000  Uiso   1.00
C323   C     0.58256   0.79341   0.43459   0.00000  Uiso   1.00
C324   C     0.69906   0.80394   0.44619   0.00000  Uiso   1.00
C325   C     0.76644   0.71670   0.45410   0.00000  Uiso   1.00
C326   C     0.87024   0.74358   0.46421   0.00000  Uiso   1.00
C327   C     0.04577   0.74317   0.48190   0.00000  Uiso   1.00
C328   C     0.50796   0.86258   0.45283   0.00000  Uiso   1.00
C329   C     0.41467   0.82464   0.46632   0.00000  Uiso   1.00
C330   C     0.35760   0.90089   0.48201   0.00000  Uiso   1.00
C331   C     0.23641   0.99153   0.51000   0.00000  Uiso   1.00
C332   C     0.58488   0.85275   0.40743   0.00000  Uiso   1.00
C333   C     0.55622   0.80656   0.38275   0.00000  Uiso   1.00
C334   C     0.56387   0.87454   0.36023   0.00000  Uiso   1.00
C335   C     0.56210   0.94993   0.31773   0.00000  Uiso   1.00
C336   C     0.64708   0.99630   0.43848   0.00000  Uiso   1.00
C337   C     0.73410   0.91415   0.44830   0.00000  Uiso   1.00
C338   C     0.83783   0.94117   0.45840   0.00000  Uiso   1.00
C339   C     0.90535   0.85397   0.46632   0.00000  Uiso   1.00
C340   C     0.54301   0.97278   0.45494   0.00000  Uiso   1.00
C341   C     0.48606   0.04910   0.47062   0.00000  Uiso   1.00
C342   C     0.39270   0.01128   0.48413   0.00000  Uiso   1.00
C343   C     0.61992   0.96295   0.40954   0.00000  Uiso   1.00
C344   C     0.62761   0.03103   0.38705   0.00000  Uiso   1.00
C345   C     0.59898   0.98494   0.36235   0.00000  Uiso   1.00
H346   H     0.55527   0.70762   0.43295   0.00000  Uiso   1.00
H347   H     0.73928   0.63143   0.45246   0.00000  Uiso   1.00
H348   H     0.38756   0.73935   0.46468   0.00000  Uiso   1.00
H349   H     0.52910   0.72128   0.38113   0.00000  Uiso   1.00
H350   H     0.95873   0.59555   0.47504   0.00000  Uiso   1.00
H351   H     0.21709   0.82313   0.50078   0.00000  Uiso   1.00
H352   H     0.51554   0.78501   0.32460   0.00000  Uiso   1.00
H353   H     0.67437   0.08210   0.44012   0.00000  Uiso   1.00
H354   H     0.86492   0.02645   0.46003   0.00000  Uiso   1.00
H355   H     0.51320   0.13438   0.47225   0.00000  Uiso   1.00
H356   H     0.65474   0.11630   0.38870   0.00000  Uiso   1.00
H357   H     0.06070   0.91617   0.48118   0.00000  Uiso   1.00
H358   H     0.31905   0.14375   0.50693   0.00000  Uiso   1.00
H359   H     0.61751   0.10563   0.33074   0.00000  Uiso   1.00
O360   O     0.13291   0.71250   0.49108   0.00000  Uiso   1.00
O361   O     0.15989   0.01108   0.52486   0.00000  Uiso   1.00
O362   O     0.55146   0.96106   0.29371   0.00000  Uiso   1.00
N363   N     0.95659   0.67864   0.47375   0.00000  Uiso   1.00
N364   N     0.26321   0.89141   0.49782   0.00000  Uiso   1.00
N365   N     0.54221   0.85578   0.33311   0.00000  Uiso   1.00
N366   N     0.01146   0.85117   0.47705   0.00000  Uiso   1.00
N367   N     0.31808   0.06393   0.50113   0.00000  Uiso   1.00
N368   N     0.59708   0.02831   0.33641   0.00000  Uiso   1.00
