data_job_00924
_audit_creation_date              2018-12-19
_audit_creation_method            'Materials Studio'
_symmetry_space_group_name_H-M    'P1'
_symmetry_Int_Tables_number       1
_symmetry_cell_setting            triclinic
loop_
_symmetry_equiv_pos_as_xyz
  x,y,z
_cell_length_a                    30.0102
_cell_length_b                    9.9364
_cell_length_c                    20.3468
_cell_angle_alpha                 90.0000
_cell_angle_beta                  56.4493
_cell_angle_gamma                 90.0000
loop_
_atom_site_label
_atom_site_type_symbol
_atom_site_fract_x
_atom_site_fract_y
_atom_site_fract_z
_atom_site_U_iso_or_equiv
_atom_site_adp_type
_atom_site_occupancy
C1     C     0.64165   0.99445   0.77381   0.00000  Uiso   1.00
C2     C     0.62804   0.09001   0.72870   0.00000  Uiso   1.00
C3     C     0.63280   0.22912   0.72636   0.00000  Uiso   1.00
C4     C     0.61828   0.29855   0.68173   0.00000  Uiso   1.00
C5     C     0.59994   0.45717   0.61792   0.00000  Uiso   1.00
C6     C     0.59106   0.91314   0.82820   0.00000  Uiso   1.00
C7     C     0.56474   0.90353   0.90952   0.00000  Uiso   1.00
C8     C     0.51911   0.82405   0.94864   0.00000  Uiso   1.00
C9     C     0.44339   0.70801   0.03931   0.00000  Uiso   1.00
C10    C     0.68239   0.89519   0.71305   0.00000  Uiso   1.00
C11    C     0.73286   0.87045   0.69757   0.00000  Uiso   1.00
C12    C     0.76412   0.77584   0.63976   0.00000  Uiso   1.00
C13    C     0.83021   0.63192   0.55164   0.00000  Uiso   1.00
C14    C     0.60742   0.87037   0.69869   0.00000  Uiso   1.00
C15    C     0.60944   0.02260   0.68790   0.00000  Uiso   1.00
C16    C     0.59492   0.09184   0.64325   0.00000  Uiso   1.00
C17    C     0.59966   0.23103   0.64085   0.00000  Uiso   1.00
C18    C     0.57247   0.84574   0.78740   0.00000  Uiso   1.00
C19    C     0.52687   0.76625   0.82641   0.00000  Uiso   1.00
C20    C     0.50048   0.75653   0.90777   0.00000  Uiso   1.00
C21    C     0.66380   0.82779   0.67225   0.00000  Uiso   1.00
C22    C     0.69498   0.73318   0.61446   0.00000  Uiso   1.00
C23    C     0.74549   0.70832   0.59888   0.00000  Uiso   1.00
H24    H     0.65613   0.04692   0.80558   0.00000  Uiso   1.00
H25    H     0.64718   0.28124   0.75796   0.00000  Uiso   1.00
H26    H     0.57915   0.95569   0.94108   0.00000  Uiso   1.00
H27    H     0.74724   0.92263   0.72916   0.00000  Uiso   1.00
H28    H     0.62905   0.51131   0.68718   0.00000  Uiso   1.00
H29    H     0.48560   0.82483   0.07331   0.00000  Uiso   1.00
H30    H     0.84005   0.75511   0.62644   0.00000  Uiso   1.00
H31    H     0.59294   0.81790   0.66692   0.00000  Uiso   1.00
H32    H     0.58053   0.03965   0.61168   0.00000  Uiso   1.00
H33    H     0.51249   0.71410   0.79481   0.00000  Uiso   1.00
H34    H     0.68058   0.68105   0.58289   0.00000  Uiso   1.00
H35    H     0.57495   0.31523   0.56847   0.00000  Uiso   1.00
H36    H     0.43150   0.62875   0.95460   0.00000  Uiso   1.00
H37    H     0.78595   0.55903   0.50772   0.00000  Uiso   1.00
O38    O     0.59496   0.56328   0.59401   0.00000  Uiso   1.00
O39    O     0.40676   0.66263   0.10059   0.00000  Uiso   1.00
O40    O     0.87180   0.57117   0.51430   0.00000  Uiso   1.00
N41    N     0.61803   0.43473   0.66681   0.00000  Uiso   1.00
N42    N     0.48390   0.79293   0.02782   0.00000  Uiso   1.00
N43    N     0.81529   0.72772   0.61004   0.00000  Uiso   1.00
N44    N     0.58892   0.32922   0.60293   0.00000  Uiso   1.00
N45    N     0.45479   0.68742   0.96394   0.00000  Uiso   1.00
N46    N     0.78617   0.62221   0.54616   0.00000  Uiso   1.00
C47    C     0.14165   0.49445   0.77381   0.00000  Uiso   1.00
C48    C     0.12804   0.59001   0.72870   0.00000  Uiso   1.00
C49    C     0.13280   0.72912   0.72636   0.00000  Uiso   1.00
C50    C     0.11828   0.79855   0.68173   0.00000  Uiso   1.00
C51    C     0.09994   0.95717   0.61792   0.00000  Uiso   1.00
C52    C     0.09106   0.41314   0.82820   0.00000  Uiso   1.00
C53    C     0.06474   0.40353   0.90952   0.00000  Uiso   1.00
C54    C     0.01911   0.32405   0.94864   0.00000  Uiso   1.00
C55    C     0.94339   0.20801   0.03931   0.00000  Uiso   1.00
C56    C     0.18239   0.39519   0.71305   0.00000  Uiso   1.00
C57    C     0.23286   0.37045   0.69757   0.00000  Uiso   1.00
C58    C     0.26412   0.27584   0.63976   0.00000  Uiso   1.00
C59    C     0.33021   0.13192   0.55164   0.00000  Uiso   1.00
C60    C     0.10742   0.37037   0.69869   0.00000  Uiso   1.00
C61    C     0.10944   0.52260   0.68790   0.00000  Uiso   1.00
C62    C     0.09492   0.59184   0.64325   0.00000  Uiso   1.00
C63    C     0.09966   0.73103   0.64085   0.00000  Uiso   1.00
C64    C     0.07247   0.34574   0.78740   0.00000  Uiso   1.00
C65    C     0.02687   0.26625   0.82641   0.00000  Uiso   1.00
C66    C     0.00048   0.25653   0.90777   0.00000  Uiso   1.00
C67    C     0.16380   0.32779   0.67225   0.00000  Uiso   1.00
C68    C     0.19498   0.23318   0.61446   0.00000  Uiso   1.00
C69    C     0.24549   0.20832   0.59888   0.00000  Uiso   1.00
H70    H     0.15613   0.54692   0.80558   0.00000  Uiso   1.00
H71    H     0.14718   0.78124   0.75796   0.00000  Uiso   1.00
H72    H     0.07915   0.45569   0.94108   0.00000  Uiso   1.00
H73    H     0.24724   0.42263   0.72916   0.00000  Uiso   1.00
H74    H     0.12905   0.01131   0.68718   0.00000  Uiso   1.00
H75    H     0.98560   0.32483   0.07331   0.00000  Uiso   1.00
H76    H     0.34005   0.25511   0.62644   0.00000  Uiso   1.00
H77    H     0.09294   0.31790   0.66692   0.00000  Uiso   1.00
H78    H     0.08053   0.53965   0.61168   0.00000  Uiso   1.00
H79    H     0.01249   0.21410   0.79481   0.00000  Uiso   1.00
H80    H     0.18058   0.18105   0.58289   0.00000  Uiso   1.00
H81    H     0.07495   0.81523   0.56847   0.00000  Uiso   1.00
H82    H     0.93150   0.12875   0.95460   0.00000  Uiso   1.00
H83    H     0.28595   0.05903   0.50772   0.00000  Uiso   1.00
O84    O     0.09496   0.06328   0.59401   0.00000  Uiso   1.00
O85    O     0.90676   0.16263   0.10059   0.00000  Uiso   1.00
O86    O     0.37180   0.07117   0.51430   0.00000  Uiso   1.00
N87    N     0.11803   0.93473   0.66681   0.00000  Uiso   1.00
N88    N     0.98390   0.29293   0.02782   0.00000  Uiso   1.00
N89    N     0.31529   0.22772   0.61004   0.00000  Uiso   1.00
N90    N     0.08892   0.82922   0.60293   0.00000  Uiso   1.00
N91    N     0.95479   0.18742   0.96394   0.00000  Uiso   1.00
N92    N     0.28617   0.12221   0.54616   0.00000  Uiso   1.00
C93    C     0.35835   0.99445   0.72619   0.00000  Uiso   1.00
C94    C     0.37196   0.09001   0.77130   0.00000  Uiso   1.00
C95    C     0.36720   0.22912   0.77364   0.00000  Uiso   1.00
C96    C     0.38172   0.29855   0.81827   0.00000  Uiso   1.00
C97    C     0.40006   0.45717   0.88208   0.00000  Uiso   1.00
C98    C     0.40894   0.91314   0.67180   0.00000  Uiso   1.00
C99    C     0.43526   0.90353   0.59048   0.00000  Uiso   1.00
C100   C     0.48089   0.82405   0.55136   0.00000  Uiso   1.00
C101   C     0.55661   0.70801   0.46069   0.00000  Uiso   1.00
C102   C     0.31761   0.89519   0.78695   0.00000  Uiso   1.00
C103   C     0.26714   0.87045   0.80243   0.00000  Uiso   1.00
C104   C     0.23588   0.77584   0.86024   0.00000  Uiso   1.00
C105   C     0.16979   0.63192   0.94836   0.00000  Uiso   1.00
C106   C     0.39258   0.87037   0.80131   0.00000  Uiso   1.00
C107   C     0.39056   0.02260   0.81210   0.00000  Uiso   1.00
C108   C     0.40508   0.09184   0.85675   0.00000  Uiso   1.00
C109   C     0.40034   0.23103   0.85915   0.00000  Uiso   1.00
C110   C     0.42753   0.84574   0.71260   0.00000  Uiso   1.00
C111   C     0.47313   0.76625   0.67359   0.00000  Uiso   1.00
C112   C     0.49952   0.75653   0.59223   0.00000  Uiso   1.00
C113   C     0.33620   0.82779   0.82775   0.00000  Uiso   1.00
C114   C     0.30502   0.73318   0.88554   0.00000  Uiso   1.00
C115   C     0.25451   0.70832   0.90112   0.00000  Uiso   1.00
H116   H     0.34387   0.04692   0.69442   0.00000  Uiso   1.00
H117   H     0.35282   0.28124   0.74204   0.00000  Uiso   1.00
H118   H     0.42085   0.95569   0.55892   0.00000  Uiso   1.00
H119   H     0.25276   0.92263   0.77084   0.00000  Uiso   1.00
H120   H     0.37095   0.51131   0.81282   0.00000  Uiso   1.00
H121   H     0.51440   0.82483   0.42669   0.00000  Uiso   1.00
H122   H     0.15995   0.75511   0.87356   0.00000  Uiso   1.00
H123   H     0.40706   0.81790   0.83308   0.00000  Uiso   1.00
H124   H     0.41947   0.03965   0.88832   0.00000  Uiso   1.00
H125   H     0.48751   0.71410   0.70519   0.00000  Uiso   1.00
H126   H     0.31942   0.68105   0.91711   0.00000  Uiso   1.00
H127   H     0.42505   0.31523   0.93153   0.00000  Uiso   1.00
H128   H     0.56850   0.62875   0.54540   0.00000  Uiso   1.00
H129   H     0.21405   0.55903   0.99228   0.00000  Uiso   1.00
O130   O     0.40504   0.56328   0.90599   0.00000  Uiso   1.00
O131   O     0.59324   0.66263   0.39941   0.00000  Uiso   1.00
O132   O     0.12820   0.57117   0.98570   0.00000  Uiso   1.00
N133   N     0.38197   0.43473   0.83319   0.00000  Uiso   1.00
N134   N     0.51610   0.79293   0.47218   0.00000  Uiso   1.00
N135   N     0.18471   0.72772   0.88996   0.00000  Uiso   1.00
N136   N     0.41108   0.32922   0.89707   0.00000  Uiso   1.00
N137   N     0.54521   0.68742   0.53606   0.00000  Uiso   1.00
N138   N     0.21383   0.62221   0.95384   0.00000  Uiso   1.00
C139   C     0.85835   0.49445   0.72619   0.00000  Uiso   1.00
C140   C     0.87196   0.59001   0.77130   0.00000  Uiso   1.00
C141   C     0.86720   0.72912   0.77364   0.00000  Uiso   1.00
C142   C     0.88172   0.79855   0.81827   0.00000  Uiso   1.00
C143   C     0.90006   0.95717   0.88208   0.00000  Uiso   1.00
C144   C     0.90894   0.41314   0.67180   0.00000  Uiso   1.00
C145   C     0.93526   0.40353   0.59048   0.00000  Uiso   1.00
C146   C     0.98089   0.32405   0.55136   0.00000  Uiso   1.00
C147   C     0.05661   0.20801   0.46069   0.00000  Uiso   1.00
C148   C     0.81761   0.39519   0.78695   0.00000  Uiso   1.00
C149   C     0.76714   0.37045   0.80243   0.00000  Uiso   1.00
C150   C     0.73588   0.27584   0.86024   0.00000  Uiso   1.00
C151   C     0.66979   0.13192   0.94836   0.00000  Uiso   1.00
C152   C     0.89258   0.37037   0.80131   0.00000  Uiso   1.00
C153   C     0.89056   0.52260   0.81210   0.00000  Uiso   1.00
C154   C     0.90508   0.59184   0.85675   0.00000  Uiso   1.00
C155   C     0.90034   0.73103   0.85915   0.00000  Uiso   1.00
C156   C     0.92753   0.34574   0.71260   0.00000  Uiso   1.00
C157   C     0.97313   0.26625   0.67359   0.00000  Uiso   1.00
C158   C     0.99952   0.25653   0.59223   0.00000  Uiso   1.00
C159   C     0.83620   0.32779   0.82775   0.00000  Uiso   1.00
C160   C     0.80502   0.23318   0.88554   0.00000  Uiso   1.00
C161   C     0.75451   0.20832   0.90112   0.00000  Uiso   1.00
H162   H     0.84387   0.54692   0.69442   0.00000  Uiso   1.00
H163   H     0.85282   0.78124   0.74204   0.00000  Uiso   1.00
H164   H     0.92085   0.45569   0.55892   0.00000  Uiso   1.00
H165   H     0.75276   0.42263   0.77084   0.00000  Uiso   1.00
H166   H     0.87095   0.01131   0.81282   0.00000  Uiso   1.00
H167   H     0.01440   0.32483   0.42669   0.00000  Uiso   1.00
H168   H     0.65995   0.25511   0.87356   0.00000  Uiso   1.00
H169   H     0.90706   0.31790   0.83308   0.00000  Uiso   1.00
H170   H     0.91947   0.53965   0.88832   0.00000  Uiso   1.00
H171   H     0.98751   0.21410   0.70519   0.00000  Uiso   1.00
H172   H     0.81942   0.18105   0.91711   0.00000  Uiso   1.00
H173   H     0.92505   0.81523   0.93153   0.00000  Uiso   1.00
H174   H     0.06850   0.12875   0.54540   0.00000  Uiso   1.00
H175   H     0.71405   0.05903   0.99228   0.00000  Uiso   1.00
O176   O     0.90504   0.06328   0.90599   0.00000  Uiso   1.00
O177   O     0.09324   0.16263   0.39941   0.00000  Uiso   1.00
O178   O     0.62820   0.07117   0.98570   0.00000  Uiso   1.00
N179   N     0.88197   0.93473   0.83319   0.00000  Uiso   1.00
N180   N     0.01610   0.29293   0.47218   0.00000  Uiso   1.00
N181   N     0.68471   0.22772   0.88996   0.00000  Uiso   1.00
N182   N     0.91108   0.82922   0.89707   0.00000  Uiso   1.00
N183   N     0.04521   0.18742   0.53606   0.00000  Uiso   1.00
N184   N     0.71383   0.12221   0.95384   0.00000  Uiso   1.00
C185   C     0.35835   0.00555   0.22619   0.00000  Uiso   1.00
C186   C     0.37196   0.90999   0.27130   0.00000  Uiso   1.00
C187   C     0.36720   0.77088   0.27364   0.00000  Uiso   1.00
C188   C     0.38172   0.70145   0.31827   0.00000  Uiso   1.00
C189   C     0.40006   0.54283   0.38208   0.00000  Uiso   1.00
C190   C     0.40894   0.08686   0.17180   0.00000  Uiso   1.00
C191   C     0.43526   0.09647   0.09048   0.00000  Uiso   1.00
C192   C     0.48089   0.17595   0.05136   0.00000  Uiso   1.00
C193   C     0.55661   0.29199   0.96069   0.00000  Uiso   1.00
C194   C     0.31761   0.10481   0.28695   0.00000  Uiso   1.00
C195   C     0.26714   0.12955   0.30243   0.00000  Uiso   1.00
C196   C     0.23588   0.22416   0.36024   0.00000  Uiso   1.00
C197   C     0.16979   0.36808   0.44836   0.00000  Uiso   1.00
C198   C     0.39258   0.12963   0.30131   0.00000  Uiso   1.00
C199   C     0.39056   0.97740   0.31210   0.00000  Uiso   1.00
C200   C     0.40508   0.90816   0.35675   0.00000  Uiso   1.00
C201   C     0.40034   0.76897   0.35915   0.00000  Uiso   1.00
C202   C     0.42753   0.15426   0.21260   0.00000  Uiso   1.00
C203   C     0.47313   0.23375   0.17359   0.00000  Uiso   1.00
C204   C     0.49952   0.24347   0.09223   0.00000  Uiso   1.00
C205   C     0.33620   0.17221   0.32775   0.00000  Uiso   1.00
C206   C     0.30502   0.26682   0.38554   0.00000  Uiso   1.00
C207   C     0.25451   0.29168   0.40112   0.00000  Uiso   1.00
H208   H     0.34387   0.95308   0.19442   0.00000  Uiso   1.00
H209   H     0.35282   0.71876   0.24204   0.00000  Uiso   1.00
H210   H     0.42085   0.04431   0.05892   0.00000  Uiso   1.00
H211   H     0.25276   0.07737   0.27084   0.00000  Uiso   1.00
H212   H     0.37095   0.48869   0.31282   0.00000  Uiso   1.00
H213   H     0.51440   0.17517   0.92669   0.00000  Uiso   1.00
H214   H     0.15995   0.24489   0.37356   0.00000  Uiso   1.00
H215   H     0.40706   0.18210   0.33308   0.00000  Uiso   1.00
H216   H     0.41947   0.96035   0.38832   0.00000  Uiso   1.00
H217   H     0.48751   0.28590   0.20519   0.00000  Uiso   1.00
H218   H     0.31942   0.31895   0.41711   0.00000  Uiso   1.00
H219   H     0.42505   0.68477   0.43153   0.00000  Uiso   1.00
H220   H     0.56850   0.37125   0.04540   0.00000  Uiso   1.00
H221   H     0.21405   0.44097   0.49228   0.00000  Uiso   1.00
O222   O     0.40504   0.43672   0.40599   0.00000  Uiso   1.00
O223   O     0.59324   0.33737   0.89941   0.00000  Uiso   1.00
O224   O     0.12820   0.42883   0.48570   0.00000  Uiso   1.00
N225   N     0.38197   0.56527   0.33319   0.00000  Uiso   1.00
N226   N     0.51610   0.20707   0.97218   0.00000  Uiso   1.00
N227   N     0.18471   0.27228   0.38996   0.00000  Uiso   1.00
N228   N     0.41108   0.67078   0.39707   0.00000  Uiso   1.00
N229   N     0.54521   0.31258   0.03606   0.00000  Uiso   1.00
N230   N     0.21383   0.37779   0.45384   0.00000  Uiso   1.00
C231   C     0.85835   0.50555   0.22619   0.00000  Uiso   1.00
C232   C     0.87196   0.40999   0.27130   0.00000  Uiso   1.00
C233   C     0.86720   0.27088   0.27364   0.00000  Uiso   1.00
C234   C     0.88172   0.20145   0.31827   0.00000  Uiso   1.00
C235   C     0.90006   0.04283   0.38208   0.00000  Uiso   1.00
C236   C     0.90894   0.58686   0.17180   0.00000  Uiso   1.00
C237   C     0.93526   0.59647   0.09048   0.00000  Uiso   1.00
C238   C     0.98089   0.67595   0.05136   0.00000  Uiso   1.00
C239   C     0.05661   0.79199   0.96069   0.00000  Uiso   1.00
C240   C     0.81761   0.60481   0.28695   0.00000  Uiso   1.00
C241   C     0.76714   0.62955   0.30243   0.00000  Uiso   1.00
C242   C     0.73588   0.72416   0.36024   0.00000  Uiso   1.00
C243   C     0.66979   0.86808   0.44836   0.00000  Uiso   1.00
C244   C     0.89258   0.62963   0.30131   0.00000  Uiso   1.00
C245   C     0.89056   0.47740   0.31210   0.00000  Uiso   1.00
C246   C     0.90508   0.40816   0.35675   0.00000  Uiso   1.00
C247   C     0.90034   0.26897   0.35915   0.00000  Uiso   1.00
C248   C     0.92753   0.65426   0.21260   0.00000  Uiso   1.00
C249   C     0.97313   0.73375   0.17359   0.00000  Uiso   1.00
C250   C     0.99952   0.74347   0.09223   0.00000  Uiso   1.00
C251   C     0.83620   0.67221   0.32775   0.00000  Uiso   1.00
C252   C     0.80502   0.76682   0.38554   0.00000  Uiso   1.00
C253   C     0.75451   0.79168   0.40112   0.00000  Uiso   1.00
H254   H     0.84387   0.45308   0.19442   0.00000  Uiso   1.00
H255   H     0.85282   0.21876   0.24204   0.00000  Uiso   1.00
H256   H     0.92085   0.54431   0.05892   0.00000  Uiso   1.00
H257   H     0.75276   0.57737   0.27084   0.00000  Uiso   1.00
H258   H     0.87095   0.98869   0.31282   0.00000  Uiso   1.00
H259   H     0.01440   0.67517   0.92669   0.00000  Uiso   1.00
H260   H     0.65995   0.74489   0.37356   0.00000  Uiso   1.00
H261   H     0.90706   0.68210   0.33308   0.00000  Uiso   1.00
H262   H     0.91947   0.46035   0.38832   0.00000  Uiso   1.00
H263   H     0.98751   0.78590   0.20519   0.00000  Uiso   1.00
H264   H     0.81942   0.81895   0.41711   0.00000  Uiso   1.00
H265   H     0.92505   0.18477   0.43153   0.00000  Uiso   1.00
H266   H     0.06850   0.87125   0.04540   0.00000  Uiso   1.00
H267   H     0.71405   0.94097   0.49228   0.00000  Uiso   1.00
O268   O     0.90504   0.93672   0.40599   0.00000  Uiso   1.00
O269   O     0.09324   0.83737   0.89941   0.00000  Uiso   1.00
O270   O     0.62820   0.92883   0.48570   0.00000  Uiso   1.00
N271   N     0.88197   0.06527   0.33319   0.00000  Uiso   1.00
N272   N     0.01610   0.70707   0.97218   0.00000  Uiso   1.00
N273   N     0.68471   0.77228   0.38996   0.00000  Uiso   1.00
N274   N     0.91108   0.17078   0.39707   0.00000  Uiso   1.00
N275   N     0.04521   0.81258   0.03606   0.00000  Uiso   1.00
N276   N     0.71383   0.87779   0.45384   0.00000  Uiso   1.00
C277   C     0.64165   0.00555   0.27381   0.00000  Uiso   1.00
C278   C     0.62804   0.90999   0.22870   0.00000  Uiso   1.00
C279   C     0.63280   0.77088   0.22636   0.00000  Uiso   1.00
C280   C     0.61828   0.70145   0.18173   0.00000  Uiso   1.00
C281   C     0.59994   0.54283   0.11792   0.00000  Uiso   1.00
C282   C     0.59106   0.08686   0.32820   0.00000  Uiso   1.00
C283   C     0.56474   0.09647   0.40952   0.00000  Uiso   1.00
C284   C     0.51911   0.17595   0.44864   0.00000  Uiso   1.00
C285   C     0.44339   0.29199   0.53931   0.00000  Uiso   1.00
C286   C     0.68239   0.10481   0.21305   0.00000  Uiso   1.00
C287   C     0.73286   0.12955   0.19757   0.00000  Uiso   1.00
C288   C     0.76412   0.22416   0.13976   0.00000  Uiso   1.00
C289   C     0.83021   0.36808   0.05164   0.00000  Uiso   1.00
C290   C     0.60742   0.12963   0.19869   0.00000  Uiso   1.00
C291   C     0.60944   0.97740   0.18790   0.00000  Uiso   1.00
C292   C     0.59492   0.90816   0.14325   0.00000  Uiso   1.00
C293   C     0.59966   0.76897   0.14085   0.00000  Uiso   1.00
C294   C     0.57247   0.15426   0.28740   0.00000  Uiso   1.00
C295   C     0.52687   0.23375   0.32641   0.00000  Uiso   1.00
C296   C     0.50048   0.24347   0.40777   0.00000  Uiso   1.00
C297   C     0.66380   0.17221   0.17225   0.00000  Uiso   1.00
C298   C     0.69498   0.26682   0.11446   0.00000  Uiso   1.00
C299   C     0.74549   0.29168   0.09888   0.00000  Uiso   1.00
H300   H     0.65613   0.95308   0.30558   0.00000  Uiso   1.00
H301   H     0.64718   0.71876   0.25796   0.00000  Uiso   1.00
H302   H     0.57915   0.04431   0.44108   0.00000  Uiso   1.00
H303   H     0.74724   0.07737   0.22916   0.00000  Uiso   1.00
H304   H     0.62905   0.48869   0.18718   0.00000  Uiso   1.00
H305   H     0.48560   0.17517   0.57331   0.00000  Uiso   1.00
H306   H     0.84005   0.24489   0.12644   0.00000  Uiso   1.00
H307   H     0.59294   0.18210   0.16692   0.00000  Uiso   1.00
H308   H     0.58053   0.96035   0.11168   0.00000  Uiso   1.00
H309   H     0.51249   0.28590   0.29481   0.00000  Uiso   1.00
H310   H     0.68058   0.31895   0.08289   0.00000  Uiso   1.00
H311   H     0.57495   0.68477   0.06847   0.00000  Uiso   1.00
H312   H     0.43150   0.37125   0.45460   0.00000  Uiso   1.00
H313   H     0.78595   0.44097   0.00772   0.00000  Uiso   1.00
O314   O     0.59496   0.43672   0.09401   0.00000  Uiso   1.00
O315   O     0.40676   0.33737   0.60059   0.00000  Uiso   1.00
O316   O     0.87180   0.42883   0.01430   0.00000  Uiso   1.00
N317   N     0.61803   0.56527   0.16681   0.00000  Uiso   1.00
N318   N     0.48390   0.20707   0.52782   0.00000  Uiso   1.00
N319   N     0.81529   0.27228   0.11004   0.00000  Uiso   1.00
N320   N     0.58892   0.67078   0.10293   0.00000  Uiso   1.00
N321   N     0.45479   0.31258   0.46394   0.00000  Uiso   1.00
N322   N     0.78617   0.37779   0.04616   0.00000  Uiso   1.00
C323   C     0.14165   0.50555   0.27381   0.00000  Uiso   1.00
C324   C     0.12804   0.40999   0.22870   0.00000  Uiso   1.00
C325   C     0.13280   0.27088   0.22636   0.00000  Uiso   1.00
C326   C     0.11828   0.20145   0.18173   0.00000  Uiso   1.00
C327   C     0.09994   0.04283   0.11792   0.00000  Uiso   1.00
C328   C     0.09106   0.58686   0.32820   0.00000  Uiso   1.00
C329   C     0.06474   0.59647   0.40952   0.00000  Uiso   1.00
C330   C     0.01911   0.67595   0.44864   0.00000  Uiso   1.00
C331   C     0.94339   0.79199   0.53931   0.00000  Uiso   1.00
C332   C     0.18239   0.60481   0.21305   0.00000  Uiso   1.00
C333   C     0.23286   0.62955   0.19757   0.00000  Uiso   1.00
C334   C     0.26412   0.72416   0.13976   0.00000  Uiso   1.00
C335   C     0.33021   0.86808   0.05164   0.00000  Uiso   1.00
C336   C     0.10742   0.62963   0.19869   0.00000  Uiso   1.00
C337   C     0.10944   0.47740   0.18790   0.00000  Uiso   1.00
C338   C     0.09492   0.40816   0.14325   0.00000  Uiso   1.00
C339   C     0.09966   0.26897   0.14085   0.00000  Uiso   1.00
C340   C     0.07247   0.65426   0.28740   0.00000  Uiso   1.00
C341   C     0.02687   0.73375   0.32641   0.00000  Uiso   1.00
C342   C     0.00048   0.74347   0.40777   0.00000  Uiso   1.00
C343   C     0.16380   0.67221   0.17225   0.00000  Uiso   1.00
C344   C     0.19498   0.76682   0.11446   0.00000  Uiso   1.00
C345   C     0.24549   0.79168   0.09888   0.00000  Uiso   1.00
H346   H     0.15613   0.45308   0.30558   0.00000  Uiso   1.00
H347   H     0.14718   0.21876   0.25796   0.00000  Uiso   1.00
H348   H     0.07915   0.54431   0.44108   0.00000  Uiso   1.00
H349   H     0.24724   0.57737   0.22916   0.00000  Uiso   1.00
H350   H     0.12905   0.98869   0.18718   0.00000  Uiso   1.00
H351   H     0.98560   0.67517   0.57331   0.00000  Uiso   1.00
H352   H     0.34005   0.74489   0.12644   0.00000  Uiso   1.00
H353   H     0.09294   0.68210   0.16692   0.00000  Uiso   1.00
H354   H     0.08053   0.46035   0.11168   0.00000  Uiso   1.00
H355   H     0.01249   0.78590   0.29481   0.00000  Uiso   1.00
H356   H     0.18058   0.81895   0.08289   0.00000  Uiso   1.00
H357   H     0.07495   0.18477   0.06847   0.00000  Uiso   1.00
H358   H     0.93150   0.87125   0.45460   0.00000  Uiso   1.00
H359   H     0.28595   0.94097   0.00772   0.00000  Uiso   1.00
O360   O     0.09496   0.93672   0.09401   0.00000  Uiso   1.00
O361   O     0.90676   0.83737   0.60059   0.00000  Uiso   1.00
O362   O     0.37180   0.92883   0.01430   0.00000  Uiso   1.00
N363   N     0.11803   0.06527   0.16681   0.00000  Uiso   1.00
N364   N     0.98390   0.70707   0.52782   0.00000  Uiso   1.00
N365   N     0.31529   0.77228   0.11004   0.00000  Uiso   1.00
N366   N     0.08892   0.17078   0.10293   0.00000  Uiso   1.00
N367   N     0.95479   0.81258   0.46394   0.00000  Uiso   1.00
N368   N     0.28617   0.87779   0.04616   0.00000  Uiso   1.00
