data_job_06215
_audit_creation_date              2018-12-19
_audit_creation_method            'Materials Studio'
_symmetry_space_group_name_H-M    'P1'
_symmetry_Int_Tables_number       1
_symmetry_cell_setting            triclinic
loop_
_symmetry_equiv_pos_as_xyz
  x,y,z
_cell_length_a                    17.9105
_cell_length_b                    17.5505
_cell_length_c                    17.0616
_cell_angle_alpha                 108.4790
_cell_angle_beta                  108.6250
_cell_angle_gamma                 108.3670
loop_
_atom_site_label
_atom_site_type_symbol
_atom_site_fract_x
_atom_site_fract_y
_atom_site_fract_z
_atom_site_U_iso_or_equiv
_atom_site_adp_type
_atom_site_occupancy
C1     C     0.18336   0.50317   0.70633   0.00000  Uiso   1.00
C2     C     0.19156   0.46014   0.77149   0.00000  Uiso   1.00
C3     C     0.21006   0.38747   0.76045   0.00000  Uiso   1.00
C4     C     0.21477   0.35807   0.82763   0.00000  Uiso   1.00
C5     C     0.22949   0.28487   0.91730   0.00000  Uiso   1.00
C6     C     0.09159   0.49874   0.67563   0.00000  Uiso   1.00
C7     C     0.02606   0.45854   0.58401   0.00000  Uiso   1.00
C8     C     0.94662   0.46164   0.57051   0.00000  Uiso   1.00
C9     C     0.80617   0.44842   0.51136   0.00000  Uiso   1.00
C10    C     0.25009   0.60340   0.76707   0.00000  Uiso   1.00
C11    C     0.31782   0.65121   0.75232   0.00000  Uiso   1.00
C12    C     0.37181   0.74245   0.81579   0.00000  Uiso   1.00
C13    C     0.47745   0.89173   0.89862   0.00000  Uiso   1.00
C14    C     0.15882   0.58019   0.84526   0.00000  Uiso   1.00
C15    C     0.17823   0.50197   0.84694   0.00000  Uiso   1.00
C16    C     0.18291   0.47268   0.91416   0.00000  Uiso   1.00
C17    C     0.20143   0.39998   0.90323   0.00000  Uiso   1.00
C18    C     0.07826   0.54057   0.75109   0.00000  Uiso   1.00
C19    C     0.99891   0.54374   0.73772   0.00000  Uiso   1.00
C20    C     0.93327   0.50355   0.64610   0.00000  Uiso   1.00
C21    C     0.23677   0.64524   0.84254   0.00000  Uiso   1.00
C22    C     0.29067   0.73642   0.90604   0.00000  Uiso   1.00
C23    C     0.35846   0.78436   0.89139   0.00000  Uiso   1.00
H24    H     0.19373   0.47060   0.64758   0.00000  Uiso   1.00
H25    H     0.22037   0.35511   0.70204   0.00000  Uiso   1.00
H26    H     0.03640   0.42618   0.52563   0.00000  Uiso   1.00
H27    H     0.32811   0.61882   0.69392   0.00000  Uiso   1.00
H28    H     0.24399   0.24550   0.79568   0.00000  Uiso   1.00
H29    H     0.85608   0.39536   0.42371   0.00000  Uiso   1.00
H30    H     0.47122   0.80159   0.77858   0.00000  Uiso   1.00
H31    H     0.14844   0.61276   0.90401   0.00000  Uiso   1.00
H32    H     0.17260   0.50507   0.97255   0.00000  Uiso   1.00
H33    H     0.98862   0.57613   0.79613   0.00000  Uiso   1.00
H34    H     0.28033   0.76877   0.96442   0.00000  Uiso   1.00
H35    H     0.20521   0.36720   0.01523   0.00000  Uiso   1.00
H36    H     0.81730   0.51707   0.64326   0.00000  Uiso   1.00
H37    H     0.43244   0.92330   0.99813   0.00000  Uiso   1.00
O38    O     0.24128   0.23292   0.94590   0.00000  Uiso   1.00
O39    O     0.73237   0.42956   0.45788   0.00000  Uiso   1.00
O40    O     0.53941   0.96251   0.92347   0.00000  Uiso   1.00
N41    N     0.23157   0.28893   0.83796   0.00000  Uiso   1.00
N42    N     0.86889   0.42904   0.49018   0.00000  Uiso   1.00
N43    N     0.44398   0.80883   0.82194   0.00000  Uiso   1.00
N44    N     0.21070   0.35442   0.95610   0.00000  Uiso   1.00
N45    N     0.84803   0.49452   0.60832   0.00000  Uiso   1.00
N46    N     0.42311   0.87432   0.94008   0.00000  Uiso   1.00
C47    C     0.71106   0.18371   0.50250   0.00000  Uiso   1.00
C48    C     0.77253   0.19131   0.45765   0.00000  Uiso   1.00
C49    C     0.76161   0.21001   0.38275   0.00000  Uiso   1.00
C50    C     0.82508   0.21409   0.35195   0.00000  Uiso   1.00
C51    C     0.90958   0.22800   0.27580   0.00000  Uiso   1.00
C52    C     0.68171   0.09018   0.49792   0.00000  Uiso   1.00
C53    C     0.59443   0.02386   0.45689   0.00000  Uiso   1.00
C54    C     0.58146   0.94281   0.46001   0.00000  Uiso   1.00
C55    C     0.52496   0.79974   0.44644   0.00000  Uiso   1.00
C56    C     0.76950   0.25179   0.60572   0.00000  Uiso   1.00
C57    C     0.75602   0.32134   0.65534   0.00000  Uiso   1.00
C58    C     0.81694   0.37635   0.74922   0.00000  Uiso   1.00
C59    C     0.89675   0.48420   0.90302   0.00000  Uiso   1.00
C60    C     0.84320   0.15769   0.58101   0.00000  Uiso   1.00
C61    C     0.84430   0.17718   0.50030   0.00000  Uiso   1.00
C62    C     0.90781   0.18123   0.46961   0.00000  Uiso   1.00
C63    C     0.89698   0.19994   0.39468   0.00000  Uiso   1.00
C64    C     0.75348   0.07605   0.54057   0.00000  Uiso   1.00
C65    C     0.74063   0.99508   0.54375   0.00000  Uiso   1.00
C66    C     0.65336   0.92865   0.50273   0.00000  Uiso   1.00
C67    C     0.84127   0.23766   0.64837   0.00000  Uiso   1.00
C68    C     0.90222   0.29256   0.74220   0.00000  Uiso   1.00
C69    C     0.88884   0.36219   0.79194   0.00000  Uiso   1.00
H70    H     0.65518   0.19470   0.46930   0.00000  Uiso   1.00
H71    H     0.70605   0.22093   0.34976   0.00000  Uiso   1.00
H72    H     0.53890   0.03482   0.42390   0.00000  Uiso   1.00
H73    H     0.70047   0.33225   0.62232   0.00000  Uiso   1.00
H74    H     0.79408   0.24375   0.23602   0.00000  Uiso   1.00
H75    H     0.44165   0.85133   0.39237   0.00000  Uiso   1.00
H76    H     0.78234   0.47854   0.81077   0.00000  Uiso   1.00
H77    H     0.89908   0.14669   0.61421   0.00000  Uiso   1.00
H78    H     0.96334   0.17029   0.50262   0.00000  Uiso   1.00
H79    H     0.79619   0.98417   0.57676   0.00000  Uiso   1.00
H80    H     0.95776   0.28161   0.77517   0.00000  Uiso   1.00
H81    H     0.00291   0.20264   0.36008   0.00000  Uiso   1.00
H82    H     0.65047   0.81022   0.51644   0.00000  Uiso   1.00
H83    H     0.99116   0.43743   0.93483   0.00000  Uiso   1.00
O84    O     0.93635   0.23956   0.22201   0.00000  Uiso   1.00
O85    O     0.47397   0.72473   0.42716   0.00000  Uiso   1.00
O86    O     0.92094   0.54761   0.97607   0.00000  Uiso   1.00
N87    N     0.83442   0.23086   0.28054   0.00000  Uiso   1.00
N88    N     0.50491   0.86396   0.42671   0.00000  Uiso   1.00
N89    N     0.82342   0.45033   0.81788   0.00000  Uiso   1.00
N90    N     0.94679   0.20874   0.34730   0.00000  Uiso   1.00
N91    N     0.61728   0.84184   0.49347   0.00000  Uiso   1.00
N92    N     0.93578   0.42821   0.88464   0.00000  Uiso   1.00
C93    C     0.50426   0.70934   0.18326   0.00000  Uiso   1.00
C94    C     0.46196   0.77260   0.19156   0.00000  Uiso   1.00
C95    C     0.39108   0.76220   0.21135   0.00000  Uiso   1.00
C96    C     0.36208   0.82737   0.21591   0.00000  Uiso   1.00
C97    C     0.29022   0.91448   0.23099   0.00000  Uiso   1.00
C98    C     0.49919   0.67898   0.08667   0.00000  Uiso   1.00
C99    C     0.45962   0.58987   0.01828   0.00000  Uiso   1.00
C100   C     0.46197   0.57623   0.93455   0.00000  Uiso   1.00
C101   C     0.44797   0.51799   0.78681   0.00000  Uiso   1.00
C102   C     0.60270   0.76841   0.25298   0.00000  Uiso   1.00
C103   C     0.65017   0.75449   0.32442   0.00000  Uiso   1.00
C104   C     0.73968   0.81614   0.38071   0.00000  Uiso   1.00
C105   C     0.88639   0.89676   0.49120   0.00000  Uiso   1.00
C106   C     0.57881   0.84356   0.15618   0.00000  Uiso   1.00
C107   C     0.50245   0.84550   0.17684   0.00000  Uiso   1.00
C108   C     0.47356   0.91070   0.18138   0.00000  Uiso   1.00
C109   C     0.40265   0.90041   0.20118   0.00000  Uiso   1.00
C110   C     0.53968   0.75188   0.07196   0.00000  Uiso   1.00
C111   C     0.54210   0.73837   0.98831   0.00000  Uiso   1.00
C112   C     0.50254   0.64926   0.91981   0.00000  Uiso   1.00
C113   C     0.64319   0.84132   0.23828   0.00000  Uiso   1.00
C114   C     0.73265   0.90300   0.29446   0.00000  Uiso   1.00
C115   C     0.78025   0.88917   0.36597   0.00000  Uiso   1.00
H116   H     0.47273   0.65257   0.19471   0.00000  Uiso   1.00
H117   H     0.35975   0.70576   0.22272   0.00000  Uiso   1.00
H118   H     0.42830   0.53346   0.02969   0.00000  Uiso   1.00
H119   H     0.61882   0.69806   0.33578   0.00000  Uiso   1.00
H120   H     0.25233   0.79687   0.24726   0.00000  Uiso   1.00
H121   H     0.39688   0.43356   0.84025   0.00000  Uiso   1.00
H122   H     0.79864   0.78065   0.48571   0.00000  Uiso   1.00
H123   H     0.61033   0.90032   0.14472   0.00000  Uiso   1.00
H124   H     0.50491   0.96711   0.17000   0.00000  Uiso   1.00
H125   H     0.57345   0.79481   0.97696   0.00000  Uiso   1.00
H126   H     0.76397   0.95941   0.28305   0.00000  Uiso   1.00
H127   H     0.37014   0.00899   0.20446   0.00000  Uiso   1.00
H128   H     0.51470   0.64567   0.79745   0.00000  Uiso   1.00
H129   H     0.91645   0.99277   0.44291   0.00000  Uiso   1.00
O130   O     0.23938   0.94238   0.24335   0.00000  Uiso   1.00
O131   O     0.42904   0.46573   0.70938   0.00000  Uiso   1.00
O132   O     0.95613   0.92110   0.55621   0.00000  Uiso   1.00
N133   N     0.29454   0.83764   0.23373   0.00000  Uiso   1.00
N134   N     0.42967   0.49796   0.85320   0.00000  Uiso   1.00
N135   N     0.80528   0.82245   0.45664   0.00000  Uiso   1.00
N136   N     0.35793   0.95178   0.21071   0.00000  Uiso   1.00
N137   N     0.49306   0.61210   0.83017   0.00000  Uiso   1.00
N138   N     0.86868   0.93659   0.43361   0.00000  Uiso   1.00
C139   C     0.81664   0.49683   0.29367   0.00000  Uiso   1.00
C140   C     0.80844   0.53986   0.22851   0.00000  Uiso   1.00
C141   C     0.78994   0.61253   0.23955   0.00000  Uiso   1.00
C142   C     0.78523   0.64193   0.17237   0.00000  Uiso   1.00
C143   C     0.77051   0.71513   0.08270   0.00000  Uiso   1.00
C144   C     0.90841   0.50126   0.32437   0.00000  Uiso   1.00
C145   C     0.97394   0.54146   0.41599   0.00000  Uiso   1.00
C146   C     0.05338   0.53835   0.42949   0.00000  Uiso   1.00
C147   C     0.19383   0.55158   0.48864   0.00000  Uiso   1.00
C148   C     0.74991   0.39660   0.23293   0.00000  Uiso   1.00
C149   C     0.68218   0.34879   0.24768   0.00000  Uiso   1.00
C150   C     0.62819   0.25755   0.18421   0.00000  Uiso   1.00
C151   C     0.52255   0.10827   0.10138   0.00000  Uiso   1.00
C152   C     0.84118   0.41981   0.15474   0.00000  Uiso   1.00
C153   C     0.82177   0.49803   0.15306   0.00000  Uiso   1.00
C154   C     0.81709   0.52732   0.08584   0.00000  Uiso   1.00
C155   C     0.79857   0.60002   0.09677   0.00000  Uiso   1.00
C156   C     0.92174   0.45943   0.24891   0.00000  Uiso   1.00
C157   C     0.00109   0.45626   0.26228   0.00000  Uiso   1.00
C158   C     0.06673   0.49645   0.35390   0.00000  Uiso   1.00
C159   C     0.76323   0.35476   0.15746   0.00000  Uiso   1.00
C160   C     0.70933   0.26358   0.09396   0.00000  Uiso   1.00
C161   C     0.64154   0.21564   0.10861   0.00000  Uiso   1.00
H162   H     0.80627   0.52940   0.35242   0.00000  Uiso   1.00
H163   H     0.77963   0.64489   0.29796   0.00000  Uiso   1.00
H164   H     0.96360   0.57382   0.47437   0.00000  Uiso   1.00
H165   H     0.67189   0.38118   0.30608   0.00000  Uiso   1.00
H166   H     0.75601   0.75450   0.20432   0.00000  Uiso   1.00
H167   H     0.14392   0.60463   0.57629   0.00000  Uiso   1.00
H168   H     0.52878   0.19841   0.22142   0.00000  Uiso   1.00
H169   H     0.85156   0.38724   0.09599   0.00000  Uiso   1.00
H170   H     0.82741   0.49493   0.02745   0.00000  Uiso   1.00
H171   H     0.01138   0.42387   0.20387   0.00000  Uiso   1.00
H172   H     0.71967   0.23123   0.03558   0.00000  Uiso   1.00
H173   H     0.79479   0.63280   0.98477   0.00000  Uiso   1.00
H174   H     0.18270   0.48293   0.35674   0.00000  Uiso   1.00
H175   H     0.56756   0.07670   0.00187   0.00000  Uiso   1.00
O176   O     0.75872   0.76708   0.05410   0.00000  Uiso   1.00
O177   O     0.26763   0.57044   0.54212   0.00000  Uiso   1.00
O178   O     0.46059   0.03749   0.07653   0.00000  Uiso   1.00
N179   N     0.76843   0.71107   0.16204   0.00000  Uiso   1.00
N180   N     0.13111   0.57096   0.50982   0.00000  Uiso   1.00
N181   N     0.55602   0.19117   0.17806   0.00000  Uiso   1.00
N182   N     0.78930   0.64558   0.04390   0.00000  Uiso   1.00
N183   N     0.15197   0.50547   0.39168   0.00000  Uiso   1.00
N184   N     0.57689   0.12568   0.05992   0.00000  Uiso   1.00
C185   C     0.28894   0.81629   0.49750   0.00000  Uiso   1.00
C186   C     0.22747   0.80869   0.54235   0.00000  Uiso   1.00
C187   C     0.23839   0.78999   0.61725   0.00000  Uiso   1.00
C188   C     0.17492   0.78591   0.64805   0.00000  Uiso   1.00
C189   C     0.09042   0.77200   0.72420   0.00000  Uiso   1.00
C190   C     0.31829   0.90982   0.50208   0.00000  Uiso   1.00
C191   C     0.40557   0.97614   0.54311   0.00000  Uiso   1.00
C192   C     0.41854   0.05719   0.53999   0.00000  Uiso   1.00
C193   C     0.47504   0.20026   0.55356   0.00000  Uiso   1.00
C194   C     0.23050   0.74821   0.39428   0.00000  Uiso   1.00
C195   C     0.24398   0.67866   0.34466   0.00000  Uiso   1.00
C196   C     0.18306   0.62365   0.25078   0.00000  Uiso   1.00
C197   C     0.10325   0.51580   0.09698   0.00000  Uiso   1.00
C198   C     0.15680   0.84231   0.41899   0.00000  Uiso   1.00
C199   C     0.15570   0.82282   0.49970   0.00000  Uiso   1.00
C200   C     0.09219   0.81877   0.53039   0.00000  Uiso   1.00
C201   C     0.10302   0.80006   0.60532   0.00000  Uiso   1.00
C202   C     0.24652   0.92395   0.45943   0.00000  Uiso   1.00
C203   C     0.25937   0.00492   0.45625   0.00000  Uiso   1.00
C204   C     0.34664   0.07135   0.49727   0.00000  Uiso   1.00
C205   C     0.15873   0.76234   0.35163   0.00000  Uiso   1.00
C206   C     0.09778   0.70744   0.25780   0.00000  Uiso   1.00
C207   C     0.11116   0.63781   0.20806   0.00000  Uiso   1.00
H208   H     0.34482   0.80530   0.53070   0.00000  Uiso   1.00
H209   H     0.29395   0.77907   0.65024   0.00000  Uiso   1.00
H210   H     0.46110   0.96518   0.57610   0.00000  Uiso   1.00
H211   H     0.29953   0.66774   0.37768   0.00000  Uiso   1.00
H212   H     0.20592   0.75625   0.76398   0.00000  Uiso   1.00
H213   H     0.55835   0.14867   0.60763   0.00000  Uiso   1.00
H214   H     0.21766   0.52146   0.18923   0.00000  Uiso   1.00
H215   H     0.10092   0.85331   0.38579   0.00000  Uiso   1.00
H216   H     0.03666   0.82971   0.49738   0.00000  Uiso   1.00
H217   H     0.20381   0.01583   0.42324   0.00000  Uiso   1.00
H218   H     0.04224   0.71839   0.22483   0.00000  Uiso   1.00
H219   H     0.99709   0.79736   0.63992   0.00000  Uiso   1.00
H220   H     0.34953   0.18978   0.48356   0.00000  Uiso   1.00
H221   H     0.00884   0.56257   0.06517   0.00000  Uiso   1.00
O222   O     0.06365   0.76044   0.77799   0.00000  Uiso   1.00
O223   O     0.52603   0.27527   0.57284   0.00000  Uiso   1.00
O224   O     0.07906   0.45239   0.02393   0.00000  Uiso   1.00
N225   N     0.16558   0.76914   0.71946   0.00000  Uiso   1.00
N226   N     0.49509   0.13604   0.57329   0.00000  Uiso   1.00
N227   N     0.17658   0.54967   0.18212   0.00000  Uiso   1.00
N228   N     0.05321   0.79126   0.65270   0.00000  Uiso   1.00
N229   N     0.38272   0.15816   0.50653   0.00000  Uiso   1.00
N230   N     0.06422   0.57179   0.11536   0.00000  Uiso   1.00
C231   C     0.49575   0.29066   0.81674   0.00000  Uiso   1.00
C232   C     0.53804   0.22740   0.80844   0.00000  Uiso   1.00
C233   C     0.60892   0.23780   0.78865   0.00000  Uiso   1.00
C234   C     0.63792   0.17263   0.78409   0.00000  Uiso   1.00
C235   C     0.70978   0.08552   0.76901   0.00000  Uiso   1.00
C236   C     0.50081   0.32102   0.91333   0.00000  Uiso   1.00
C237   C     0.54038   0.41013   0.98172   0.00000  Uiso   1.00
C238   C     0.53803   0.42377   0.06545   0.00000  Uiso   1.00
C239   C     0.55203   0.48201   0.21319   0.00000  Uiso   1.00
C240   C     0.39730   0.23159   0.74701   0.00000  Uiso   1.00
C241   C     0.34983   0.24551   0.67558   0.00000  Uiso   1.00
C242   C     0.26032   0.18386   0.61929   0.00000  Uiso   1.00
C243   C     0.11361   0.10324   0.50880   0.00000  Uiso   1.00
C244   C     0.42120   0.15644   0.84382   0.00000  Uiso   1.00
C245   C     0.49755   0.15450   0.82316   0.00000  Uiso   1.00
C246   C     0.52644   0.08930   0.81861   0.00000  Uiso   1.00
C247   C     0.59735   0.09959   0.79882   0.00000  Uiso   1.00
C248   C     0.46032   0.24812   0.92804   0.00000  Uiso   1.00
C249   C     0.45790   0.26163   0.01169   0.00000  Uiso   1.00
C250   C     0.49746   0.35074   0.08019   0.00000  Uiso   1.00
C251   C     0.35681   0.15868   0.76172   0.00000  Uiso   1.00
C252   C     0.26735   0.09700   0.70554   0.00000  Uiso   1.00
C253   C     0.21975   0.11083   0.63403   0.00000  Uiso   1.00
H254   H     0.52727   0.34743   0.80529   0.00000  Uiso   1.00
H255   H     0.64025   0.29424   0.77728   0.00000  Uiso   1.00
H256   H     0.57171   0.46654   0.97031   0.00000  Uiso   1.00
H257   H     0.38118   0.30194   0.66422   0.00000  Uiso   1.00
H258   H     0.74767   0.20313   0.75274   0.00000  Uiso   1.00
H259   H     0.60312   0.56644   0.15975   0.00000  Uiso   1.00
H260   H     0.20136   0.21935   0.51429   0.00000  Uiso   1.00
H261   H     0.38967   0.09968   0.85528   0.00000  Uiso   1.00
H262   H     0.49509   0.03289   0.83000   0.00000  Uiso   1.00
H263   H     0.42655   0.20519   0.02304   0.00000  Uiso   1.00
H264   H     0.23603   0.04059   0.71695   0.00000  Uiso   1.00
H265   H     0.62986   0.99101   0.79554   0.00000  Uiso   1.00
H266   H     0.48531   0.35433   0.20255   0.00000  Uiso   1.00
H267   H     0.08355   0.00723   0.55709   0.00000  Uiso   1.00
O268   O     0.76062   0.05762   0.75665   0.00000  Uiso   1.00
O269   O     0.57096   0.53427   0.29062   0.00000  Uiso   1.00
O270   O     0.04387   0.07890   0.44379   0.00000  Uiso   1.00
N271   N     0.70546   0.16236   0.76627   0.00000  Uiso   1.00
N272   N     0.57033   0.50204   0.14680   0.00000  Uiso   1.00
N273   N     0.19472   0.17755   0.54336   0.00000  Uiso   1.00
N274   N     0.64207   0.04822   0.78929   0.00000  Uiso   1.00
N275   N     0.50694   0.38790   0.16983   0.00000  Uiso   1.00
N276   N     0.13132   0.06341   0.56639   0.00000  Uiso   1.00
