data_job_05441
_audit_creation_date              2018-12-19
_audit_creation_method            'Materials Studio'
_symmetry_space_group_name_H-M    'P1'
_symmetry_Int_Tables_number       1
_symmetry_cell_setting            triclinic
loop_
_symmetry_equiv_pos_as_xyz
  x,y,z
_cell_length_a                    43.4503
_cell_length_b                    22.2671
_cell_length_c                    7.2084
_cell_angle_alpha                 90.0000
_cell_angle_beta                  90.0000
_cell_angle_gamma                 90.0000
loop_
_atom_site_label
_atom_site_type_symbol
_atom_site_fract_x
_atom_site_fract_y
_atom_site_fract_z
_atom_site_U_iso_or_equiv
_atom_site_adp_type
_atom_site_occupancy
C1     C     0.84894   0.70024   0.49173   0.00000  Uiso   1.00
C2     C     0.82630   0.66283   0.37872   0.00000  Uiso   1.00
C3     C     0.80205   0.62947   0.45009   0.00000  Uiso   1.00
C4     C     0.78397   0.59832   0.32376   0.00000  Uiso   1.00
C5     C     0.74792   0.53987   0.17732   0.00000  Uiso   1.00
C6     C     0.88089   0.67687   0.44233   0.00000  Uiso   1.00
C7     C     0.90255   0.65532   0.56720   0.00000  Uiso   1.00
C8     C     0.93043   0.63600   0.49441   0.00000  Uiso   1.00
C9     C     0.97915   0.59939   0.44675   0.00000  Uiso   1.00
C10    C     0.84716   0.76376   0.41341   0.00000  Uiso   1.00
C11    C     0.84047   0.81528   0.51396   0.00000  Uiso   1.00
C12    C     0.83996   0.86912   0.41684   0.00000  Uiso   1.00
C13    C     0.83630   0.96743   0.32427   0.00000  Uiso   1.00
C14    C     0.85993   0.70424   0.14046   0.00000  Uiso   1.00
C15    C     0.83227   0.66500   0.18793   0.00000  Uiso   1.00
C16    C     0.81422   0.63389   0.06145   0.00000  Uiso   1.00
C17    C     0.78995   0.60049   0.13262   0.00000  Uiso   1.00
C18    C     0.88687   0.67904   0.25155   0.00000  Uiso   1.00
C19    C     0.91472   0.65975   0.17856   0.00000  Uiso   1.00
C20    C     0.93642   0.63817   0.30328   0.00000  Uiso   1.00
C21    C     0.85313   0.76593   0.22262   0.00000  Uiso   1.00
C22    C     0.85264   0.81970   0.12532   0.00000  Uiso   1.00
C23    C     0.84594   0.87130   0.22570   0.00000  Uiso   1.00
H24    H     0.84429   0.69855   0.64027   0.00000  Uiso   1.00
H25    H     0.79744   0.62779   0.59775   0.00000  Uiso   1.00
H26    H     0.89793   0.65365   0.71484   0.00000  Uiso   1.00
H27    H     0.83585   0.81358   0.66160   0.00000  Uiso   1.00
H28    H     0.74814   0.55029   0.46648   0.00000  Uiso   1.00
H29    H     0.96002   0.60483   0.71337   0.00000  Uiso   1.00
H30    H     0.82913   0.94208   0.60113   0.00000  Uiso   1.00
H31    H     0.86458   0.70593   0.99192   0.00000  Uiso   1.00
H32    H     0.81885   0.63558   0.91382   0.00000  Uiso   1.00
H33    H     0.91933   0.66144   0.03091   0.00000  Uiso   1.00
H34    H     0.85726   0.82137   0.97768   0.00000  Uiso   1.00
H35    H     0.76552   0.55661   0.91137   0.00000  Uiso   1.00
H36    H     0.97740   0.61115   0.15827   0.00000  Uiso   1.00
H37    H     0.84650   0.94840   0.04602   0.00000  Uiso   1.00
O38    O     0.72638   0.50702   0.14925   0.00000  Uiso   1.00
O39    O     0.00437   0.57859   0.47318   0.00000  Uiso   1.00
O40    O     0.83263   0.02105   0.32591   0.00000  Uiso   1.00
N41    N     0.75850   0.56144   0.34655   0.00000  Uiso   1.00
N42    N     0.95660   0.61243   0.57738   0.00000  Uiso   1.00
N43    N     0.83423   0.92773   0.47245   0.00000  Uiso   1.00
N44    N     0.76785   0.56484   0.04785   0.00000  Uiso   1.00
N45    N     0.96595   0.61583   0.27868   0.00000  Uiso   1.00
N46    N     0.84358   0.93113   0.17375   0.00000  Uiso   1.00
C47    C     0.34894   0.20024   0.49173   0.00000  Uiso   1.00
C48    C     0.32630   0.16283   0.37872   0.00000  Uiso   1.00
C49    C     0.30205   0.12947   0.45009   0.00000  Uiso   1.00
C50    C     0.28397   0.09832   0.32376   0.00000  Uiso   1.00
C51    C     0.24792   0.03987   0.17732   0.00000  Uiso   1.00
C52    C     0.38089   0.17687   0.44233   0.00000  Uiso   1.00
C53    C     0.40255   0.15532   0.56720   0.00000  Uiso   1.00
C54    C     0.43043   0.13600   0.49441   0.00000  Uiso   1.00
C55    C     0.47915   0.09939   0.44675   0.00000  Uiso   1.00
C56    C     0.34716   0.26376   0.41341   0.00000  Uiso   1.00
C57    C     0.34047   0.31528   0.51396   0.00000  Uiso   1.00
C58    C     0.33996   0.36912   0.41684   0.00000  Uiso   1.00
C59    C     0.33630   0.46743   0.32427   0.00000  Uiso   1.00
C60    C     0.35993   0.20424   0.14046   0.00000  Uiso   1.00
C61    C     0.33227   0.16500   0.18793   0.00000  Uiso   1.00
C62    C     0.31422   0.13389   0.06145   0.00000  Uiso   1.00
C63    C     0.28995   0.10049   0.13262   0.00000  Uiso   1.00
C64    C     0.38687   0.17904   0.25155   0.00000  Uiso   1.00
C65    C     0.41472   0.15975   0.17856   0.00000  Uiso   1.00
C66    C     0.43642   0.13817   0.30328   0.00000  Uiso   1.00
C67    C     0.35313   0.26593   0.22262   0.00000  Uiso   1.00
C68    C     0.35264   0.31970   0.12532   0.00000  Uiso   1.00
C69    C     0.34594   0.37130   0.22570   0.00000  Uiso   1.00
H70    H     0.34429   0.19855   0.64027   0.00000  Uiso   1.00
H71    H     0.29744   0.12779   0.59775   0.00000  Uiso   1.00
H72    H     0.39793   0.15365   0.71484   0.00000  Uiso   1.00
H73    H     0.33585   0.31358   0.66160   0.00000  Uiso   1.00
H74    H     0.24814   0.05029   0.46648   0.00000  Uiso   1.00
H75    H     0.46002   0.10483   0.71337   0.00000  Uiso   1.00
H76    H     0.32913   0.44208   0.60113   0.00000  Uiso   1.00
H77    H     0.36458   0.20593   0.99192   0.00000  Uiso   1.00
H78    H     0.31885   0.13558   0.91382   0.00000  Uiso   1.00
H79    H     0.41933   0.16144   0.03091   0.00000  Uiso   1.00
H80    H     0.35726   0.32137   0.97768   0.00000  Uiso   1.00
H81    H     0.26552   0.05661   0.91137   0.00000  Uiso   1.00
H82    H     0.47740   0.11115   0.15827   0.00000  Uiso   1.00
H83    H     0.34650   0.44840   0.04602   0.00000  Uiso   1.00
O84    O     0.22638   0.00702   0.14925   0.00000  Uiso   1.00
O85    O     0.50437   0.07859   0.47318   0.00000  Uiso   1.00
O86    O     0.33263   0.52105   0.32591   0.00000  Uiso   1.00
N87    N     0.25850   0.06144   0.34655   0.00000  Uiso   1.00
N88    N     0.45660   0.11243   0.57738   0.00000  Uiso   1.00
N89    N     0.33423   0.42773   0.47245   0.00000  Uiso   1.00
N90    N     0.26785   0.06484   0.04785   0.00000  Uiso   1.00
N91    N     0.46595   0.11583   0.27868   0.00000  Uiso   1.00
N92    N     0.34358   0.43113   0.17375   0.00000  Uiso   1.00
C93    C     0.15106   0.29976   0.49173   0.00000  Uiso   1.00
C94    C     0.17370   0.33717   0.37872   0.00000  Uiso   1.00
C95    C     0.19795   0.37053   0.45009   0.00000  Uiso   1.00
C96    C     0.21603   0.40168   0.32376   0.00000  Uiso   1.00
C97    C     0.25208   0.46013   0.17732   0.00000  Uiso   1.00
C98    C     0.11911   0.32313   0.44233   0.00000  Uiso   1.00
C99    C     0.09745   0.34468   0.56720   0.00000  Uiso   1.00
C100   C     0.06957   0.36400   0.49441   0.00000  Uiso   1.00
C101   C     0.02085   0.40061   0.44675   0.00000  Uiso   1.00
C102   C     0.15284   0.23624   0.41341   0.00000  Uiso   1.00
C103   C     0.15953   0.18472   0.51396   0.00000  Uiso   1.00
C104   C     0.16004   0.13088   0.41684   0.00000  Uiso   1.00
C105   C     0.16370   0.03257   0.32427   0.00000  Uiso   1.00
C106   C     0.14007   0.29576   0.14046   0.00000  Uiso   1.00
C107   C     0.16773   0.33500   0.18793   0.00000  Uiso   1.00
C108   C     0.18578   0.36611   0.06145   0.00000  Uiso   1.00
C109   C     0.21005   0.39951   0.13262   0.00000  Uiso   1.00
C110   C     0.11313   0.32096   0.25155   0.00000  Uiso   1.00
C111   C     0.08528   0.34025   0.17856   0.00000  Uiso   1.00
C112   C     0.06358   0.36183   0.30328   0.00000  Uiso   1.00
C113   C     0.14687   0.23407   0.22262   0.00000  Uiso   1.00
C114   C     0.14736   0.18030   0.12532   0.00000  Uiso   1.00
C115   C     0.15406   0.12870   0.22570   0.00000  Uiso   1.00
H116   H     0.15571   0.30145   0.64027   0.00000  Uiso   1.00
H117   H     0.20256   0.37221   0.59775   0.00000  Uiso   1.00
H118   H     0.10207   0.34635   0.71484   0.00000  Uiso   1.00
H119   H     0.16415   0.18642   0.66160   0.00000  Uiso   1.00
H120   H     0.25186   0.44971   0.46648   0.00000  Uiso   1.00
H121   H     0.03998   0.39517   0.71337   0.00000  Uiso   1.00
H122   H     0.17087   0.05792   0.60113   0.00000  Uiso   1.00
H123   H     0.13542   0.29407   0.99192   0.00000  Uiso   1.00
H124   H     0.18115   0.36442   0.91382   0.00000  Uiso   1.00
H125   H     0.08067   0.33856   0.03091   0.00000  Uiso   1.00
H126   H     0.14274   0.17863   0.97768   0.00000  Uiso   1.00
H127   H     0.23448   0.44339   0.91137   0.00000  Uiso   1.00
H128   H     0.02260   0.38885   0.15827   0.00000  Uiso   1.00
H129   H     0.15350   0.05160   0.04602   0.00000  Uiso   1.00
O130   O     0.27362   0.49298   0.14925   0.00000  Uiso   1.00
O131   O     0.99563   0.42141   0.47318   0.00000  Uiso   1.00
O132   O     0.16737   0.97895   0.32591   0.00000  Uiso   1.00
N133   N     0.24150   0.43856   0.34655   0.00000  Uiso   1.00
N134   N     0.04340   0.38757   0.57738   0.00000  Uiso   1.00
N135   N     0.16577   0.07227   0.47245   0.00000  Uiso   1.00
N136   N     0.23215   0.43516   0.04785   0.00000  Uiso   1.00
N137   N     0.03405   0.38417   0.27868   0.00000  Uiso   1.00
N138   N     0.15642   0.06887   0.17375   0.00000  Uiso   1.00
C139   C     0.65106   0.79976   0.49173   0.00000  Uiso   1.00
C140   C     0.67370   0.83717   0.37872   0.00000  Uiso   1.00
C141   C     0.69795   0.87053   0.45009   0.00000  Uiso   1.00
C142   C     0.71603   0.90168   0.32376   0.00000  Uiso   1.00
C143   C     0.75208   0.96013   0.17732   0.00000  Uiso   1.00
C144   C     0.61911   0.82313   0.44233   0.00000  Uiso   1.00
C145   C     0.59745   0.84468   0.56720   0.00000  Uiso   1.00
C146   C     0.56957   0.86400   0.49441   0.00000  Uiso   1.00
C147   C     0.52085   0.90061   0.44675   0.00000  Uiso   1.00
C148   C     0.65284   0.73624   0.41341   0.00000  Uiso   1.00
C149   C     0.65953   0.68472   0.51396   0.00000  Uiso   1.00
C150   C     0.66004   0.63088   0.41684   0.00000  Uiso   1.00
C151   C     0.66370   0.53257   0.32427   0.00000  Uiso   1.00
C152   C     0.64007   0.79576   0.14046   0.00000  Uiso   1.00
C153   C     0.66773   0.83500   0.18793   0.00000  Uiso   1.00
C154   C     0.68578   0.86611   0.06145   0.00000  Uiso   1.00
C155   C     0.71005   0.89951   0.13262   0.00000  Uiso   1.00
C156   C     0.61313   0.82096   0.25155   0.00000  Uiso   1.00
C157   C     0.58528   0.84025   0.17856   0.00000  Uiso   1.00
C158   C     0.56358   0.86183   0.30328   0.00000  Uiso   1.00
C159   C     0.64687   0.73407   0.22262   0.00000  Uiso   1.00
C160   C     0.64736   0.68030   0.12532   0.00000  Uiso   1.00
C161   C     0.65406   0.62870   0.22570   0.00000  Uiso   1.00
H162   H     0.65571   0.80145   0.64027   0.00000  Uiso   1.00
H163   H     0.70256   0.87221   0.59775   0.00000  Uiso   1.00
H164   H     0.60207   0.84635   0.71484   0.00000  Uiso   1.00
H165   H     0.66415   0.68642   0.66160   0.00000  Uiso   1.00
H166   H     0.75186   0.94971   0.46648   0.00000  Uiso   1.00
H167   H     0.53998   0.89517   0.71337   0.00000  Uiso   1.00
H168   H     0.67087   0.55792   0.60113   0.00000  Uiso   1.00
H169   H     0.63542   0.79407   0.99192   0.00000  Uiso   1.00
H170   H     0.68115   0.86442   0.91382   0.00000  Uiso   1.00
H171   H     0.58067   0.83856   0.03091   0.00000  Uiso   1.00
H172   H     0.64274   0.67863   0.97768   0.00000  Uiso   1.00
H173   H     0.73448   0.94339   0.91137   0.00000  Uiso   1.00
H174   H     0.52260   0.88885   0.15827   0.00000  Uiso   1.00
H175   H     0.65350   0.55160   0.04602   0.00000  Uiso   1.00
O176   O     0.77362   0.99298   0.14925   0.00000  Uiso   1.00
O177   O     0.49563   0.92141   0.47318   0.00000  Uiso   1.00
O178   O     0.66737   0.47895   0.32591   0.00000  Uiso   1.00
N179   N     0.74150   0.93856   0.34655   0.00000  Uiso   1.00
N180   N     0.54340   0.88757   0.57738   0.00000  Uiso   1.00
N181   N     0.66577   0.57227   0.47245   0.00000  Uiso   1.00
N182   N     0.73215   0.93516   0.04785   0.00000  Uiso   1.00
N183   N     0.53405   0.88417   0.27868   0.00000  Uiso   1.00
N184   N     0.65642   0.56887   0.17375   0.00000  Uiso   1.00
C185   C     0.84894   0.29976   0.99173   0.00000  Uiso   1.00
C186   C     0.82630   0.33717   0.87872   0.00000  Uiso   1.00
C187   C     0.80205   0.37053   0.95009   0.00000  Uiso   1.00
C188   C     0.78397   0.40168   0.82376   0.00000  Uiso   1.00
C189   C     0.74792   0.46013   0.67732   0.00000  Uiso   1.00
C190   C     0.88089   0.32313   0.94233   0.00000  Uiso   1.00
C191   C     0.90255   0.34468   0.06720   0.00000  Uiso   1.00
C192   C     0.93043   0.36400   0.99441   0.00000  Uiso   1.00
C193   C     0.97915   0.40061   0.94675   0.00000  Uiso   1.00
C194   C     0.84716   0.23624   0.91341   0.00000  Uiso   1.00
C195   C     0.84047   0.18472   0.01396   0.00000  Uiso   1.00
C196   C     0.83996   0.13088   0.91684   0.00000  Uiso   1.00
C197   C     0.83630   0.03257   0.82427   0.00000  Uiso   1.00
C198   C     0.85993   0.29576   0.64046   0.00000  Uiso   1.00
C199   C     0.83227   0.33500   0.68793   0.00000  Uiso   1.00
C200   C     0.81422   0.36611   0.56145   0.00000  Uiso   1.00
C201   C     0.78995   0.39951   0.63262   0.00000  Uiso   1.00
C202   C     0.88687   0.32096   0.75155   0.00000  Uiso   1.00
C203   C     0.91472   0.34025   0.67856   0.00000  Uiso   1.00
C204   C     0.93642   0.36183   0.80328   0.00000  Uiso   1.00
C205   C     0.85313   0.23407   0.72262   0.00000  Uiso   1.00
C206   C     0.85264   0.18030   0.62532   0.00000  Uiso   1.00
C207   C     0.84594   0.12870   0.72570   0.00000  Uiso   1.00
H208   H     0.84429   0.30145   0.14027   0.00000  Uiso   1.00
H209   H     0.79744   0.37221   0.09775   0.00000  Uiso   1.00
H210   H     0.89793   0.34635   0.21484   0.00000  Uiso   1.00
H211   H     0.83585   0.18642   0.16160   0.00000  Uiso   1.00
H212   H     0.74814   0.44971   0.96648   0.00000  Uiso   1.00
H213   H     0.96002   0.39517   0.21337   0.00000  Uiso   1.00
H214   H     0.82913   0.05792   0.10113   0.00000  Uiso   1.00
H215   H     0.86458   0.29407   0.49192   0.00000  Uiso   1.00
H216   H     0.81885   0.36442   0.41382   0.00000  Uiso   1.00
H217   H     0.91933   0.33856   0.53091   0.00000  Uiso   1.00
H218   H     0.85726   0.17863   0.47768   0.00000  Uiso   1.00
H219   H     0.76552   0.44339   0.41137   0.00000  Uiso   1.00
H220   H     0.97740   0.38885   0.65827   0.00000  Uiso   1.00
H221   H     0.84650   0.05160   0.54602   0.00000  Uiso   1.00
O222   O     0.72638   0.49298   0.64925   0.00000  Uiso   1.00
O223   O     0.00437   0.42141   0.97318   0.00000  Uiso   1.00
O224   O     0.83263   0.97895   0.82591   0.00000  Uiso   1.00
N225   N     0.75850   0.43856   0.84655   0.00000  Uiso   1.00
N226   N     0.95660   0.38757   0.07738   0.00000  Uiso   1.00
N227   N     0.83423   0.07227   0.97245   0.00000  Uiso   1.00
N228   N     0.76785   0.43516   0.54785   0.00000  Uiso   1.00
N229   N     0.96595   0.38417   0.77868   0.00000  Uiso   1.00
N230   N     0.84358   0.06887   0.67375   0.00000  Uiso   1.00
C231   C     0.34894   0.79976   0.99173   0.00000  Uiso   1.00
C232   C     0.32630   0.83717   0.87872   0.00000  Uiso   1.00
C233   C     0.30205   0.87053   0.95009   0.00000  Uiso   1.00
C234   C     0.28397   0.90168   0.82376   0.00000  Uiso   1.00
C235   C     0.24792   0.96013   0.67732   0.00000  Uiso   1.00
C236   C     0.38089   0.82313   0.94233   0.00000  Uiso   1.00
C237   C     0.40255   0.84468   0.06720   0.00000  Uiso   1.00
C238   C     0.43043   0.86400   0.99441   0.00000  Uiso   1.00
C239   C     0.47915   0.90061   0.94675   0.00000  Uiso   1.00
C240   C     0.34716   0.73624   0.91341   0.00000  Uiso   1.00
C241   C     0.34047   0.68472   0.01396   0.00000  Uiso   1.00
C242   C     0.33996   0.63088   0.91684   0.00000  Uiso   1.00
C243   C     0.33630   0.53257   0.82427   0.00000  Uiso   1.00
C244   C     0.35993   0.79576   0.64046   0.00000  Uiso   1.00
C245   C     0.33227   0.83500   0.68793   0.00000  Uiso   1.00
C246   C     0.31422   0.86611   0.56145   0.00000  Uiso   1.00
C247   C     0.28995   0.89951   0.63262   0.00000  Uiso   1.00
C248   C     0.38687   0.82096   0.75155   0.00000  Uiso   1.00
C249   C     0.41472   0.84025   0.67856   0.00000  Uiso   1.00
C250   C     0.43642   0.86183   0.80328   0.00000  Uiso   1.00
C251   C     0.35313   0.73407   0.72262   0.00000  Uiso   1.00
C252   C     0.35264   0.68030   0.62532   0.00000  Uiso   1.00
C253   C     0.34594   0.62870   0.72570   0.00000  Uiso   1.00
H254   H     0.34429   0.80145   0.14027   0.00000  Uiso   1.00
H255   H     0.29744   0.87221   0.09775   0.00000  Uiso   1.00
H256   H     0.39793   0.84635   0.21484   0.00000  Uiso   1.00
H257   H     0.33585   0.68642   0.16160   0.00000  Uiso   1.00
H258   H     0.24814   0.94971   0.96648   0.00000  Uiso   1.00
H259   H     0.46002   0.89517   0.21337   0.00000  Uiso   1.00
H260   H     0.32913   0.55792   0.10113   0.00000  Uiso   1.00
H261   H     0.36458   0.79407   0.49192   0.00000  Uiso   1.00
H262   H     0.31885   0.86442   0.41382   0.00000  Uiso   1.00
H263   H     0.41933   0.83856   0.53091   0.00000  Uiso   1.00
H264   H     0.35726   0.67863   0.47768   0.00000  Uiso   1.00
H265   H     0.26552   0.94339   0.41137   0.00000  Uiso   1.00
H266   H     0.47740   0.88885   0.65827   0.00000  Uiso   1.00
H267   H     0.34650   0.55160   0.54602   0.00000  Uiso   1.00
O268   O     0.22638   0.99298   0.64925   0.00000  Uiso   1.00
O269   O     0.50437   0.92141   0.97318   0.00000  Uiso   1.00
O270   O     0.33263   0.47895   0.82591   0.00000  Uiso   1.00
N271   N     0.25850   0.93856   0.84655   0.00000  Uiso   1.00
N272   N     0.45660   0.88757   0.07738   0.00000  Uiso   1.00
N273   N     0.33423   0.57227   0.97245   0.00000  Uiso   1.00
N274   N     0.26785   0.93516   0.54785   0.00000  Uiso   1.00
N275   N     0.46595   0.88417   0.77868   0.00000  Uiso   1.00
N276   N     0.34358   0.56887   0.67375   0.00000  Uiso   1.00
C277   C     0.15106   0.70024   0.99173   0.00000  Uiso   1.00
C278   C     0.17370   0.66283   0.87872   0.00000  Uiso   1.00
C279   C     0.19795   0.62947   0.95009   0.00000  Uiso   1.00
C280   C     0.21603   0.59832   0.82376   0.00000  Uiso   1.00
C281   C     0.25208   0.53987   0.67732   0.00000  Uiso   1.00
C282   C     0.11911   0.67687   0.94233   0.00000  Uiso   1.00
C283   C     0.09745   0.65532   0.06720   0.00000  Uiso   1.00
C284   C     0.06957   0.63600   0.99441   0.00000  Uiso   1.00
C285   C     0.02085   0.59939   0.94675   0.00000  Uiso   1.00
C286   C     0.15284   0.76376   0.91341   0.00000  Uiso   1.00
C287   C     0.15953   0.81528   0.01396   0.00000  Uiso   1.00
C288   C     0.16004   0.86912   0.91684   0.00000  Uiso   1.00
C289   C     0.16370   0.96743   0.82427   0.00000  Uiso   1.00
C290   C     0.14007   0.70424   0.64046   0.00000  Uiso   1.00
C291   C     0.16773   0.66500   0.68793   0.00000  Uiso   1.00
C292   C     0.18578   0.63389   0.56145   0.00000  Uiso   1.00
C293   C     0.21005   0.60049   0.63262   0.00000  Uiso   1.00
C294   C     0.11313   0.67904   0.75155   0.00000  Uiso   1.00
C295   C     0.08528   0.65975   0.67856   0.00000  Uiso   1.00
C296   C     0.06358   0.63817   0.80328   0.00000  Uiso   1.00
C297   C     0.14687   0.76593   0.72262   0.00000  Uiso   1.00
C298   C     0.14736   0.81970   0.62532   0.00000  Uiso   1.00
C299   C     0.15406   0.87130   0.72570   0.00000  Uiso   1.00
H300   H     0.15571   0.69855   0.14027   0.00000  Uiso   1.00
H301   H     0.20256   0.62779   0.09775   0.00000  Uiso   1.00
H302   H     0.10207   0.65365   0.21484   0.00000  Uiso   1.00
H303   H     0.16415   0.81358   0.16160   0.00000  Uiso   1.00
H304   H     0.25186   0.55029   0.96648   0.00000  Uiso   1.00
H305   H     0.03998   0.60483   0.21337   0.00000  Uiso   1.00
H306   H     0.17087   0.94208   0.10113   0.00000  Uiso   1.00
H307   H     0.13542   0.70593   0.49192   0.00000  Uiso   1.00
H308   H     0.18115   0.63558   0.41382   0.00000  Uiso   1.00
H309   H     0.08067   0.66144   0.53091   0.00000  Uiso   1.00
H310   H     0.14274   0.82137   0.47768   0.00000  Uiso   1.00
H311   H     0.23448   0.55661   0.41137   0.00000  Uiso   1.00
H312   H     0.02260   0.61115   0.65827   0.00000  Uiso   1.00
H313   H     0.15350   0.94840   0.54602   0.00000  Uiso   1.00
O314   O     0.27362   0.50702   0.64925   0.00000  Uiso   1.00
O315   O     0.99563   0.57859   0.97318   0.00000  Uiso   1.00
O316   O     0.16737   0.02105   0.82591   0.00000  Uiso   1.00
N317   N     0.24150   0.56144   0.84655   0.00000  Uiso   1.00
N318   N     0.04340   0.61243   0.07738   0.00000  Uiso   1.00
N319   N     0.16577   0.92773   0.97245   0.00000  Uiso   1.00
N320   N     0.23215   0.56484   0.54785   0.00000  Uiso   1.00
N321   N     0.03405   0.61583   0.77868   0.00000  Uiso   1.00
N322   N     0.15642   0.93113   0.67375   0.00000  Uiso   1.00
C323   C     0.65106   0.20024   0.99173   0.00000  Uiso   1.00
C324   C     0.67370   0.16283   0.87872   0.00000  Uiso   1.00
C325   C     0.69795   0.12947   0.95009   0.00000  Uiso   1.00
C326   C     0.71603   0.09832   0.82376   0.00000  Uiso   1.00
C327   C     0.75208   0.03987   0.67732   0.00000  Uiso   1.00
C328   C     0.61911   0.17687   0.94233   0.00000  Uiso   1.00
C329   C     0.59745   0.15532   0.06720   0.00000  Uiso   1.00
C330   C     0.56957   0.13600   0.99441   0.00000  Uiso   1.00
C331   C     0.52085   0.09939   0.94675   0.00000  Uiso   1.00
C332   C     0.65284   0.26376   0.91341   0.00000  Uiso   1.00
C333   C     0.65953   0.31528   0.01396   0.00000  Uiso   1.00
C334   C     0.66004   0.36912   0.91684   0.00000  Uiso   1.00
C335   C     0.66370   0.46743   0.82427   0.00000  Uiso   1.00
C336   C     0.64007   0.20424   0.64046   0.00000  Uiso   1.00
C337   C     0.66773   0.16500   0.68793   0.00000  Uiso   1.00
C338   C     0.68578   0.13389   0.56145   0.00000  Uiso   1.00
C339   C     0.71005   0.10049   0.63262   0.00000  Uiso   1.00
C340   C     0.61313   0.17904   0.75155   0.00000  Uiso   1.00
C341   C     0.58528   0.15975   0.67856   0.00000  Uiso   1.00
C342   C     0.56358   0.13817   0.80328   0.00000  Uiso   1.00
C343   C     0.64687   0.26593   0.72262   0.00000  Uiso   1.00
C344   C     0.64736   0.31970   0.62532   0.00000  Uiso   1.00
C345   C     0.65406   0.37130   0.72570   0.00000  Uiso   1.00
H346   H     0.65571   0.19855   0.14027   0.00000  Uiso   1.00
H347   H     0.70256   0.12779   0.09775   0.00000  Uiso   1.00
H348   H     0.60207   0.15365   0.21484   0.00000  Uiso   1.00
H349   H     0.66415   0.31358   0.16160   0.00000  Uiso   1.00
H350   H     0.75186   0.05029   0.96648   0.00000  Uiso   1.00
H351   H     0.53998   0.10483   0.21337   0.00000  Uiso   1.00
H352   H     0.67087   0.44208   0.10113   0.00000  Uiso   1.00
H353   H     0.63542   0.20593   0.49192   0.00000  Uiso   1.00
H354   H     0.68115   0.13558   0.41382   0.00000  Uiso   1.00
H355   H     0.58067   0.16144   0.53091   0.00000  Uiso   1.00
H356   H     0.64274   0.32137   0.47768   0.00000  Uiso   1.00
H357   H     0.73448   0.05661   0.41137   0.00000  Uiso   1.00
H358   H     0.52260   0.11115   0.65827   0.00000  Uiso   1.00
H359   H     0.65350   0.44840   0.54602   0.00000  Uiso   1.00
O360   O     0.77362   0.00702   0.64925   0.00000  Uiso   1.00
O361   O     0.49563   0.07859   0.97318   0.00000  Uiso   1.00
O362   O     0.66737   0.52105   0.82591   0.00000  Uiso   1.00
N363   N     0.74150   0.06144   0.84655   0.00000  Uiso   1.00
N364   N     0.54340   0.11243   0.07738   0.00000  Uiso   1.00
N365   N     0.66577   0.42773   0.97245   0.00000  Uiso   1.00
N366   N     0.73215   0.06484   0.54785   0.00000  Uiso   1.00
N367   N     0.53405   0.11583   0.77868   0.00000  Uiso   1.00
N368   N     0.65642   0.43113   0.67375   0.00000  Uiso   1.00
