data_job_03712
_audit_creation_date              2018-12-19
_audit_creation_method            'Materials Studio'
_symmetry_space_group_name_H-M    'P1'
_symmetry_Int_Tables_number       1
_symmetry_cell_setting            triclinic
loop_
_symmetry_equiv_pos_as_xyz
  x,y,z
_cell_length_a                    38.1910
_cell_length_b                    12.9418
_cell_length_c                    23.2716
_cell_angle_alpha                 90.0000
_cell_angle_beta                  90.0000
_cell_angle_gamma                 90.0000
loop_
_atom_site_label
_atom_site_type_symbol
_atom_site_fract_x
_atom_site_fract_y
_atom_site_fract_z
_atom_site_U_iso_or_equiv
_atom_site_adp_type
_atom_site_occupancy
C1     C     0.33743   0.80203   0.11461   0.00000  Uiso   1.00
C2     C     0.32095   0.73830   0.06660   0.00000  Uiso   1.00
C3     C     0.29689   0.77415   0.02660   0.00000  Uiso   1.00
C4     C     0.28491   0.70373   0.98611   0.00000  Uiso   1.00
C5     C     0.25752   0.62036   0.91164   0.00000  Uiso   1.00
C6     C     0.32917   0.74506   0.17034   0.00000  Uiso   1.00
C7     C     0.31202   0.78661   0.21758   0.00000  Uiso   1.00
C8     C     0.30697   0.72188   0.26443   0.00000  Uiso   1.00
C9     C     0.29236   0.64904   0.35104   0.00000  Uiso   1.00
C10    C     0.37693   0.79332   0.10636   0.00000  Uiso   1.00
C11    C     0.39996   0.87544   0.09982   0.00000  Uiso   1.00
C12    C     0.43513   0.85134   0.09282   0.00000  Uiso   1.00
C13    C     0.49469   0.85342   0.08009   0.00000  Uiso   1.00
C14    C     0.35895   0.61320   0.11383   0.00000  Uiso   1.00
C15    C     0.33263   0.63573   0.06617   0.00000  Uiso   1.00
C16    C     0.32069   0.56524   0.02573   0.00000  Uiso   1.00
C17    C     0.29662   0.60098   0.98569   0.00000  Uiso   1.00
C18    C     0.34085   0.64250   0.16992   0.00000  Uiso   1.00
C19    C     0.33583   0.57769   0.21671   0.00000  Uiso   1.00
C20    C     0.31868   0.61913   0.26401   0.00000  Uiso   1.00
C21    C     0.38862   0.69075   0.10594   0.00000  Uiso   1.00
C22    C     0.42376   0.66652   0.09895   0.00000  Uiso   1.00
C23    C     0.44684   0.74859   0.09239   0.00000  Uiso   1.00
H24    H     0.32834   0.88188   0.11495   0.00000  Uiso   1.00
H25    H     0.28785   0.85353   0.02695   0.00000  Uiso   1.00
H26    H     0.30299   0.86599   0.21790   0.00000  Uiso   1.00
H27    H     0.39091   0.95480   0.10015   0.00000  Uiso   1.00
H28    H     0.24810   0.77686   0.92921   0.00000  Uiso   1.00
H29    H     0.28003   0.80314   0.33184   0.00000  Uiso   1.00
H30    H     0.46543   0.99042   0.08356   0.00000  Uiso   1.00
H31    H     0.36805   0.53334   0.11350   0.00000  Uiso   1.00
H32    H     0.32974   0.48587   0.02542   0.00000  Uiso   1.00
H33    H     0.34487   0.49833   0.21637   0.00000  Uiso   1.00
H34    H     0.43280   0.58714   0.09863   0.00000  Uiso   1.00
H35    H     0.28210   0.47845   0.92797   0.00000  Uiso   1.00
H36    H     0.31403   0.50473   0.33061   0.00000  Uiso   1.00
H37    H     0.49943   0.69201   0.08232   0.00000  Uiso   1.00
O38    O     0.23917   0.60271   0.87068   0.00000  Uiso   1.00
O39    O     0.28107   0.63719   0.39893   0.00000  Uiso   1.00
O40    O     0.52431   0.88290   0.07318   0.00000  Uiso   1.00
N41    N     0.26137   0.71315   0.94100   0.00000  Uiso   1.00
N42    N     0.29121   0.73772   0.31744   0.00000  Uiso   1.00
N43    N     0.46455   0.91281   0.08532   0.00000  Uiso   1.00
N44    N     0.27966   0.55258   0.94033   0.00000  Uiso   1.00
N45    N     0.30951   0.57715   0.31677   0.00000  Uiso   1.00
N46    N     0.48284   0.75224   0.08466   0.00000  Uiso   1.00
C47    C     0.83743   0.30203   0.61461   0.00000  Uiso   1.00
C48    C     0.82095   0.23830   0.56660   0.00000  Uiso   1.00
C49    C     0.79689   0.27415   0.52660   0.00000  Uiso   1.00
C50    C     0.78491   0.20373   0.48611   0.00000  Uiso   1.00
C51    C     0.75752   0.12036   0.41164   0.00000  Uiso   1.00
C52    C     0.82917   0.24506   0.67034   0.00000  Uiso   1.00
C53    C     0.81202   0.28661   0.71758   0.00000  Uiso   1.00
C54    C     0.80697   0.22188   0.76443   0.00000  Uiso   1.00
C55    C     0.79236   0.14904   0.85104   0.00000  Uiso   1.00
C56    C     0.87693   0.29332   0.60636   0.00000  Uiso   1.00
C57    C     0.89996   0.37544   0.59982   0.00000  Uiso   1.00
C58    C     0.93513   0.35134   0.59282   0.00000  Uiso   1.00
C59    C     0.99469   0.35342   0.58009   0.00000  Uiso   1.00
C60    C     0.85895   0.11320   0.61383   0.00000  Uiso   1.00
C61    C     0.83263   0.13573   0.56617   0.00000  Uiso   1.00
C62    C     0.82069   0.06524   0.52573   0.00000  Uiso   1.00
C63    C     0.79662   0.10098   0.48569   0.00000  Uiso   1.00
C64    C     0.84085   0.14250   0.66992   0.00000  Uiso   1.00
C65    C     0.83583   0.07769   0.71671   0.00000  Uiso   1.00
C66    C     0.81868   0.11913   0.76401   0.00000  Uiso   1.00
C67    C     0.88862   0.19075   0.60594   0.00000  Uiso   1.00
C68    C     0.92376   0.16652   0.59895   0.00000  Uiso   1.00
C69    C     0.94684   0.24859   0.59239   0.00000  Uiso   1.00
H70    H     0.82834   0.38188   0.61495   0.00000  Uiso   1.00
H71    H     0.78785   0.35353   0.52695   0.00000  Uiso   1.00
H72    H     0.80299   0.36599   0.71790   0.00000  Uiso   1.00
H73    H     0.89091   0.45480   0.60015   0.00000  Uiso   1.00
H74    H     0.74810   0.27686   0.42921   0.00000  Uiso   1.00
H75    H     0.78003   0.30314   0.83184   0.00000  Uiso   1.00
H76    H     0.96543   0.49042   0.58356   0.00000  Uiso   1.00
H77    H     0.86805   0.03334   0.61350   0.00000  Uiso   1.00
H78    H     0.82974   0.98587   0.52542   0.00000  Uiso   1.00
H79    H     0.84487   0.99833   0.71637   0.00000  Uiso   1.00
H80    H     0.93280   0.08714   0.59863   0.00000  Uiso   1.00
H81    H     0.78210   0.97845   0.42797   0.00000  Uiso   1.00
H82    H     0.81403   0.00473   0.83061   0.00000  Uiso   1.00
H83    H     0.99943   0.19201   0.58232   0.00000  Uiso   1.00
O84    O     0.73917   0.10271   0.37068   0.00000  Uiso   1.00
O85    O     0.78107   0.13719   0.89893   0.00000  Uiso   1.00
O86    O     0.02431   0.38290   0.57318   0.00000  Uiso   1.00
N87    N     0.76137   0.21315   0.44100   0.00000  Uiso   1.00
N88    N     0.79121   0.23772   0.81744   0.00000  Uiso   1.00
N89    N     0.96455   0.41281   0.58532   0.00000  Uiso   1.00
N90    N     0.77966   0.05258   0.44033   0.00000  Uiso   1.00
N91    N     0.80951   0.07715   0.81677   0.00000  Uiso   1.00
N92    N     0.98284   0.25224   0.58466   0.00000  Uiso   1.00
C93    C     0.66257   0.19797   0.11461   0.00000  Uiso   1.00
C94    C     0.67905   0.26170   0.06660   0.00000  Uiso   1.00
C95    C     0.70311   0.22585   0.02660   0.00000  Uiso   1.00
C96    C     0.71509   0.29627   0.98611   0.00000  Uiso   1.00
C97    C     0.74248   0.37964   0.91164   0.00000  Uiso   1.00
C98    C     0.67083   0.25494   0.17034   0.00000  Uiso   1.00
C99    C     0.68798   0.21339   0.21758   0.00000  Uiso   1.00
C100   C     0.69303   0.27812   0.26443   0.00000  Uiso   1.00
C101   C     0.70764   0.35096   0.35104   0.00000  Uiso   1.00
C102   C     0.62307   0.20668   0.10636   0.00000  Uiso   1.00
C103   C     0.60004   0.12456   0.09982   0.00000  Uiso   1.00
C104   C     0.56487   0.14866   0.09282   0.00000  Uiso   1.00
C105   C     0.50531   0.14658   0.08009   0.00000  Uiso   1.00
C106   C     0.64105   0.38680   0.11383   0.00000  Uiso   1.00
C107   C     0.66737   0.36427   0.06617   0.00000  Uiso   1.00
C108   C     0.67931   0.43476   0.02573   0.00000  Uiso   1.00
C109   C     0.70338   0.39902   0.98569   0.00000  Uiso   1.00
C110   C     0.65915   0.35750   0.16992   0.00000  Uiso   1.00
C111   C     0.66417   0.42231   0.21671   0.00000  Uiso   1.00
C112   C     0.68132   0.38087   0.26401   0.00000  Uiso   1.00
C113   C     0.61138   0.30925   0.10594   0.00000  Uiso   1.00
C114   C     0.57624   0.33348   0.09895   0.00000  Uiso   1.00
C115   C     0.55316   0.25141   0.09239   0.00000  Uiso   1.00
H116   H     0.67166   0.11812   0.11495   0.00000  Uiso   1.00
H117   H     0.71215   0.14647   0.02695   0.00000  Uiso   1.00
H118   H     0.69701   0.13401   0.21790   0.00000  Uiso   1.00
H119   H     0.60909   0.04520   0.10015   0.00000  Uiso   1.00
H120   H     0.75190   0.22314   0.92921   0.00000  Uiso   1.00
H121   H     0.71997   0.19686   0.33184   0.00000  Uiso   1.00
H122   H     0.53457   0.00958   0.08356   0.00000  Uiso   1.00
H123   H     0.63195   0.46666   0.11350   0.00000  Uiso   1.00
H124   H     0.67026   0.51413   0.02542   0.00000  Uiso   1.00
H125   H     0.65513   0.50167   0.21637   0.00000  Uiso   1.00
H126   H     0.56720   0.41286   0.09863   0.00000  Uiso   1.00
H127   H     0.71790   0.52155   0.92797   0.00000  Uiso   1.00
H128   H     0.68597   0.49527   0.33061   0.00000  Uiso   1.00
H129   H     0.50057   0.30799   0.08232   0.00000  Uiso   1.00
O130   O     0.76083   0.39729   0.87068   0.00000  Uiso   1.00
O131   O     0.71893   0.36281   0.39893   0.00000  Uiso   1.00
O132   O     0.47569   0.11710   0.07318   0.00000  Uiso   1.00
N133   N     0.73863   0.28685   0.94100   0.00000  Uiso   1.00
N134   N     0.70879   0.26228   0.31744   0.00000  Uiso   1.00
N135   N     0.53545   0.08719   0.08532   0.00000  Uiso   1.00
N136   N     0.72034   0.44742   0.94033   0.00000  Uiso   1.00
N137   N     0.69049   0.42285   0.31677   0.00000  Uiso   1.00
N138   N     0.51716   0.24776   0.08466   0.00000  Uiso   1.00
C139   C     0.16257   0.69797   0.61461   0.00000  Uiso   1.00
C140   C     0.17905   0.76170   0.56660   0.00000  Uiso   1.00
C141   C     0.20311   0.72585   0.52660   0.00000  Uiso   1.00
C142   C     0.21509   0.79627   0.48611   0.00000  Uiso   1.00
C143   C     0.24248   0.87964   0.41164   0.00000  Uiso   1.00
C144   C     0.17083   0.75494   0.67034   0.00000  Uiso   1.00
C145   C     0.18798   0.71339   0.71758   0.00000  Uiso   1.00
C146   C     0.19303   0.77812   0.76443   0.00000  Uiso   1.00
C147   C     0.20764   0.85096   0.85104   0.00000  Uiso   1.00
C148   C     0.12307   0.70668   0.60636   0.00000  Uiso   1.00
C149   C     0.10004   0.62456   0.59982   0.00000  Uiso   1.00
C150   C     0.06487   0.64866   0.59282   0.00000  Uiso   1.00
C151   C     0.00531   0.64658   0.58009   0.00000  Uiso   1.00
C152   C     0.14105   0.88680   0.61383   0.00000  Uiso   1.00
C153   C     0.16737   0.86427   0.56617   0.00000  Uiso   1.00
C154   C     0.17931   0.93476   0.52573   0.00000  Uiso   1.00
C155   C     0.20338   0.89902   0.48569   0.00000  Uiso   1.00
C156   C     0.15915   0.85750   0.66992   0.00000  Uiso   1.00
C157   C     0.16417   0.92231   0.71671   0.00000  Uiso   1.00
C158   C     0.18132   0.88087   0.76401   0.00000  Uiso   1.00
C159   C     0.11138   0.80925   0.60594   0.00000  Uiso   1.00
C160   C     0.07624   0.83348   0.59895   0.00000  Uiso   1.00
C161   C     0.05316   0.75141   0.59239   0.00000  Uiso   1.00
H162   H     0.17166   0.61812   0.61495   0.00000  Uiso   1.00
H163   H     0.21215   0.64647   0.52695   0.00000  Uiso   1.00
H164   H     0.19701   0.63401   0.71790   0.00000  Uiso   1.00
H165   H     0.10909   0.54520   0.60015   0.00000  Uiso   1.00
H166   H     0.25190   0.72314   0.42921   0.00000  Uiso   1.00
H167   H     0.21997   0.69686   0.83184   0.00000  Uiso   1.00
H168   H     0.03457   0.50958   0.58356   0.00000  Uiso   1.00
H169   H     0.13195   0.96666   0.61350   0.00000  Uiso   1.00
H170   H     0.17026   0.01413   0.52542   0.00000  Uiso   1.00
H171   H     0.15513   0.00167   0.71637   0.00000  Uiso   1.00
H172   H     0.06720   0.91286   0.59863   0.00000  Uiso   1.00
H173   H     0.21790   0.02155   0.42797   0.00000  Uiso   1.00
H174   H     0.18597   0.99527   0.83061   0.00000  Uiso   1.00
H175   H     0.00057   0.80799   0.58232   0.00000  Uiso   1.00
O176   O     0.26083   0.89729   0.37068   0.00000  Uiso   1.00
O177   O     0.21893   0.86281   0.89893   0.00000  Uiso   1.00
O178   O     0.97569   0.61710   0.57318   0.00000  Uiso   1.00
N179   N     0.23863   0.78685   0.44100   0.00000  Uiso   1.00
N180   N     0.20879   0.76228   0.81744   0.00000  Uiso   1.00
N181   N     0.03545   0.58719   0.58532   0.00000  Uiso   1.00
N182   N     0.22034   0.94742   0.44033   0.00000  Uiso   1.00
N183   N     0.19049   0.92285   0.81677   0.00000  Uiso   1.00
N184   N     0.01716   0.74776   0.58466   0.00000  Uiso   1.00
C185   C     0.83743   0.69797   0.11461   0.00000  Uiso   1.00
C186   C     0.82095   0.76170   0.06660   0.00000  Uiso   1.00
C187   C     0.79689   0.72585   0.02660   0.00000  Uiso   1.00
C188   C     0.78491   0.79627   0.98611   0.00000  Uiso   1.00
C189   C     0.75752   0.87964   0.91164   0.00000  Uiso   1.00
C190   C     0.82917   0.75494   0.17034   0.00000  Uiso   1.00
C191   C     0.81202   0.71339   0.21758   0.00000  Uiso   1.00
C192   C     0.80697   0.77812   0.26443   0.00000  Uiso   1.00
C193   C     0.79236   0.85096   0.35104   0.00000  Uiso   1.00
C194   C     0.87693   0.70668   0.10636   0.00000  Uiso   1.00
C195   C     0.89996   0.62456   0.09982   0.00000  Uiso   1.00
C196   C     0.93513   0.64866   0.09282   0.00000  Uiso   1.00
C197   C     0.99469   0.64658   0.08009   0.00000  Uiso   1.00
C198   C     0.85895   0.88680   0.11383   0.00000  Uiso   1.00
C199   C     0.83263   0.86427   0.06617   0.00000  Uiso   1.00
C200   C     0.82069   0.93476   0.02573   0.00000  Uiso   1.00
C201   C     0.79662   0.89902   0.98569   0.00000  Uiso   1.00
C202   C     0.84085   0.85750   0.16992   0.00000  Uiso   1.00
C203   C     0.83583   0.92231   0.21671   0.00000  Uiso   1.00
C204   C     0.81868   0.88087   0.26401   0.00000  Uiso   1.00
C205   C     0.88862   0.80925   0.10594   0.00000  Uiso   1.00
C206   C     0.92376   0.83348   0.09895   0.00000  Uiso   1.00
C207   C     0.94684   0.75141   0.09239   0.00000  Uiso   1.00
H208   H     0.82834   0.61812   0.11495   0.00000  Uiso   1.00
H209   H     0.78785   0.64647   0.02695   0.00000  Uiso   1.00
H210   H     0.80299   0.63401   0.21790   0.00000  Uiso   1.00
H211   H     0.89091   0.54520   0.10015   0.00000  Uiso   1.00
H212   H     0.74810   0.72314   0.92921   0.00000  Uiso   1.00
H213   H     0.78003   0.69686   0.33184   0.00000  Uiso   1.00
H214   H     0.96543   0.50958   0.08356   0.00000  Uiso   1.00
H215   H     0.86805   0.96666   0.11350   0.00000  Uiso   1.00
H216   H     0.82974   0.01413   0.02542   0.00000  Uiso   1.00
H217   H     0.84487   0.00167   0.21637   0.00000  Uiso   1.00
H218   H     0.93280   0.91286   0.09863   0.00000  Uiso   1.00
H219   H     0.78210   0.02155   0.92797   0.00000  Uiso   1.00
H220   H     0.81403   0.99527   0.33061   0.00000  Uiso   1.00
H221   H     0.99943   0.80799   0.08232   0.00000  Uiso   1.00
O222   O     0.73917   0.89729   0.87068   0.00000  Uiso   1.00
O223   O     0.78107   0.86281   0.39893   0.00000  Uiso   1.00
O224   O     0.02431   0.61710   0.07318   0.00000  Uiso   1.00
N225   N     0.76137   0.78685   0.94100   0.00000  Uiso   1.00
N226   N     0.79121   0.76228   0.31744   0.00000  Uiso   1.00
N227   N     0.96455   0.58719   0.08532   0.00000  Uiso   1.00
N228   N     0.77966   0.94742   0.94033   0.00000  Uiso   1.00
N229   N     0.80951   0.92285   0.31677   0.00000  Uiso   1.00
N230   N     0.98284   0.74776   0.08466   0.00000  Uiso   1.00
C231   C     0.33743   0.19797   0.61461   0.00000  Uiso   1.00
C232   C     0.32095   0.26170   0.56660   0.00000  Uiso   1.00
C233   C     0.29689   0.22585   0.52660   0.00000  Uiso   1.00
C234   C     0.28491   0.29627   0.48611   0.00000  Uiso   1.00
C235   C     0.25752   0.37964   0.41164   0.00000  Uiso   1.00
C236   C     0.32917   0.25494   0.67034   0.00000  Uiso   1.00
C237   C     0.31202   0.21339   0.71758   0.00000  Uiso   1.00
C238   C     0.30697   0.27812   0.76443   0.00000  Uiso   1.00
C239   C     0.29236   0.35096   0.85104   0.00000  Uiso   1.00
C240   C     0.37693   0.20668   0.60636   0.00000  Uiso   1.00
C241   C     0.39996   0.12456   0.59982   0.00000  Uiso   1.00
C242   C     0.43513   0.14866   0.59282   0.00000  Uiso   1.00
C243   C     0.49469   0.14658   0.58009   0.00000  Uiso   1.00
C244   C     0.35895   0.38680   0.61383   0.00000  Uiso   1.00
C245   C     0.33263   0.36427   0.56617   0.00000  Uiso   1.00
C246   C     0.32069   0.43476   0.52573   0.00000  Uiso   1.00
C247   C     0.29662   0.39902   0.48569   0.00000  Uiso   1.00
C248   C     0.34085   0.35750   0.66992   0.00000  Uiso   1.00
C249   C     0.33583   0.42231   0.71671   0.00000  Uiso   1.00
C250   C     0.31868   0.38087   0.76401   0.00000  Uiso   1.00
C251   C     0.38862   0.30925   0.60594   0.00000  Uiso   1.00
C252   C     0.42376   0.33348   0.59895   0.00000  Uiso   1.00
C253   C     0.44684   0.25141   0.59239   0.00000  Uiso   1.00
H254   H     0.32834   0.11812   0.61495   0.00000  Uiso   1.00
H255   H     0.28785   0.14647   0.52695   0.00000  Uiso   1.00
H256   H     0.30299   0.13401   0.71790   0.00000  Uiso   1.00
H257   H     0.39091   0.04520   0.60015   0.00000  Uiso   1.00
H258   H     0.24810   0.22314   0.42921   0.00000  Uiso   1.00
H259   H     0.28003   0.19686   0.83184   0.00000  Uiso   1.00
H260   H     0.46543   0.00958   0.58356   0.00000  Uiso   1.00
H261   H     0.36805   0.46666   0.61350   0.00000  Uiso   1.00
H262   H     0.32974   0.51413   0.52542   0.00000  Uiso   1.00
H263   H     0.34487   0.50167   0.71637   0.00000  Uiso   1.00
H264   H     0.43280   0.41286   0.59863   0.00000  Uiso   1.00
H265   H     0.28210   0.52155   0.42797   0.00000  Uiso   1.00
H266   H     0.31403   0.49527   0.83061   0.00000  Uiso   1.00
H267   H     0.49943   0.30799   0.58232   0.00000  Uiso   1.00
O268   O     0.23917   0.39729   0.37068   0.00000  Uiso   1.00
O269   O     0.28107   0.36281   0.89893   0.00000  Uiso   1.00
O270   O     0.52431   0.11710   0.57318   0.00000  Uiso   1.00
N271   N     0.26137   0.28685   0.44100   0.00000  Uiso   1.00
N272   N     0.29121   0.26228   0.81744   0.00000  Uiso   1.00
N273   N     0.46455   0.08719   0.58532   0.00000  Uiso   1.00
N274   N     0.27966   0.44742   0.44033   0.00000  Uiso   1.00
N275   N     0.30951   0.42285   0.81677   0.00000  Uiso   1.00
N276   N     0.48284   0.24776   0.58466   0.00000  Uiso   1.00
C277   C     0.16257   0.30203   0.11461   0.00000  Uiso   1.00
C278   C     0.17905   0.23830   0.06660   0.00000  Uiso   1.00
C279   C     0.20311   0.27415   0.02660   0.00000  Uiso   1.00
C280   C     0.21509   0.20373   0.98611   0.00000  Uiso   1.00
C281   C     0.24248   0.12036   0.91164   0.00000  Uiso   1.00
C282   C     0.17083   0.24506   0.17034   0.00000  Uiso   1.00
C283   C     0.18798   0.28661   0.21758   0.00000  Uiso   1.00
C284   C     0.19303   0.22188   0.26443   0.00000  Uiso   1.00
C285   C     0.20764   0.14904   0.35104   0.00000  Uiso   1.00
C286   C     0.12307   0.29332   0.10636   0.00000  Uiso   1.00
C287   C     0.10004   0.37544   0.09982   0.00000  Uiso   1.00
C288   C     0.06487   0.35134   0.09282   0.00000  Uiso   1.00
C289   C     0.00531   0.35342   0.08009   0.00000  Uiso   1.00
C290   C     0.14105   0.11320   0.11383   0.00000  Uiso   1.00
C291   C     0.16737   0.13573   0.06617   0.00000  Uiso   1.00
C292   C     0.17931   0.06524   0.02573   0.00000  Uiso   1.00
C293   C     0.20338   0.10098   0.98569   0.00000  Uiso   1.00
C294   C     0.15915   0.14250   0.16992   0.00000  Uiso   1.00
C295   C     0.16417   0.07769   0.21671   0.00000  Uiso   1.00
C296   C     0.18132   0.11913   0.26401   0.00000  Uiso   1.00
C297   C     0.11138   0.19075   0.10594   0.00000  Uiso   1.00
C298   C     0.07624   0.16652   0.09895   0.00000  Uiso   1.00
C299   C     0.05316   0.24859   0.09239   0.00000  Uiso   1.00
H300   H     0.17166   0.38188   0.11495   0.00000  Uiso   1.00
H301   H     0.21215   0.35353   0.02695   0.00000  Uiso   1.00
H302   H     0.19701   0.36599   0.21790   0.00000  Uiso   1.00
H303   H     0.10909   0.45480   0.10015   0.00000  Uiso   1.00
H304   H     0.25190   0.27686   0.92921   0.00000  Uiso   1.00
H305   H     0.21997   0.30314   0.33184   0.00000  Uiso   1.00
H306   H     0.03457   0.49042   0.08356   0.00000  Uiso   1.00
H307   H     0.13195   0.03334   0.11350   0.00000  Uiso   1.00
H308   H     0.17026   0.98587   0.02542   0.00000  Uiso   1.00
H309   H     0.15513   0.99833   0.21637   0.00000  Uiso   1.00
H310   H     0.06720   0.08714   0.09863   0.00000  Uiso   1.00
H311   H     0.21790   0.97845   0.92797   0.00000  Uiso   1.00
H312   H     0.18597   0.00473   0.33061   0.00000  Uiso   1.00
H313   H     0.00057   0.19201   0.08232   0.00000  Uiso   1.00
O314   O     0.26083   0.10271   0.87068   0.00000  Uiso   1.00
O315   O     0.21893   0.13719   0.39893   0.00000  Uiso   1.00
O316   O     0.97569   0.38290   0.07318   0.00000  Uiso   1.00
N317   N     0.23863   0.21315   0.94100   0.00000  Uiso   1.00
N318   N     0.20879   0.23772   0.31744   0.00000  Uiso   1.00
N319   N     0.03545   0.41281   0.08532   0.00000  Uiso   1.00
N320   N     0.22034   0.05258   0.94033   0.00000  Uiso   1.00
N321   N     0.19049   0.07715   0.31677   0.00000  Uiso   1.00
N322   N     0.01716   0.25224   0.08466   0.00000  Uiso   1.00
C323   C     0.66257   0.80203   0.61461   0.00000  Uiso   1.00
C324   C     0.67905   0.73830   0.56660   0.00000  Uiso   1.00
C325   C     0.70311   0.77415   0.52660   0.00000  Uiso   1.00
C326   C     0.71509   0.70373   0.48611   0.00000  Uiso   1.00
C327   C     0.74248   0.62036   0.41164   0.00000  Uiso   1.00
C328   C     0.67083   0.74506   0.67034   0.00000  Uiso   1.00
C329   C     0.68798   0.78661   0.71758   0.00000  Uiso   1.00
C330   C     0.69303   0.72188   0.76443   0.00000  Uiso   1.00
C331   C     0.70764   0.64904   0.85104   0.00000  Uiso   1.00
C332   C     0.62307   0.79332   0.60636   0.00000  Uiso   1.00
C333   C     0.60004   0.87544   0.59982   0.00000  Uiso   1.00
C334   C     0.56487   0.85134   0.59282   0.00000  Uiso   1.00
C335   C     0.50531   0.85342   0.58009   0.00000  Uiso   1.00
C336   C     0.64105   0.61320   0.61383   0.00000  Uiso   1.00
C337   C     0.66737   0.63573   0.56617   0.00000  Uiso   1.00
C338   C     0.67931   0.56524   0.52573   0.00000  Uiso   1.00
C339   C     0.70338   0.60098   0.48569   0.00000  Uiso   1.00
C340   C     0.65915   0.64250   0.66992   0.00000  Uiso   1.00
C341   C     0.66417   0.57769   0.71671   0.00000  Uiso   1.00
C342   C     0.68132   0.61913   0.76401   0.00000  Uiso   1.00
C343   C     0.61138   0.69075   0.60594   0.00000  Uiso   1.00
C344   C     0.57624   0.66652   0.59895   0.00000  Uiso   1.00
C345   C     0.55316   0.74859   0.59239   0.00000  Uiso   1.00
H346   H     0.67166   0.88188   0.61495   0.00000  Uiso   1.00
H347   H     0.71215   0.85353   0.52695   0.00000  Uiso   1.00
H348   H     0.69701   0.86599   0.71790   0.00000  Uiso   1.00
H349   H     0.60909   0.95480   0.60015   0.00000  Uiso   1.00
H350   H     0.75190   0.77686   0.42921   0.00000  Uiso   1.00
H351   H     0.71997   0.80314   0.83184   0.00000  Uiso   1.00
H352   H     0.53457   0.99042   0.58356   0.00000  Uiso   1.00
H353   H     0.63195   0.53334   0.61350   0.00000  Uiso   1.00
H354   H     0.67026   0.48587   0.52542   0.00000  Uiso   1.00
H355   H     0.65513   0.49833   0.71637   0.00000  Uiso   1.00
H356   H     0.56720   0.58714   0.59863   0.00000  Uiso   1.00
H357   H     0.71790   0.47845   0.42797   0.00000  Uiso   1.00
H358   H     0.68597   0.50473   0.83061   0.00000  Uiso   1.00
H359   H     0.50057   0.69201   0.58232   0.00000  Uiso   1.00
O360   O     0.76083   0.60271   0.37068   0.00000  Uiso   1.00
O361   O     0.71893   0.63719   0.89893   0.00000  Uiso   1.00
O362   O     0.47569   0.88290   0.57318   0.00000  Uiso   1.00
N363   N     0.73863   0.71315   0.44100   0.00000  Uiso   1.00
N364   N     0.70879   0.73772   0.81744   0.00000  Uiso   1.00
N365   N     0.53545   0.91281   0.58532   0.00000  Uiso   1.00
N366   N     0.72034   0.55258   0.44033   0.00000  Uiso   1.00
N367   N     0.69049   0.57715   0.81677   0.00000  Uiso   1.00
N368   N     0.51716   0.75224   0.58466   0.00000  Uiso   1.00
