data_job_02142
_audit_creation_date              2018-12-19
_audit_creation_method            'Materials Studio'
_symmetry_space_group_name_H-M    'P1'
_symmetry_Int_Tables_number       1
_symmetry_cell_setting            triclinic
loop_
_symmetry_equiv_pos_as_xyz
  x,y,z
_cell_length_a                    15.7400
_cell_length_b                    19.1007
_cell_length_c                    21.9640
_cell_angle_alpha                 90.0000
_cell_angle_beta                  75.5472
_cell_angle_gamma                 90.0000
loop_
_atom_site_label
_atom_site_type_symbol
_atom_site_fract_x
_atom_site_fract_y
_atom_site_fract_z
_atom_site_U_iso_or_equiv
_atom_site_adp_type
_atom_site_occupancy
C1     C     0.69794   0.69354   0.84919   0.00000  Uiso   1.00
C2     C     0.69242   0.64908   0.79263   0.00000  Uiso   1.00
C3     C     0.70989   0.67200   0.73079   0.00000  Uiso   1.00
C4     C     0.70108   0.62328   0.68586   0.00000  Uiso   1.00
C5     C     0.69633   0.56478   0.59555   0.00000  Uiso   1.00
C6     C     0.60801   0.68867   0.89541   0.00000  Uiso   1.00
C7     C     0.55451   0.74489   0.91998   0.00000  Uiso   1.00
C8     C     0.47465   0.72949   0.96156   0.00000  Uiso   1.00
C9     C     0.33887   0.73246   0.03085   0.00000  Uiso   1.00
C10    C     0.76137   0.65562   0.88021   0.00000  Uiso   1.00
C11    C     0.83682   0.68405   0.89203   0.00000  Uiso   1.00
C12    C     0.88607   0.64083   0.92084   0.00000  Uiso   1.00
C13    C     0.98842   0.59248   0.96653   0.00000  Uiso   1.00
C14    C     0.65124   0.56625   0.87937   0.00000  Uiso   1.00
C15    C     0.66705   0.57995   0.80903   0.00000  Uiso   1.00
C16    C     0.65822   0.53117   0.76417   0.00000  Uiso   1.00
C17    C     0.67568   0.55402   0.70227   0.00000  Uiso   1.00
C18    C     0.58264   0.61954   0.91180   0.00000  Uiso   1.00
C19    C     0.50284   0.60405   0.95336   0.00000  Uiso   1.00
C20    C     0.44924   0.66022   0.97798   0.00000  Uiso   1.00
C21    C     0.73601   0.58648   0.89660   0.00000  Uiso   1.00
C22    C     0.78515   0.54321   0.92541   0.00000  Uiso   1.00
C23    C     0.86066   0.57156   0.93726   0.00000  Uiso   1.00
H24    H     0.71768   0.74736   0.83644   0.00000  Uiso   1.00
H25    H     0.72951   0.72552   0.71813   0.00000  Uiso   1.00
H26    H     0.57416   0.79838   0.90729   0.00000  Uiso   1.00
H27    H     0.85642   0.73755   0.87934   0.00000  Uiso   1.00
H28    H     0.73141   0.67081   0.59419   0.00000  Uiso   1.00
H29    H     0.40386   0.82445   0.99307   0.00000  Uiso   1.00
H30    H     0.99907   0.69618   0.93413   0.00000  Uiso   1.00
H31    H     0.63149   0.51242   0.89213   0.00000  Uiso   1.00
H32    H     0.63859   0.47767   0.77687   0.00000  Uiso   1.00
H33    H     0.48324   0.55054   0.96603   0.00000  Uiso   1.00
H34    H     0.76550   0.48971   0.93809   0.00000  Uiso   1.00
H35    H     0.65761   0.46965   0.64187   0.00000  Uiso   1.00
H36    H     0.33006   0.62330   0.04075   0.00000  Uiso   1.00
H37    H     0.92527   0.49503   0.98181   0.00000  Uiso   1.00
O38    O     0.70071   0.55162   0.54121   0.00000  Uiso   1.00
O39    O     0.27099   0.75320   0.06453   0.00000  Uiso   1.00
O40    O     0.05188   0.58491   0.98720   0.00000  Uiso   1.00
N41    N     0.71308   0.62823   0.62123   0.00000  Uiso   1.00
N42    N     0.40684   0.77188   0.99414   0.00000  Uiso   1.00
N43    N     0.96329   0.65196   0.93906   0.00000  Uiso   1.00
N44    N     0.67337   0.51999   0.64688   0.00000  Uiso   1.00
N45    N     0.36713   0.66364   0.01980   0.00000  Uiso   1.00
N46    N     0.92358   0.54372   0.96472   0.00000  Uiso   1.00
C47    C     0.19794   0.19354   0.84919   0.00000  Uiso   1.00
C48    C     0.19242   0.14908   0.79263   0.00000  Uiso   1.00
C49    C     0.20989   0.17200   0.73079   0.00000  Uiso   1.00
C50    C     0.20108   0.12328   0.68586   0.00000  Uiso   1.00
C51    C     0.19633   0.06478   0.59555   0.00000  Uiso   1.00
C52    C     0.10801   0.18867   0.89541   0.00000  Uiso   1.00
C53    C     0.05451   0.24489   0.91998   0.00000  Uiso   1.00
C54    C     0.97465   0.22949   0.96156   0.00000  Uiso   1.00
C55    C     0.83887   0.23246   0.03085   0.00000  Uiso   1.00
C56    C     0.26137   0.15562   0.88021   0.00000  Uiso   1.00
C57    C     0.33682   0.18405   0.89203   0.00000  Uiso   1.00
C58    C     0.38607   0.14083   0.92084   0.00000  Uiso   1.00
C59    C     0.48842   0.09248   0.96653   0.00000  Uiso   1.00
C60    C     0.15124   0.06625   0.87937   0.00000  Uiso   1.00
C61    C     0.16705   0.07995   0.80903   0.00000  Uiso   1.00
C62    C     0.15822   0.03117   0.76417   0.00000  Uiso   1.00
C63    C     0.17568   0.05402   0.70227   0.00000  Uiso   1.00
C64    C     0.08264   0.11954   0.91180   0.00000  Uiso   1.00
C65    C     0.00284   0.10405   0.95336   0.00000  Uiso   1.00
C66    C     0.94924   0.16022   0.97798   0.00000  Uiso   1.00
C67    C     0.23601   0.08648   0.89660   0.00000  Uiso   1.00
C68    C     0.28515   0.04321   0.92541   0.00000  Uiso   1.00
C69    C     0.36066   0.07156   0.93726   0.00000  Uiso   1.00
H70    H     0.21768   0.24736   0.83644   0.00000  Uiso   1.00
H71    H     0.22951   0.22552   0.71813   0.00000  Uiso   1.00
H72    H     0.07416   0.29838   0.90729   0.00000  Uiso   1.00
H73    H     0.35642   0.23755   0.87934   0.00000  Uiso   1.00
H74    H     0.23141   0.17081   0.59419   0.00000  Uiso   1.00
H75    H     0.90386   0.32445   0.99307   0.00000  Uiso   1.00
H76    H     0.49907   0.19618   0.93413   0.00000  Uiso   1.00
H77    H     0.13149   0.01242   0.89213   0.00000  Uiso   1.00
H78    H     0.13859   0.97767   0.77687   0.00000  Uiso   1.00
H79    H     0.98324   0.05054   0.96603   0.00000  Uiso   1.00
H80    H     0.26550   0.98971   0.93809   0.00000  Uiso   1.00
H81    H     0.15761   0.96965   0.64187   0.00000  Uiso   1.00
H82    H     0.83006   0.12330   0.04075   0.00000  Uiso   1.00
H83    H     0.42527   0.99503   0.98181   0.00000  Uiso   1.00
O84    O     0.20071   0.05162   0.54121   0.00000  Uiso   1.00
O85    O     0.77099   0.25320   0.06453   0.00000  Uiso   1.00
O86    O     0.55188   0.08491   0.98720   0.00000  Uiso   1.00
N87    N     0.21308   0.12823   0.62123   0.00000  Uiso   1.00
N88    N     0.90684   0.27188   0.99414   0.00000  Uiso   1.00
N89    N     0.46329   0.15196   0.93906   0.00000  Uiso   1.00
N90    N     0.17337   0.01999   0.64688   0.00000  Uiso   1.00
N91    N     0.86713   0.16364   0.01980   0.00000  Uiso   1.00
N92    N     0.42358   0.04372   0.96472   0.00000  Uiso   1.00
C93    C     0.30206   0.69354   0.65081   0.00000  Uiso   1.00
C94    C     0.30758   0.64908   0.70737   0.00000  Uiso   1.00
C95    C     0.29011   0.67200   0.76921   0.00000  Uiso   1.00
C96    C     0.29892   0.62328   0.81414   0.00000  Uiso   1.00
C97    C     0.30367   0.56478   0.90445   0.00000  Uiso   1.00
C98    C     0.39199   0.68867   0.60459   0.00000  Uiso   1.00
C99    C     0.44549   0.74489   0.58002   0.00000  Uiso   1.00
C100   C     0.52535   0.72949   0.53844   0.00000  Uiso   1.00
C101   C     0.66113   0.73246   0.46915   0.00000  Uiso   1.00
C102   C     0.23863   0.65562   0.61979   0.00000  Uiso   1.00
C103   C     0.16318   0.68405   0.60797   0.00000  Uiso   1.00
C104   C     0.11393   0.64083   0.57916   0.00000  Uiso   1.00
C105   C     0.01158   0.59248   0.53347   0.00000  Uiso   1.00
C106   C     0.34876   0.56625   0.62063   0.00000  Uiso   1.00
C107   C     0.33295   0.57995   0.69097   0.00000  Uiso   1.00
C108   C     0.34178   0.53117   0.73583   0.00000  Uiso   1.00
C109   C     0.32432   0.55402   0.79773   0.00000  Uiso   1.00
C110   C     0.41736   0.61954   0.58820   0.00000  Uiso   1.00
C111   C     0.49716   0.60405   0.54664   0.00000  Uiso   1.00
C112   C     0.55076   0.66022   0.52202   0.00000  Uiso   1.00
C113   C     0.26399   0.58648   0.60340   0.00000  Uiso   1.00
C114   C     0.21485   0.54321   0.57459   0.00000  Uiso   1.00
C115   C     0.13934   0.57156   0.56274   0.00000  Uiso   1.00
H116   H     0.28232   0.74736   0.66356   0.00000  Uiso   1.00
H117   H     0.27049   0.72552   0.78187   0.00000  Uiso   1.00
H118   H     0.42584   0.79838   0.59271   0.00000  Uiso   1.00
H119   H     0.14358   0.73755   0.62066   0.00000  Uiso   1.00
H120   H     0.26859   0.67081   0.90581   0.00000  Uiso   1.00
H121   H     0.59614   0.82445   0.50693   0.00000  Uiso   1.00
H122   H     0.00093   0.69618   0.56587   0.00000  Uiso   1.00
H123   H     0.36851   0.51242   0.60787   0.00000  Uiso   1.00
H124   H     0.36141   0.47767   0.72313   0.00000  Uiso   1.00
H125   H     0.51676   0.55054   0.53397   0.00000  Uiso   1.00
H126   H     0.23450   0.48971   0.56191   0.00000  Uiso   1.00
H127   H     0.34239   0.46965   0.85813   0.00000  Uiso   1.00
H128   H     0.66994   0.62330   0.45925   0.00000  Uiso   1.00
H129   H     0.07473   0.49503   0.51819   0.00000  Uiso   1.00
O130   O     0.29929   0.55162   0.95879   0.00000  Uiso   1.00
O131   O     0.72901   0.75320   0.43547   0.00000  Uiso   1.00
O132   O     0.94812   0.58491   0.51280   0.00000  Uiso   1.00
N133   N     0.28692   0.62823   0.87877   0.00000  Uiso   1.00
N134   N     0.59316   0.77188   0.50586   0.00000  Uiso   1.00
N135   N     0.03671   0.65196   0.56094   0.00000  Uiso   1.00
N136   N     0.32663   0.51999   0.85312   0.00000  Uiso   1.00
N137   N     0.63287   0.66364   0.48020   0.00000  Uiso   1.00
N138   N     0.07642   0.54372   0.53528   0.00000  Uiso   1.00
C139   C     0.80206   0.19354   0.65081   0.00000  Uiso   1.00
C140   C     0.80758   0.14908   0.70737   0.00000  Uiso   1.00
C141   C     0.79011   0.17200   0.76921   0.00000  Uiso   1.00
C142   C     0.79892   0.12328   0.81414   0.00000  Uiso   1.00
C143   C     0.80367   0.06478   0.90445   0.00000  Uiso   1.00
C144   C     0.89199   0.18867   0.60459   0.00000  Uiso   1.00
C145   C     0.94549   0.24489   0.58002   0.00000  Uiso   1.00
C146   C     0.02535   0.22949   0.53844   0.00000  Uiso   1.00
C147   C     0.16113   0.23246   0.46915   0.00000  Uiso   1.00
C148   C     0.73863   0.15562   0.61979   0.00000  Uiso   1.00
C149   C     0.66318   0.18405   0.60797   0.00000  Uiso   1.00
C150   C     0.61393   0.14083   0.57916   0.00000  Uiso   1.00
C151   C     0.51158   0.09248   0.53347   0.00000  Uiso   1.00
C152   C     0.84876   0.06625   0.62063   0.00000  Uiso   1.00
C153   C     0.83295   0.07995   0.69097   0.00000  Uiso   1.00
C154   C     0.84178   0.03117   0.73583   0.00000  Uiso   1.00
C155   C     0.82432   0.05402   0.79773   0.00000  Uiso   1.00
C156   C     0.91736   0.11954   0.58820   0.00000  Uiso   1.00
C157   C     0.99716   0.10405   0.54664   0.00000  Uiso   1.00
C158   C     0.05076   0.16022   0.52202   0.00000  Uiso   1.00
C159   C     0.76399   0.08648   0.60340   0.00000  Uiso   1.00
C160   C     0.71485   0.04321   0.57459   0.00000  Uiso   1.00
C161   C     0.63934   0.07156   0.56274   0.00000  Uiso   1.00
H162   H     0.78232   0.24736   0.66356   0.00000  Uiso   1.00
H163   H     0.77049   0.22552   0.78187   0.00000  Uiso   1.00
H164   H     0.92584   0.29838   0.59271   0.00000  Uiso   1.00
H165   H     0.64358   0.23755   0.62066   0.00000  Uiso   1.00
H166   H     0.76859   0.17081   0.90581   0.00000  Uiso   1.00
H167   H     0.09614   0.32445   0.50693   0.00000  Uiso   1.00
H168   H     0.50093   0.19618   0.56587   0.00000  Uiso   1.00
H169   H     0.86851   0.01242   0.60787   0.00000  Uiso   1.00
H170   H     0.86141   0.97767   0.72313   0.00000  Uiso   1.00
H171   H     0.01676   0.05054   0.53397   0.00000  Uiso   1.00
H172   H     0.73450   0.98971   0.56191   0.00000  Uiso   1.00
H173   H     0.84239   0.96965   0.85813   0.00000  Uiso   1.00
H174   H     0.16994   0.12330   0.45925   0.00000  Uiso   1.00
H175   H     0.57473   0.99503   0.51819   0.00000  Uiso   1.00
O176   O     0.79929   0.05162   0.95879   0.00000  Uiso   1.00
O177   O     0.22901   0.25320   0.43547   0.00000  Uiso   1.00
O178   O     0.44812   0.08491   0.51280   0.00000  Uiso   1.00
N179   N     0.78692   0.12823   0.87877   0.00000  Uiso   1.00
N180   N     0.09316   0.27188   0.50586   0.00000  Uiso   1.00
N181   N     0.53671   0.15196   0.56094   0.00000  Uiso   1.00
N182   N     0.82663   0.01999   0.85312   0.00000  Uiso   1.00
N183   N     0.13287   0.16364   0.48020   0.00000  Uiso   1.00
N184   N     0.57642   0.04372   0.53528   0.00000  Uiso   1.00
C185   C     0.30206   0.30646   0.15081   0.00000  Uiso   1.00
C186   C     0.30758   0.35092   0.20737   0.00000  Uiso   1.00
C187   C     0.29011   0.32800   0.26921   0.00000  Uiso   1.00
C188   C     0.29892   0.37672   0.31414   0.00000  Uiso   1.00
C189   C     0.30367   0.43522   0.40445   0.00000  Uiso   1.00
C190   C     0.39199   0.31133   0.10459   0.00000  Uiso   1.00
C191   C     0.44549   0.25511   0.08002   0.00000  Uiso   1.00
C192   C     0.52535   0.27051   0.03844   0.00000  Uiso   1.00
C193   C     0.66113   0.26754   0.96915   0.00000  Uiso   1.00
C194   C     0.23863   0.34438   0.11979   0.00000  Uiso   1.00
C195   C     0.16318   0.31595   0.10797   0.00000  Uiso   1.00
C196   C     0.11393   0.35917   0.07916   0.00000  Uiso   1.00
C197   C     0.01158   0.40752   0.03347   0.00000  Uiso   1.00
C198   C     0.34876   0.43375   0.12063   0.00000  Uiso   1.00
C199   C     0.33295   0.42005   0.19097   0.00000  Uiso   1.00
C200   C     0.34178   0.46883   0.23583   0.00000  Uiso   1.00
C201   C     0.32432   0.44598   0.29773   0.00000  Uiso   1.00
C202   C     0.41736   0.38046   0.08820   0.00000  Uiso   1.00
C203   C     0.49716   0.39595   0.04664   0.00000  Uiso   1.00
C204   C     0.55076   0.33978   0.02202   0.00000  Uiso   1.00
C205   C     0.26399   0.41352   0.10340   0.00000  Uiso   1.00
C206   C     0.21485   0.45679   0.07459   0.00000  Uiso   1.00
C207   C     0.13934   0.42844   0.06274   0.00000  Uiso   1.00
H208   H     0.28232   0.25264   0.16356   0.00000  Uiso   1.00
H209   H     0.27049   0.27448   0.28187   0.00000  Uiso   1.00
H210   H     0.42584   0.20162   0.09271   0.00000  Uiso   1.00
H211   H     0.14358   0.26245   0.12066   0.00000  Uiso   1.00
H212   H     0.26859   0.32919   0.40581   0.00000  Uiso   1.00
H213   H     0.59614   0.17555   0.00693   0.00000  Uiso   1.00
H214   H     0.00093   0.30382   0.06587   0.00000  Uiso   1.00
H215   H     0.36851   0.48758   0.10787   0.00000  Uiso   1.00
H216   H     0.36141   0.52233   0.22313   0.00000  Uiso   1.00
H217   H     0.51676   0.44946   0.03397   0.00000  Uiso   1.00
H218   H     0.23450   0.51029   0.06191   0.00000  Uiso   1.00
H219   H     0.34239   0.53035   0.35813   0.00000  Uiso   1.00
H220   H     0.66994   0.37670   0.95925   0.00000  Uiso   1.00
H221   H     0.07473   0.50497   0.01819   0.00000  Uiso   1.00
O222   O     0.29929   0.44838   0.45879   0.00000  Uiso   1.00
O223   O     0.72901   0.24680   0.93547   0.00000  Uiso   1.00
O224   O     0.94812   0.41509   0.01280   0.00000  Uiso   1.00
N225   N     0.28692   0.37177   0.37877   0.00000  Uiso   1.00
N226   N     0.59316   0.22812   0.00586   0.00000  Uiso   1.00
N227   N     0.03671   0.34804   0.06094   0.00000  Uiso   1.00
N228   N     0.32663   0.48001   0.35312   0.00000  Uiso   1.00
N229   N     0.63287   0.33636   0.98020   0.00000  Uiso   1.00
N230   N     0.07642   0.45628   0.03528   0.00000  Uiso   1.00
C231   C     0.80206   0.80646   0.15081   0.00000  Uiso   1.00
C232   C     0.80758   0.85092   0.20737   0.00000  Uiso   1.00
C233   C     0.79011   0.82800   0.26921   0.00000  Uiso   1.00
C234   C     0.79892   0.87672   0.31414   0.00000  Uiso   1.00
C235   C     0.80367   0.93522   0.40445   0.00000  Uiso   1.00
C236   C     0.89199   0.81133   0.10459   0.00000  Uiso   1.00
C237   C     0.94549   0.75511   0.08002   0.00000  Uiso   1.00
C238   C     0.02535   0.77051   0.03844   0.00000  Uiso   1.00
C239   C     0.16113   0.76754   0.96915   0.00000  Uiso   1.00
C240   C     0.73863   0.84438   0.11979   0.00000  Uiso   1.00
C241   C     0.66318   0.81595   0.10797   0.00000  Uiso   1.00
C242   C     0.61393   0.85917   0.07916   0.00000  Uiso   1.00
C243   C     0.51158   0.90752   0.03347   0.00000  Uiso   1.00
C244   C     0.84876   0.93375   0.12063   0.00000  Uiso   1.00
C245   C     0.83295   0.92005   0.19097   0.00000  Uiso   1.00
C246   C     0.84178   0.96883   0.23583   0.00000  Uiso   1.00
C247   C     0.82432   0.94598   0.29773   0.00000  Uiso   1.00
C248   C     0.91736   0.88046   0.08820   0.00000  Uiso   1.00
C249   C     0.99716   0.89595   0.04664   0.00000  Uiso   1.00
C250   C     0.05076   0.83978   0.02202   0.00000  Uiso   1.00
C251   C     0.76399   0.91352   0.10340   0.00000  Uiso   1.00
C252   C     0.71485   0.95679   0.07459   0.00000  Uiso   1.00
C253   C     0.63934   0.92844   0.06274   0.00000  Uiso   1.00
H254   H     0.78232   0.75264   0.16356   0.00000  Uiso   1.00
H255   H     0.77049   0.77448   0.28187   0.00000  Uiso   1.00
H256   H     0.92584   0.70162   0.09271   0.00000  Uiso   1.00
H257   H     0.64358   0.76245   0.12066   0.00000  Uiso   1.00
H258   H     0.76859   0.82919   0.40581   0.00000  Uiso   1.00
H259   H     0.09614   0.67555   0.00693   0.00000  Uiso   1.00
H260   H     0.50093   0.80382   0.06587   0.00000  Uiso   1.00
H261   H     0.86851   0.98758   0.10787   0.00000  Uiso   1.00
H262   H     0.86141   0.02233   0.22313   0.00000  Uiso   1.00
H263   H     0.01676   0.94946   0.03397   0.00000  Uiso   1.00
H264   H     0.73450   0.01029   0.06191   0.00000  Uiso   1.00
H265   H     0.84239   0.03035   0.35813   0.00000  Uiso   1.00
H266   H     0.16994   0.87670   0.95925   0.00000  Uiso   1.00
H267   H     0.57473   0.00497   0.01819   0.00000  Uiso   1.00
O268   O     0.79929   0.94838   0.45879   0.00000  Uiso   1.00
O269   O     0.22901   0.74680   0.93547   0.00000  Uiso   1.00
O270   O     0.44812   0.91509   0.01280   0.00000  Uiso   1.00
N271   N     0.78692   0.87177   0.37877   0.00000  Uiso   1.00
N272   N     0.09316   0.72812   0.00586   0.00000  Uiso   1.00
N273   N     0.53671   0.84804   0.06094   0.00000  Uiso   1.00
N274   N     0.82663   0.98001   0.35312   0.00000  Uiso   1.00
N275   N     0.13287   0.83636   0.98020   0.00000  Uiso   1.00
N276   N     0.57642   0.95628   0.03528   0.00000  Uiso   1.00
C277   C     0.69794   0.30646   0.34919   0.00000  Uiso   1.00
C278   C     0.69242   0.35092   0.29263   0.00000  Uiso   1.00
C279   C     0.70989   0.32800   0.23079   0.00000  Uiso   1.00
C280   C     0.70108   0.37672   0.18586   0.00000  Uiso   1.00
C281   C     0.69633   0.43522   0.09555   0.00000  Uiso   1.00
C282   C     0.60801   0.31133   0.39541   0.00000  Uiso   1.00
C283   C     0.55451   0.25511   0.41998   0.00000  Uiso   1.00
C284   C     0.47465   0.27051   0.46156   0.00000  Uiso   1.00
C285   C     0.33887   0.26754   0.53085   0.00000  Uiso   1.00
C286   C     0.76137   0.34438   0.38021   0.00000  Uiso   1.00
C287   C     0.83682   0.31595   0.39203   0.00000  Uiso   1.00
C288   C     0.88607   0.35917   0.42084   0.00000  Uiso   1.00
C289   C     0.98842   0.40752   0.46653   0.00000  Uiso   1.00
C290   C     0.65124   0.43375   0.37937   0.00000  Uiso   1.00
C291   C     0.66705   0.42005   0.30903   0.00000  Uiso   1.00
C292   C     0.65822   0.46883   0.26417   0.00000  Uiso   1.00
C293   C     0.67568   0.44598   0.20227   0.00000  Uiso   1.00
C294   C     0.58264   0.38046   0.41180   0.00000  Uiso   1.00
C295   C     0.50284   0.39595   0.45336   0.00000  Uiso   1.00
C296   C     0.44924   0.33978   0.47798   0.00000  Uiso   1.00
C297   C     0.73601   0.41352   0.39660   0.00000  Uiso   1.00
C298   C     0.78515   0.45679   0.42541   0.00000  Uiso   1.00
C299   C     0.86066   0.42844   0.43726   0.00000  Uiso   1.00
H300   H     0.71768   0.25264   0.33644   0.00000  Uiso   1.00
H301   H     0.72951   0.27448   0.21813   0.00000  Uiso   1.00
H302   H     0.57416   0.20162   0.40729   0.00000  Uiso   1.00
H303   H     0.85642   0.26245   0.37934   0.00000  Uiso   1.00
H304   H     0.73141   0.32919   0.09419   0.00000  Uiso   1.00
H305   H     0.40386   0.17555   0.49307   0.00000  Uiso   1.00
H306   H     0.99907   0.30382   0.43413   0.00000  Uiso   1.00
H307   H     0.63149   0.48758   0.39213   0.00000  Uiso   1.00
H308   H     0.63859   0.52233   0.27687   0.00000  Uiso   1.00
H309   H     0.48324   0.44946   0.46603   0.00000  Uiso   1.00
H310   H     0.76550   0.51029   0.43809   0.00000  Uiso   1.00
H311   H     0.65761   0.53035   0.14187   0.00000  Uiso   1.00
H312   H     0.33006   0.37670   0.54075   0.00000  Uiso   1.00
H313   H     0.92527   0.50497   0.48181   0.00000  Uiso   1.00
O314   O     0.70071   0.44838   0.04121   0.00000  Uiso   1.00
O315   O     0.27099   0.24680   0.56453   0.00000  Uiso   1.00
O316   O     0.05188   0.41509   0.48720   0.00000  Uiso   1.00
N317   N     0.71308   0.37177   0.12123   0.00000  Uiso   1.00
N318   N     0.40684   0.22812   0.49414   0.00000  Uiso   1.00
N319   N     0.96329   0.34804   0.43906   0.00000  Uiso   1.00
N320   N     0.67337   0.48001   0.14688   0.00000  Uiso   1.00
N321   N     0.36713   0.33636   0.51980   0.00000  Uiso   1.00
N322   N     0.92358   0.45628   0.46472   0.00000  Uiso   1.00
C323   C     0.19794   0.80646   0.34919   0.00000  Uiso   1.00
C324   C     0.19242   0.85092   0.29263   0.00000  Uiso   1.00
C325   C     0.20989   0.82800   0.23079   0.00000  Uiso   1.00
C326   C     0.20108   0.87672   0.18586   0.00000  Uiso   1.00
C327   C     0.19633   0.93522   0.09555   0.00000  Uiso   1.00
C328   C     0.10801   0.81133   0.39541   0.00000  Uiso   1.00
C329   C     0.05451   0.75511   0.41998   0.00000  Uiso   1.00
C330   C     0.97465   0.77051   0.46156   0.00000  Uiso   1.00
C331   C     0.83887   0.76754   0.53085   0.00000  Uiso   1.00
C332   C     0.26137   0.84438   0.38021   0.00000  Uiso   1.00
C333   C     0.33682   0.81595   0.39203   0.00000  Uiso   1.00
C334   C     0.38607   0.85917   0.42084   0.00000  Uiso   1.00
C335   C     0.48842   0.90752   0.46653   0.00000  Uiso   1.00
C336   C     0.15124   0.93375   0.37937   0.00000  Uiso   1.00
C337   C     0.16705   0.92005   0.30903   0.00000  Uiso   1.00
C338   C     0.15822   0.96883   0.26417   0.00000  Uiso   1.00
C339   C     0.17568   0.94598   0.20227   0.00000  Uiso   1.00
C340   C     0.08264   0.88046   0.41180   0.00000  Uiso   1.00
C341   C     0.00284   0.89595   0.45336   0.00000  Uiso   1.00
C342   C     0.94924   0.83978   0.47798   0.00000  Uiso   1.00
C343   C     0.23601   0.91352   0.39660   0.00000  Uiso   1.00
C344   C     0.28515   0.95679   0.42541   0.00000  Uiso   1.00
C345   C     0.36066   0.92844   0.43726   0.00000  Uiso   1.00
H346   H     0.21768   0.75264   0.33644   0.00000  Uiso   1.00
H347   H     0.22951   0.77448   0.21813   0.00000  Uiso   1.00
H348   H     0.07416   0.70162   0.40729   0.00000  Uiso   1.00
H349   H     0.35642   0.76245   0.37934   0.00000  Uiso   1.00
H350   H     0.23141   0.82919   0.09419   0.00000  Uiso   1.00
H351   H     0.90386   0.67555   0.49307   0.00000  Uiso   1.00
H352   H     0.49907   0.80382   0.43413   0.00000  Uiso   1.00
H353   H     0.13149   0.98758   0.39213   0.00000  Uiso   1.00
H354   H     0.13859   0.02233   0.27687   0.00000  Uiso   1.00
H355   H     0.98324   0.94946   0.46603   0.00000  Uiso   1.00
H356   H     0.26550   0.01029   0.43809   0.00000  Uiso   1.00
H357   H     0.15761   0.03035   0.14187   0.00000  Uiso   1.00
H358   H     0.83006   0.87670   0.54075   0.00000  Uiso   1.00
H359   H     0.42527   0.00497   0.48181   0.00000  Uiso   1.00
O360   O     0.20071   0.94838   0.04121   0.00000  Uiso   1.00
O361   O     0.77099   0.74680   0.56453   0.00000  Uiso   1.00
O362   O     0.55188   0.91509   0.48720   0.00000  Uiso   1.00
N363   N     0.21308   0.87177   0.12123   0.00000  Uiso   1.00
N364   N     0.90684   0.72812   0.49414   0.00000  Uiso   1.00
N365   N     0.46329   0.84804   0.43906   0.00000  Uiso   1.00
N366   N     0.17337   0.98001   0.14688   0.00000  Uiso   1.00
N367   N     0.86713   0.83636   0.51980   0.00000  Uiso   1.00
N368   N     0.42358   0.95628   0.46472   0.00000  Uiso   1.00
