data_job_01349
_audit_creation_date              2018-12-19
_audit_creation_method            'Materials Studio'
_symmetry_space_group_name_H-M    'P1'
_symmetry_Int_Tables_number       1
_symmetry_cell_setting            triclinic
loop_
_symmetry_equiv_pos_as_xyz
  x,y,z
_cell_length_a                    12.2677
_cell_length_b                    13.8180
_cell_length_c                    34.5566
_cell_angle_alpha                 90.0000
_cell_angle_beta                  113.7020
_cell_angle_gamma                 90.0000
loop_
_atom_site_label
_atom_site_type_symbol
_atom_site_fract_x
_atom_site_fract_y
_atom_site_fract_z
_atom_site_U_iso_or_equiv
_atom_site_adp_type
_atom_site_occupancy
C1     C     0.21353   0.43120   0.62764   0.00000  Uiso   1.00
C2     C     0.15849   0.38799   0.58333   0.00000  Uiso   1.00
C3     C     0.14197   0.43601   0.54612   0.00000  Uiso   1.00
C4     C     0.09004   0.38383   0.50881   0.00000  Uiso   1.00
C5     C     0.00972   0.33146   0.44002   0.00000  Uiso   1.00
C6     C     0.12134   0.41802   0.64644   0.00000  Uiso   1.00
C7     C     0.07359   0.49130   0.66229   0.00000  Uiso   1.00
C8     C     0.99039   0.46439   0.67812   0.00000  Uiso   1.00
C9     C     0.85245   0.45865   0.70733   0.00000  Uiso   1.00
C10    C     0.31768   0.36556   0.65309   0.00000  Uiso   1.00
C11    C     0.43502   0.39471   0.67454   0.00000  Uiso   1.00
C12    C     0.51712   0.32363   0.69597   0.00000  Uiso   1.00
C13    C     0.68402   0.23642   0.73551   0.00000  Uiso   1.00
C14    C     0.15068   0.25312   0.62757   0.00000  Uiso   1.00
C15    C     0.12435   0.29127   0.58330   0.00000  Uiso   1.00
C16    C     0.07244   0.23899   0.54603   0.00000  Uiso   1.00
C17    C     0.05584   0.28693   0.50877   0.00000  Uiso   1.00
C18    C     0.08720   0.32130   0.64640   0.00000  Uiso   1.00
C19    C     0.00405   0.29428   0.66221   0.00000  Uiso   1.00
C20    C     0.95619   0.36749   0.67808   0.00000  Uiso   1.00
C21    C     0.28354   0.26883   0.65305   0.00000  Uiso   1.00
C22    C     0.36547   0.19769   0.67445   0.00000  Uiso   1.00
C23    C     0.48292   0.22674   0.69593   0.00000  Uiso   1.00
H24    H     0.24010   0.50650   0.62767   0.00000  Uiso   1.00
H25    H     0.16840   0.51087   0.54616   0.00000  Uiso   1.00
H26    H     0.10004   0.56614   0.66232   0.00000  Uiso   1.00
H27    H     0.46140   0.46957   0.67456   0.00000  Uiso   1.00
H28    H     0.07380   0.47306   0.45577   0.00000  Uiso   1.00
H29    H     0.92969   0.58961   0.70072   0.00000  Uiso   1.00
H30    H     0.69170   0.38597   0.72653   0.00000  Uiso   1.00
H31    H     0.12410   0.17782   0.62754   0.00000  Uiso   1.00
H32    H     0.04602   0.16414   0.54601   0.00000  Uiso   1.00
H33    H     0.97766   0.21942   0.66218   0.00000  Uiso   1.00
H34    H     0.33902   0.12285   0.67442   0.00000  Uiso   1.00
H35    H     0.97447   0.19165   0.45565   0.00000  Uiso   1.00
H36    H     0.83036   0.30820   0.70060   0.00000  Uiso   1.00
H37    H     0.59237   0.10456   0.72641   0.00000  Uiso   1.00
O38    O     0.97483   0.32930   0.40209   0.00000  Uiso   1.00
O39    O     0.78578   0.48220   0.72346   0.00000  Uiso   1.00
O40    O     0.78552   0.21504   0.75732   0.00000  Uiso   1.00
N41    N     0.06116   0.40870   0.46693   0.00000  Uiso   1.00
N42    N     0.92641   0.51767   0.69594   0.00000  Uiso   1.00
N43    N     0.63882   0.32729   0.72008   0.00000  Uiso   1.00
N44    N     0.00771   0.25727   0.46687   0.00000  Uiso   1.00
N45    N     0.87296   0.36624   0.69587   0.00000  Uiso   1.00
N46    N     0.58537   0.17586   0.72002   0.00000  Uiso   1.00
C47    C     0.79567   0.21996   0.12083   0.00000  Uiso   1.00
C48    C     0.74276   0.17513   0.07680   0.00000  Uiso   1.00
C49    C     0.72722   0.22188   0.03941   0.00000  Uiso   1.00
C50    C     0.67722   0.16832   0.00241   0.00000  Uiso   1.00
C51    C     0.60006   0.11346   0.93399   0.00000  Uiso   1.00
C52    C     0.70223   0.20709   0.13909   0.00000  Uiso   1.00
C53    C     0.65263   0.28071   0.15407   0.00000  Uiso   1.00
C54    C     0.56854   0.25405   0.16951   0.00000  Uiso   1.00
C55    C     0.42852   0.24880   0.19782   0.00000  Uiso   1.00
C56    C     0.90010   0.15549   0.14714   0.00000  Uiso   1.00
C57    C     0.01688   0.18573   0.16890   0.00000  Uiso   1.00
C58    C     0.09937   0.11562   0.19114   0.00000  Uiso   1.00
C59    C     0.26658   0.03025   0.23194   0.00000  Uiso   1.00
C60    C     0.73453   0.04169   0.12164   0.00000  Uiso   1.00
C61    C     0.70954   0.07831   0.07725   0.00000  Uiso   1.00
C62    C     0.65957   0.02466   0.04030   0.00000  Uiso   1.00
C63    C     0.64396   0.07132   0.00286   0.00000  Uiso   1.00
C64    C     0.66902   0.11027   0.13953   0.00000  Uiso   1.00
C65    C     0.58498   0.08349   0.15497   0.00000  Uiso   1.00
C66    C     0.53526   0.15705   0.16996   0.00000  Uiso   1.00
C67    C     0.86690   0.05866   0.14759   0.00000  Uiso   1.00
C68    C     0.94922   0.98850   0.16980   0.00000  Uiso   1.00
C69    C     0.06610   0.01862   0.19158   0.00000  Uiso   1.00
H70    H     0.82152   0.29534   0.12049   0.00000  Uiso   1.00
H71    H     0.75292   0.29682   0.03908   0.00000  Uiso   1.00
H72    H     0.67836   0.35563   0.15373   0.00000  Uiso   1.00
H73    H     0.04254   0.26066   0.16855   0.00000  Uiso   1.00
H74    H     0.66218   0.25577   0.94901   0.00000  Uiso   1.00
H75    H     0.50499   0.37978   0.19077   0.00000  Uiso   1.00
H76    H     0.27294   0.17951   0.22204   0.00000  Uiso   1.00
H77    H     0.70867   0.96631   0.12198   0.00000  Uiso   1.00
H78    H     0.63388   0.94973   0.04065   0.00000  Uiso   1.00
H79    H     0.55931   0.00855   0.15530   0.00000  Uiso   1.00
H80    H     0.92349   0.91358   0.17013   0.00000  Uiso   1.00
H81    H     0.56555   0.97406   0.95029   0.00000  Uiso   1.00
H82    H     0.40837   0.09808   0.19205   0.00000  Uiso   1.00
H83    H     0.17632   0.89781   0.22332   0.00000  Uiso   1.00
O84    O     0.56666   0.10996   0.89612   0.00000  Uiso   1.00
O85    O     0.36046   0.27266   0.21330   0.00000  Uiso   1.00
O86    O     0.36799   0.00991   0.25433   0.00000  Uiso   1.00
N87    N     0.64972   0.19174   0.96048   0.00000  Uiso   1.00
N88    N     0.50275   0.30769   0.18650   0.00000  Uiso   1.00
N89    N     0.22071   0.12046   0.21574   0.00000  Uiso   1.00
N90    N     0.59773   0.04016   0.96116   0.00000  Uiso   1.00
N91    N     0.45075   0.15611   0.18719   0.00000  Uiso   1.00
N92    N     0.16872   0.96887   0.21643   0.00000  Uiso   1.00
C93    C     0.78647   0.43120   0.87236   0.00000  Uiso   1.00
C94    C     0.84151   0.38799   0.91667   0.00000  Uiso   1.00
C95    C     0.85803   0.43601   0.95388   0.00000  Uiso   1.00
C96    C     0.90996   0.38383   0.99119   0.00000  Uiso   1.00
C97    C     0.99028   0.33146   0.05998   0.00000  Uiso   1.00
C98    C     0.87866   0.41802   0.85356   0.00000  Uiso   1.00
C99    C     0.92641   0.49130   0.83771   0.00000  Uiso   1.00
C100   C     0.00961   0.46439   0.82188   0.00000  Uiso   1.00
C101   C     0.14755   0.45865   0.79267   0.00000  Uiso   1.00
C102   C     0.68232   0.36556   0.84691   0.00000  Uiso   1.00
C103   C     0.56498   0.39471   0.82546   0.00000  Uiso   1.00
C104   C     0.48288   0.32363   0.80403   0.00000  Uiso   1.00
C105   C     0.31598   0.23642   0.76449   0.00000  Uiso   1.00
C106   C     0.84932   0.25312   0.87243   0.00000  Uiso   1.00
C107   C     0.87565   0.29127   0.91670   0.00000  Uiso   1.00
C108   C     0.92756   0.23899   0.95397   0.00000  Uiso   1.00
C109   C     0.94416   0.28693   0.99123   0.00000  Uiso   1.00
C110   C     0.91280   0.32130   0.85360   0.00000  Uiso   1.00
C111   C     0.99595   0.29428   0.83779   0.00000  Uiso   1.00
C112   C     0.04381   0.36749   0.82192   0.00000  Uiso   1.00
C113   C     0.71646   0.26883   0.84695   0.00000  Uiso   1.00
C114   C     0.63453   0.19769   0.82555   0.00000  Uiso   1.00
C115   C     0.51708   0.22674   0.80407   0.00000  Uiso   1.00
H116   H     0.75990   0.50650   0.87233   0.00000  Uiso   1.00
H117   H     0.83160   0.51087   0.95384   0.00000  Uiso   1.00
H118   H     0.89996   0.56614   0.83768   0.00000  Uiso   1.00
H119   H     0.53860   0.46957   0.82544   0.00000  Uiso   1.00
H120   H     0.92620   0.47306   0.04423   0.00000  Uiso   1.00
H121   H     0.07031   0.58961   0.79928   0.00000  Uiso   1.00
H122   H     0.30830   0.38597   0.77347   0.00000  Uiso   1.00
H123   H     0.87590   0.17782   0.87246   0.00000  Uiso   1.00
H124   H     0.95398   0.16414   0.95399   0.00000  Uiso   1.00
H125   H     0.02234   0.21942   0.83782   0.00000  Uiso   1.00
H126   H     0.66098   0.12285   0.82558   0.00000  Uiso   1.00
H127   H     0.02553   0.19165   0.04435   0.00000  Uiso   1.00
H128   H     0.16964   0.30820   0.79940   0.00000  Uiso   1.00
H129   H     0.40763   0.10456   0.77359   0.00000  Uiso   1.00
O130   O     0.02517   0.32930   0.09791   0.00000  Uiso   1.00
O131   O     0.21422   0.48220   0.77654   0.00000  Uiso   1.00
O132   O     0.21448   0.21504   0.74268   0.00000  Uiso   1.00
N133   N     0.93884   0.40870   0.03307   0.00000  Uiso   1.00
N134   N     0.07359   0.51767   0.80406   0.00000  Uiso   1.00
N135   N     0.36118   0.32729   0.77992   0.00000  Uiso   1.00
N136   N     0.99229   0.25727   0.03313   0.00000  Uiso   1.00
N137   N     0.12704   0.36624   0.80413   0.00000  Uiso   1.00
N138   N     0.41463   0.17586   0.77998   0.00000  Uiso   1.00
C139   C     0.20433   0.21996   0.37917   0.00000  Uiso   1.00
C140   C     0.25724   0.17513   0.42320   0.00000  Uiso   1.00
C141   C     0.27278   0.22188   0.46059   0.00000  Uiso   1.00
C142   C     0.32278   0.16832   0.49759   0.00000  Uiso   1.00
C143   C     0.39994   0.11346   0.56601   0.00000  Uiso   1.00
C144   C     0.29777   0.20709   0.36091   0.00000  Uiso   1.00
C145   C     0.34737   0.28071   0.34593   0.00000  Uiso   1.00
C146   C     0.43146   0.25405   0.33049   0.00000  Uiso   1.00
C147   C     0.57148   0.24880   0.30218   0.00000  Uiso   1.00
C148   C     0.09990   0.15549   0.35286   0.00000  Uiso   1.00
C149   C     0.98312   0.18573   0.33110   0.00000  Uiso   1.00
C150   C     0.90063   0.11562   0.30886   0.00000  Uiso   1.00
C151   C     0.73342   0.03025   0.26806   0.00000  Uiso   1.00
C152   C     0.26547   0.04169   0.37836   0.00000  Uiso   1.00
C153   C     0.29046   0.07831   0.42275   0.00000  Uiso   1.00
C154   C     0.34043   0.02466   0.45970   0.00000  Uiso   1.00
C155   C     0.35604   0.07132   0.49714   0.00000  Uiso   1.00
C156   C     0.33098   0.11027   0.36047   0.00000  Uiso   1.00
C157   C     0.41502   0.08349   0.34503   0.00000  Uiso   1.00
C158   C     0.46474   0.15705   0.33004   0.00000  Uiso   1.00
C159   C     0.13310   0.05866   0.35241   0.00000  Uiso   1.00
C160   C     0.05078   0.98850   0.33020   0.00000  Uiso   1.00
C161   C     0.93390   0.01862   0.30842   0.00000  Uiso   1.00
H162   H     0.17848   0.29534   0.37951   0.00000  Uiso   1.00
H163   H     0.24708   0.29682   0.46092   0.00000  Uiso   1.00
H164   H     0.32164   0.35563   0.34627   0.00000  Uiso   1.00
H165   H     0.95746   0.26066   0.33145   0.00000  Uiso   1.00
H166   H     0.33782   0.25577   0.55099   0.00000  Uiso   1.00
H167   H     0.49501   0.37978   0.30923   0.00000  Uiso   1.00
H168   H     0.72706   0.17951   0.27796   0.00000  Uiso   1.00
H169   H     0.29133   0.96631   0.37802   0.00000  Uiso   1.00
H170   H     0.36612   0.94973   0.45935   0.00000  Uiso   1.00
H171   H     0.44069   0.00855   0.34470   0.00000  Uiso   1.00
H172   H     0.07651   0.91358   0.32987   0.00000  Uiso   1.00
H173   H     0.43445   0.97406   0.54971   0.00000  Uiso   1.00
H174   H     0.59163   0.09808   0.30795   0.00000  Uiso   1.00
H175   H     0.82368   0.89781   0.27668   0.00000  Uiso   1.00
O176   O     0.43334   0.10996   0.60388   0.00000  Uiso   1.00
O177   O     0.63954   0.27266   0.28670   0.00000  Uiso   1.00
O178   O     0.63201   0.00991   0.24567   0.00000  Uiso   1.00
N179   N     0.35028   0.19174   0.53952   0.00000  Uiso   1.00
N180   N     0.49725   0.30769   0.31350   0.00000  Uiso   1.00
N181   N     0.77929   0.12046   0.28426   0.00000  Uiso   1.00
N182   N     0.40227   0.04016   0.53884   0.00000  Uiso   1.00
N183   N     0.54925   0.15611   0.31281   0.00000  Uiso   1.00
N184   N     0.83128   0.96887   0.28357   0.00000  Uiso   1.00
C185   C     0.78647   0.56880   0.37236   0.00000  Uiso   1.00
C186   C     0.84151   0.61201   0.41667   0.00000  Uiso   1.00
C187   C     0.85803   0.56399   0.45388   0.00000  Uiso   1.00
C188   C     0.90996   0.61617   0.49119   0.00000  Uiso   1.00
C189   C     0.99028   0.66854   0.55998   0.00000  Uiso   1.00
C190   C     0.87866   0.58198   0.35356   0.00000  Uiso   1.00
C191   C     0.92641   0.50870   0.33771   0.00000  Uiso   1.00
C192   C     0.00961   0.53561   0.32188   0.00000  Uiso   1.00
C193   C     0.14755   0.54135   0.29267   0.00000  Uiso   1.00
C194   C     0.68232   0.63444   0.34691   0.00000  Uiso   1.00
C195   C     0.56498   0.60529   0.32546   0.00000  Uiso   1.00
C196   C     0.48288   0.67637   0.30403   0.00000  Uiso   1.00
C197   C     0.31598   0.76358   0.26449   0.00000  Uiso   1.00
C198   C     0.84932   0.74688   0.37243   0.00000  Uiso   1.00
C199   C     0.87565   0.70873   0.41670   0.00000  Uiso   1.00
C200   C     0.92756   0.76101   0.45397   0.00000  Uiso   1.00
C201   C     0.94416   0.71307   0.49123   0.00000  Uiso   1.00
C202   C     0.91280   0.67870   0.35360   0.00000  Uiso   1.00
C203   C     0.99595   0.70572   0.33779   0.00000  Uiso   1.00
C204   C     0.04381   0.63251   0.32192   0.00000  Uiso   1.00
C205   C     0.71646   0.73117   0.34695   0.00000  Uiso   1.00
C206   C     0.63453   0.80231   0.32555   0.00000  Uiso   1.00
C207   C     0.51708   0.77326   0.30407   0.00000  Uiso   1.00
H208   H     0.75990   0.49350   0.37233   0.00000  Uiso   1.00
H209   H     0.83160   0.48913   0.45384   0.00000  Uiso   1.00
H210   H     0.89996   0.43386   0.33768   0.00000  Uiso   1.00
H211   H     0.53860   0.53043   0.32544   0.00000  Uiso   1.00
H212   H     0.92620   0.52694   0.54423   0.00000  Uiso   1.00
H213   H     0.07031   0.41039   0.29928   0.00000  Uiso   1.00
H214   H     0.30830   0.61403   0.27347   0.00000  Uiso   1.00
H215   H     0.87590   0.82218   0.37246   0.00000  Uiso   1.00
H216   H     0.95398   0.83586   0.45399   0.00000  Uiso   1.00
H217   H     0.02234   0.78058   0.33782   0.00000  Uiso   1.00
H218   H     0.66098   0.87715   0.32558   0.00000  Uiso   1.00
H219   H     0.02553   0.80835   0.54435   0.00000  Uiso   1.00
H220   H     0.16964   0.69180   0.29940   0.00000  Uiso   1.00
H221   H     0.40763   0.89544   0.27359   0.00000  Uiso   1.00
O222   O     0.02517   0.67070   0.59791   0.00000  Uiso   1.00
O223   O     0.21422   0.51780   0.27654   0.00000  Uiso   1.00
O224   O     0.21448   0.78496   0.24268   0.00000  Uiso   1.00
N225   N     0.93884   0.59130   0.53307   0.00000  Uiso   1.00
N226   N     0.07359   0.48233   0.30406   0.00000  Uiso   1.00
N227   N     0.36118   0.67271   0.27992   0.00000  Uiso   1.00
N228   N     0.99229   0.74273   0.53313   0.00000  Uiso   1.00
N229   N     0.12704   0.63376   0.30413   0.00000  Uiso   1.00
N230   N     0.41463   0.82414   0.27998   0.00000  Uiso   1.00
C231   C     0.20433   0.78004   0.87917   0.00000  Uiso   1.00
C232   C     0.25724   0.82487   0.92319   0.00000  Uiso   1.00
C233   C     0.27278   0.77812   0.96059   0.00000  Uiso   1.00
C234   C     0.32278   0.83168   0.99759   0.00000  Uiso   1.00
C235   C     0.39994   0.88654   0.06601   0.00000  Uiso   1.00
C236   C     0.29777   0.79291   0.86091   0.00000  Uiso   1.00
C237   C     0.34737   0.71929   0.84593   0.00000  Uiso   1.00
C238   C     0.43146   0.74595   0.83049   0.00000  Uiso   1.00
C239   C     0.57148   0.75120   0.80218   0.00000  Uiso   1.00
C240   C     0.09990   0.84451   0.85286   0.00000  Uiso   1.00
C241   C     0.98312   0.81427   0.83110   0.00000  Uiso   1.00
C242   C     0.90063   0.88438   0.80886   0.00000  Uiso   1.00
C243   C     0.73342   0.96975   0.76806   0.00000  Uiso   1.00
C244   C     0.26547   0.95831   0.87836   0.00000  Uiso   1.00
C245   C     0.29046   0.92169   0.92275   0.00000  Uiso   1.00
C246   C     0.34043   0.97534   0.95970   0.00000  Uiso   1.00
C247   C     0.35604   0.92868   0.99714   0.00000  Uiso   1.00
C248   C     0.33098   0.88973   0.86047   0.00000  Uiso   1.00
C249   C     0.41502   0.91651   0.84503   0.00000  Uiso   1.00
C250   C     0.46474   0.84295   0.83004   0.00000  Uiso   1.00
C251   C     0.13310   0.94134   0.85241   0.00000  Uiso   1.00
C252   C     0.05078   0.01150   0.83020   0.00000  Uiso   1.00
C253   C     0.93390   0.98138   0.80842   0.00000  Uiso   1.00
H254   H     0.17848   0.70466   0.87951   0.00000  Uiso   1.00
H255   H     0.24708   0.70318   0.96092   0.00000  Uiso   1.00
H256   H     0.32164   0.64437   0.84627   0.00000  Uiso   1.00
H257   H     0.95746   0.73934   0.83145   0.00000  Uiso   1.00
H258   H     0.33782   0.74423   0.05099   0.00000  Uiso   1.00
H259   H     0.49501   0.62022   0.80923   0.00000  Uiso   1.00
H260   H     0.72706   0.82049   0.77796   0.00000  Uiso   1.00
H261   H     0.29133   0.03369   0.87802   0.00000  Uiso   1.00
H262   H     0.36612   0.05027   0.95935   0.00000  Uiso   1.00
H263   H     0.44069   0.99145   0.84470   0.00000  Uiso   1.00
H264   H     0.07651   0.08642   0.82987   0.00000  Uiso   1.00
H265   H     0.43445   0.02594   0.04971   0.00000  Uiso   1.00
H266   H     0.59163   0.90192   0.80795   0.00000  Uiso   1.00
H267   H     0.82368   0.10219   0.77668   0.00000  Uiso   1.00
O268   O     0.43334   0.89004   0.10388   0.00000  Uiso   1.00
O269   O     0.63954   0.72734   0.78670   0.00000  Uiso   1.00
O270   O     0.63201   0.99009   0.74567   0.00000  Uiso   1.00
N271   N     0.35028   0.80826   0.03952   0.00000  Uiso   1.00
N272   N     0.49725   0.69231   0.81350   0.00000  Uiso   1.00
N273   N     0.77929   0.87954   0.78426   0.00000  Uiso   1.00
N274   N     0.40227   0.95984   0.03884   0.00000  Uiso   1.00
N275   N     0.54925   0.84389   0.81281   0.00000  Uiso   1.00
N276   N     0.83128   0.03113   0.78357   0.00000  Uiso   1.00
C277   C     0.21353   0.56880   0.12764   0.00000  Uiso   1.00
C278   C     0.15849   0.61201   0.08333   0.00000  Uiso   1.00
C279   C     0.14197   0.56399   0.04612   0.00000  Uiso   1.00
C280   C     0.09004   0.61617   0.00881   0.00000  Uiso   1.00
C281   C     0.00972   0.66854   0.94002   0.00000  Uiso   1.00
C282   C     0.12134   0.58198   0.14644   0.00000  Uiso   1.00
C283   C     0.07359   0.50870   0.16229   0.00000  Uiso   1.00
C284   C     0.99039   0.53561   0.17812   0.00000  Uiso   1.00
C285   C     0.85245   0.54135   0.20733   0.00000  Uiso   1.00
C286   C     0.31768   0.63444   0.15309   0.00000  Uiso   1.00
C287   C     0.43502   0.60529   0.17454   0.00000  Uiso   1.00
C288   C     0.51712   0.67637   0.19597   0.00000  Uiso   1.00
C289   C     0.68402   0.76358   0.23551   0.00000  Uiso   1.00
C290   C     0.15068   0.74688   0.12757   0.00000  Uiso   1.00
C291   C     0.12435   0.70873   0.08330   0.00000  Uiso   1.00
C292   C     0.07244   0.76101   0.04603   0.00000  Uiso   1.00
C293   C     0.05584   0.71307   0.00877   0.00000  Uiso   1.00
C294   C     0.08720   0.67870   0.14640   0.00000  Uiso   1.00
C295   C     0.00405   0.70572   0.16221   0.00000  Uiso   1.00
C296   C     0.95619   0.63251   0.17808   0.00000  Uiso   1.00
C297   C     0.28354   0.73117   0.15305   0.00000  Uiso   1.00
C298   C     0.36547   0.80231   0.17445   0.00000  Uiso   1.00
C299   C     0.48292   0.77326   0.19593   0.00000  Uiso   1.00
H300   H     0.24010   0.49350   0.12767   0.00000  Uiso   1.00
H301   H     0.16840   0.48913   0.04616   0.00000  Uiso   1.00
H302   H     0.10004   0.43386   0.16232   0.00000  Uiso   1.00
H303   H     0.46140   0.53043   0.17456   0.00000  Uiso   1.00
H304   H     0.07380   0.52694   0.95577   0.00000  Uiso   1.00
H305   H     0.92969   0.41039   0.20072   0.00000  Uiso   1.00
H306   H     0.69170   0.61403   0.22653   0.00000  Uiso   1.00
H307   H     0.12410   0.82218   0.12754   0.00000  Uiso   1.00
H308   H     0.04602   0.83586   0.04601   0.00000  Uiso   1.00
H309   H     0.97766   0.78058   0.16218   0.00000  Uiso   1.00
H310   H     0.33902   0.87715   0.17442   0.00000  Uiso   1.00
H311   H     0.97447   0.80835   0.95565   0.00000  Uiso   1.00
H312   H     0.83036   0.69180   0.20060   0.00000  Uiso   1.00
H313   H     0.59237   0.89544   0.22641   0.00000  Uiso   1.00
O314   O     0.97483   0.67070   0.90209   0.00000  Uiso   1.00
O315   O     0.78578   0.51780   0.22346   0.00000  Uiso   1.00
O316   O     0.78552   0.78496   0.25732   0.00000  Uiso   1.00
N317   N     0.06116   0.59130   0.96693   0.00000  Uiso   1.00
N318   N     0.92641   0.48233   0.19594   0.00000  Uiso   1.00
N319   N     0.63882   0.67271   0.22008   0.00000  Uiso   1.00
N320   N     0.00771   0.74273   0.96687   0.00000  Uiso   1.00
N321   N     0.87296   0.63376   0.19587   0.00000  Uiso   1.00
N322   N     0.58537   0.82414   0.22002   0.00000  Uiso   1.00
C323   C     0.79567   0.78004   0.62083   0.00000  Uiso   1.00
C324   C     0.74276   0.82487   0.57680   0.00000  Uiso   1.00
C325   C     0.72722   0.77812   0.53941   0.00000  Uiso   1.00
C326   C     0.67722   0.83168   0.50241   0.00000  Uiso   1.00
C327   C     0.60006   0.88654   0.43399   0.00000  Uiso   1.00
C328   C     0.70223   0.79291   0.63909   0.00000  Uiso   1.00
C329   C     0.65263   0.71929   0.65407   0.00000  Uiso   1.00
C330   C     0.56854   0.74595   0.66951   0.00000  Uiso   1.00
C331   C     0.42852   0.75120   0.69782   0.00000  Uiso   1.00
C332   C     0.90010   0.84451   0.64714   0.00000  Uiso   1.00
C333   C     0.01688   0.81427   0.66890   0.00000  Uiso   1.00
C334   C     0.09937   0.88438   0.69114   0.00000  Uiso   1.00
C335   C     0.26658   0.96975   0.73194   0.00000  Uiso   1.00
C336   C     0.73453   0.95831   0.62164   0.00000  Uiso   1.00
C337   C     0.70954   0.92169   0.57725   0.00000  Uiso   1.00
C338   C     0.65957   0.97534   0.54030   0.00000  Uiso   1.00
C339   C     0.64396   0.92868   0.50286   0.00000  Uiso   1.00
C340   C     0.66902   0.88973   0.63953   0.00000  Uiso   1.00
C341   C     0.58498   0.91651   0.65497   0.00000  Uiso   1.00
C342   C     0.53526   0.84295   0.66996   0.00000  Uiso   1.00
C343   C     0.86690   0.94134   0.64759   0.00000  Uiso   1.00
C344   C     0.94922   0.01150   0.66980   0.00000  Uiso   1.00
C345   C     0.06610   0.98138   0.69158   0.00000  Uiso   1.00
H346   H     0.82152   0.70466   0.62049   0.00000  Uiso   1.00
H347   H     0.75292   0.70318   0.53908   0.00000  Uiso   1.00
H348   H     0.67836   0.64437   0.65373   0.00000  Uiso   1.00
H349   H     0.04254   0.73934   0.66855   0.00000  Uiso   1.00
H350   H     0.66218   0.74423   0.44901   0.00000  Uiso   1.00
H351   H     0.50499   0.62022   0.69077   0.00000  Uiso   1.00
H352   H     0.27294   0.82049   0.72204   0.00000  Uiso   1.00
H353   H     0.70867   0.03369   0.62198   0.00000  Uiso   1.00
H354   H     0.63388   0.05027   0.54065   0.00000  Uiso   1.00
H355   H     0.55931   0.99145   0.65530   0.00000  Uiso   1.00
H356   H     0.92349   0.08642   0.67013   0.00000  Uiso   1.00
H357   H     0.56555   0.02594   0.45029   0.00000  Uiso   1.00
H358   H     0.40837   0.90192   0.69205   0.00000  Uiso   1.00
H359   H     0.17632   0.10219   0.72332   0.00000  Uiso   1.00
O360   O     0.56666   0.89004   0.39612   0.00000  Uiso   1.00
O361   O     0.36046   0.72734   0.71330   0.00000  Uiso   1.00
O362   O     0.36799   0.99009   0.75433   0.00000  Uiso   1.00
N363   N     0.64972   0.80826   0.46048   0.00000  Uiso   1.00
N364   N     0.50275   0.69231   0.68650   0.00000  Uiso   1.00
N365   N     0.22071   0.87954   0.71574   0.00000  Uiso   1.00
N366   N     0.59773   0.95984   0.46116   0.00000  Uiso   1.00
N367   N     0.45075   0.84389   0.68719   0.00000  Uiso   1.00
N368   N     0.16872   0.03113   0.71643   0.00000  Uiso   1.00
