data_job_00967
_audit_creation_date              2018-12-19
_audit_creation_method            'Materials Studio'
_symmetry_space_group_name_H-M    'P1'
_symmetry_Int_Tables_number       1
_symmetry_cell_setting            triclinic
loop_
_symmetry_equiv_pos_as_xyz
  x,y,z
_cell_length_a                    29.7783
_cell_length_b                    12.4046
_cell_length_c                    25.7489
_cell_angle_alpha                 90.0000
_cell_angle_beta                  138.8962
_cell_angle_gamma                 90.0000
loop_
_atom_site_label
_atom_site_type_symbol
_atom_site_fract_x
_atom_site_fract_y
_atom_site_fract_z
_atom_site_U_iso_or_equiv
_atom_site_adp_type
_atom_site_occupancy
C1     C     0.58063   0.75604   0.71400   0.00000  Uiso   1.00
C2     C     0.50443   0.73923   0.63835   0.00000  Uiso   1.00
C3     C     0.45327   0.75181   0.63056   0.00000  Uiso   1.00
C4     C     0.38670   0.73263   0.55641   0.00000  Uiso   1.00
C5     C     0.27064   0.71114   0.44869   0.00000  Uiso   1.00
C6     C     0.61520   0.65065   0.72868   0.00000  Uiso   1.00
C7     C     0.65718   0.58878   0.79685   0.00000  Uiso   1.00
C8     C     0.68387   0.49503   0.79875   0.00000  Uiso   1.00
C9     C     0.73982   0.33607   0.83129   0.00000  Uiso   1.00
C10    C     0.60359   0.83954   0.69421   0.00000  Uiso   1.00
C11    C     0.63583   0.93648   0.73341   0.00000  Uiso   1.00
C12    C     0.65275   0.00176   0.70629   0.00000  Uiso   1.00
C13    C     0.69068   0.13608   0.68532   0.00000  Uiso   1.00
C14    C     0.55340   0.69958   0.59615   0.00000  Uiso   1.00
C15    C     0.48964   0.70856   0.57434   0.00000  Uiso   1.00
C16    C     0.42314   0.68935   0.50018   0.00000  Uiso   1.00
C17    C     0.37188   0.70192   0.49229   0.00000  Uiso   1.00
C18    C     0.60041   0.61998   0.66467   0.00000  Uiso   1.00
C19    C     0.62705   0.52632   0.66647   0.00000  Uiso   1.00
C20    C     0.66905   0.46431   0.73462   0.00000  Uiso   1.00
C21    C     0.58880   0.80888   0.63020   0.00000  Uiso   1.00
C22    C     0.60569   0.87402   0.60302   0.00000  Uiso   1.00
C23    C     0.63794   0.97104   0.64217   0.00000  Uiso   1.00
H24    H     0.59215   0.77990   0.76383   0.00000  Uiso   1.00
H25    H     0.46473   0.77554   0.68012   0.00000  Uiso   1.00
H26    H     0.66862   0.61253   0.84638   0.00000  Uiso   1.00
H27    H     0.64726   0.96018   0.78294   0.00000  Uiso   1.00
H28    H     0.31695   0.75713   0.55908   0.00000  Uiso   1.00
H29    H     0.74688   0.41344   0.90966   0.00000  Uiso   1.00
H30    H     0.70184   0.14653   0.77590   0.00000  Uiso   1.00
H31    H     0.54189   0.67571   0.54631   0.00000  Uiso   1.00
H32    H     0.41171   0.66562   0.45065   0.00000  Uiso   1.00
H33    H     0.61560   0.50261   0.61692   0.00000  Uiso   1.00
H34    H     0.59424   0.85026   0.55349   0.00000  Uiso   1.00
H35    H     0.27391   0.66792   0.37284   0.00000  Uiso   1.00
H36    H     0.70384   0.32423   0.72343   0.00000  Uiso   1.00
H37    H     0.65881   0.05732   0.58966   0.00000  Uiso   1.00
O38    O     0.21071   0.70774   0.40696   0.00000  Uiso   1.00
O39    O     0.77476   0.25685   0.86693   0.00000  Uiso   1.00
O40    O     0.71568   0.21864   0.69143   0.00000  Uiso   1.00
N41    N     0.32469   0.73754   0.52837   0.00000  Uiso   1.00
N42    N     0.72663   0.41620   0.85614   0.00000  Uiso   1.00
N43    N     0.68455   0.10157   0.73110   0.00000  Uiso   1.00
N44    N     0.30153   0.68954   0.42816   0.00000  Uiso   1.00
N45    N     0.70347   0.36820   0.75593   0.00000  Uiso   1.00
N46    N     0.66139   0.05356   0.63089   0.00000  Uiso   1.00
C47    C     0.08063   0.25604   0.71400   0.00000  Uiso   1.00
C48    C     0.00443   0.23923   0.63835   0.00000  Uiso   1.00
C49    C     0.95327   0.25181   0.63056   0.00000  Uiso   1.00
C50    C     0.88670   0.23263   0.55641   0.00000  Uiso   1.00
C51    C     0.77064   0.21114   0.44869   0.00000  Uiso   1.00
C52    C     0.11520   0.15065   0.72868   0.00000  Uiso   1.00
C53    C     0.15718   0.08878   0.79685   0.00000  Uiso   1.00
C54    C     0.18387   0.99503   0.79875   0.00000  Uiso   1.00
C55    C     0.23982   0.83607   0.83129   0.00000  Uiso   1.00
C56    C     0.10359   0.33954   0.69421   0.00000  Uiso   1.00
C57    C     0.13583   0.43648   0.73341   0.00000  Uiso   1.00
C58    C     0.15275   0.50176   0.70629   0.00000  Uiso   1.00
C59    C     0.19068   0.63608   0.68532   0.00000  Uiso   1.00
C60    C     0.05340   0.19958   0.59615   0.00000  Uiso   1.00
C61    C     0.98964   0.20856   0.57434   0.00000  Uiso   1.00
C62    C     0.92314   0.18935   0.50018   0.00000  Uiso   1.00
C63    C     0.87188   0.20192   0.49229   0.00000  Uiso   1.00
C64    C     0.10041   0.11998   0.66467   0.00000  Uiso   1.00
C65    C     0.12705   0.02632   0.66647   0.00000  Uiso   1.00
C66    C     0.16905   0.96431   0.73462   0.00000  Uiso   1.00
C67    C     0.08880   0.30888   0.63020   0.00000  Uiso   1.00
C68    C     0.10569   0.37402   0.60302   0.00000  Uiso   1.00
C69    C     0.13794   0.47104   0.64217   0.00000  Uiso   1.00
H70    H     0.09215   0.27990   0.76383   0.00000  Uiso   1.00
H71    H     0.96473   0.27554   0.68012   0.00000  Uiso   1.00
H72    H     0.16862   0.11253   0.84638   0.00000  Uiso   1.00
H73    H     0.14726   0.46018   0.78294   0.00000  Uiso   1.00
H74    H     0.81695   0.25713   0.55908   0.00000  Uiso   1.00
H75    H     0.24688   0.91344   0.90966   0.00000  Uiso   1.00
H76    H     0.20184   0.64653   0.77590   0.00000  Uiso   1.00
H77    H     0.04189   0.17571   0.54631   0.00000  Uiso   1.00
H78    H     0.91171   0.16562   0.45065   0.00000  Uiso   1.00
H79    H     0.11560   0.00261   0.61692   0.00000  Uiso   1.00
H80    H     0.09424   0.35026   0.55349   0.00000  Uiso   1.00
H81    H     0.77391   0.16792   0.37284   0.00000  Uiso   1.00
H82    H     0.20384   0.82423   0.72343   0.00000  Uiso   1.00
H83    H     0.15881   0.55732   0.58966   0.00000  Uiso   1.00
O84    O     0.71071   0.20774   0.40696   0.00000  Uiso   1.00
O85    O     0.27476   0.75685   0.86693   0.00000  Uiso   1.00
O86    O     0.21568   0.71864   0.69143   0.00000  Uiso   1.00
N87    N     0.82469   0.23754   0.52837   0.00000  Uiso   1.00
N88    N     0.22663   0.91620   0.85614   0.00000  Uiso   1.00
N89    N     0.18455   0.60157   0.73110   0.00000  Uiso   1.00
N90    N     0.80153   0.18954   0.42816   0.00000  Uiso   1.00
N91    N     0.20347   0.86820   0.75593   0.00000  Uiso   1.00
N92    N     0.16139   0.55356   0.63089   0.00000  Uiso   1.00
C93    C     0.41937   0.75604   0.78600   0.00000  Uiso   1.00
C94    C     0.49557   0.73923   0.86165   0.00000  Uiso   1.00
C95    C     0.54673   0.75181   0.86944   0.00000  Uiso   1.00
C96    C     0.61330   0.73263   0.94359   0.00000  Uiso   1.00
C97    C     0.72936   0.71114   0.05131   0.00000  Uiso   1.00
C98    C     0.38480   0.65065   0.77132   0.00000  Uiso   1.00
C99    C     0.34282   0.58878   0.70315   0.00000  Uiso   1.00
C100   C     0.31613   0.49503   0.70125   0.00000  Uiso   1.00
C101   C     0.26018   0.33607   0.66871   0.00000  Uiso   1.00
C102   C     0.39641   0.83954   0.80579   0.00000  Uiso   1.00
C103   C     0.36417   0.93648   0.76659   0.00000  Uiso   1.00
C104   C     0.34725   0.00176   0.79371   0.00000  Uiso   1.00
C105   C     0.30932   0.13608   0.81468   0.00000  Uiso   1.00
C106   C     0.44660   0.69958   0.90385   0.00000  Uiso   1.00
C107   C     0.51036   0.70856   0.92566   0.00000  Uiso   1.00
C108   C     0.57686   0.68935   0.99982   0.00000  Uiso   1.00
C109   C     0.62812   0.70192   0.00771   0.00000  Uiso   1.00
C110   C     0.39959   0.61998   0.83533   0.00000  Uiso   1.00
C111   C     0.37295   0.52632   0.83353   0.00000  Uiso   1.00
C112   C     0.33095   0.46431   0.76538   0.00000  Uiso   1.00
C113   C     0.41120   0.80888   0.86980   0.00000  Uiso   1.00
C114   C     0.39431   0.87402   0.89698   0.00000  Uiso   1.00
C115   C     0.36206   0.97104   0.85783   0.00000  Uiso   1.00
H116   H     0.40785   0.77990   0.73617   0.00000  Uiso   1.00
H117   H     0.53527   0.77554   0.81988   0.00000  Uiso   1.00
H118   H     0.33138   0.61253   0.65362   0.00000  Uiso   1.00
H119   H     0.35274   0.96018   0.71706   0.00000  Uiso   1.00
H120   H     0.68305   0.75713   0.94092   0.00000  Uiso   1.00
H121   H     0.25312   0.41344   0.59034   0.00000  Uiso   1.00
H122   H     0.29816   0.14653   0.72410   0.00000  Uiso   1.00
H123   H     0.45811   0.67571   0.95369   0.00000  Uiso   1.00
H124   H     0.58829   0.66562   0.04935   0.00000  Uiso   1.00
H125   H     0.38440   0.50261   0.88308   0.00000  Uiso   1.00
H126   H     0.40576   0.85026   0.94651   0.00000  Uiso   1.00
H127   H     0.72609   0.66792   0.12716   0.00000  Uiso   1.00
H128   H     0.29616   0.32423   0.77657   0.00000  Uiso   1.00
H129   H     0.34119   0.05732   0.91034   0.00000  Uiso   1.00
O130   O     0.78929   0.70774   0.09304   0.00000  Uiso   1.00
O131   O     0.22524   0.25685   0.63307   0.00000  Uiso   1.00
O132   O     0.28432   0.21864   0.80857   0.00000  Uiso   1.00
N133   N     0.67531   0.73754   0.97163   0.00000  Uiso   1.00
N134   N     0.27337   0.41620   0.64386   0.00000  Uiso   1.00
N135   N     0.31545   0.10157   0.76890   0.00000  Uiso   1.00
N136   N     0.69847   0.68954   0.07184   0.00000  Uiso   1.00
N137   N     0.29653   0.36820   0.74407   0.00000  Uiso   1.00
N138   N     0.33861   0.05356   0.86911   0.00000  Uiso   1.00
C139   C     0.91937   0.25604   0.78600   0.00000  Uiso   1.00
C140   C     0.99557   0.23923   0.86165   0.00000  Uiso   1.00
C141   C     0.04673   0.25181   0.86944   0.00000  Uiso   1.00
C142   C     0.11330   0.23263   0.94359   0.00000  Uiso   1.00
C143   C     0.22936   0.21114   0.05131   0.00000  Uiso   1.00
C144   C     0.88480   0.15065   0.77132   0.00000  Uiso   1.00
C145   C     0.84282   0.08878   0.70315   0.00000  Uiso   1.00
C146   C     0.81613   0.99503   0.70125   0.00000  Uiso   1.00
C147   C     0.76018   0.83607   0.66871   0.00000  Uiso   1.00
C148   C     0.89641   0.33954   0.80579   0.00000  Uiso   1.00
C149   C     0.86417   0.43648   0.76659   0.00000  Uiso   1.00
C150   C     0.84725   0.50176   0.79371   0.00000  Uiso   1.00
C151   C     0.80932   0.63608   0.81468   0.00000  Uiso   1.00
C152   C     0.94660   0.19958   0.90385   0.00000  Uiso   1.00
C153   C     0.01036   0.20856   0.92566   0.00000  Uiso   1.00
C154   C     0.07686   0.18935   0.99982   0.00000  Uiso   1.00
C155   C     0.12812   0.20192   0.00771   0.00000  Uiso   1.00
C156   C     0.89959   0.11998   0.83533   0.00000  Uiso   1.00
C157   C     0.87295   0.02632   0.83353   0.00000  Uiso   1.00
C158   C     0.83095   0.96431   0.76538   0.00000  Uiso   1.00
C159   C     0.91120   0.30888   0.86980   0.00000  Uiso   1.00
C160   C     0.89431   0.37402   0.89698   0.00000  Uiso   1.00
C161   C     0.86206   0.47104   0.85783   0.00000  Uiso   1.00
H162   H     0.90785   0.27990   0.73617   0.00000  Uiso   1.00
H163   H     0.03527   0.27554   0.81988   0.00000  Uiso   1.00
H164   H     0.83138   0.11253   0.65362   0.00000  Uiso   1.00
H165   H     0.85274   0.46018   0.71706   0.00000  Uiso   1.00
H166   H     0.18305   0.25713   0.94092   0.00000  Uiso   1.00
H167   H     0.75312   0.91344   0.59034   0.00000  Uiso   1.00
H168   H     0.79816   0.64653   0.72410   0.00000  Uiso   1.00
H169   H     0.95811   0.17571   0.95369   0.00000  Uiso   1.00
H170   H     0.08829   0.16562   0.04935   0.00000  Uiso   1.00
H171   H     0.88440   0.00261   0.88308   0.00000  Uiso   1.00
H172   H     0.90576   0.35026   0.94651   0.00000  Uiso   1.00
H173   H     0.22609   0.16792   0.12716   0.00000  Uiso   1.00
H174   H     0.79616   0.82423   0.77657   0.00000  Uiso   1.00
H175   H     0.84119   0.55732   0.91034   0.00000  Uiso   1.00
O176   O     0.28929   0.20774   0.09304   0.00000  Uiso   1.00
O177   O     0.72524   0.75685   0.63307   0.00000  Uiso   1.00
O178   O     0.78432   0.71864   0.80857   0.00000  Uiso   1.00
N179   N     0.17531   0.23754   0.97163   0.00000  Uiso   1.00
N180   N     0.77337   0.91620   0.64386   0.00000  Uiso   1.00
N181   N     0.81545   0.60157   0.76890   0.00000  Uiso   1.00
N182   N     0.19847   0.18954   0.07184   0.00000  Uiso   1.00
N183   N     0.79653   0.86820   0.74407   0.00000  Uiso   1.00
N184   N     0.83861   0.55356   0.86911   0.00000  Uiso   1.00
C185   C     0.41937   0.24396   0.28600   0.00000  Uiso   1.00
C186   C     0.49557   0.26077   0.36165   0.00000  Uiso   1.00
C187   C     0.54673   0.24819   0.36944   0.00000  Uiso   1.00
C188   C     0.61330   0.26737   0.44359   0.00000  Uiso   1.00
C189   C     0.72936   0.28886   0.55131   0.00000  Uiso   1.00
C190   C     0.38480   0.34935   0.27132   0.00000  Uiso   1.00
C191   C     0.34282   0.41122   0.20315   0.00000  Uiso   1.00
C192   C     0.31613   0.50497   0.20125   0.00000  Uiso   1.00
C193   C     0.26018   0.66393   0.16871   0.00000  Uiso   1.00
C194   C     0.39641   0.16046   0.30579   0.00000  Uiso   1.00
C195   C     0.36417   0.06352   0.26659   0.00000  Uiso   1.00
C196   C     0.34725   0.99824   0.29371   0.00000  Uiso   1.00
C197   C     0.30932   0.86392   0.31468   0.00000  Uiso   1.00
C198   C     0.44660   0.30042   0.40385   0.00000  Uiso   1.00
C199   C     0.51036   0.29144   0.42566   0.00000  Uiso   1.00
C200   C     0.57686   0.31065   0.49982   0.00000  Uiso   1.00
C201   C     0.62812   0.29808   0.50771   0.00000  Uiso   1.00
C202   C     0.39959   0.38002   0.33533   0.00000  Uiso   1.00
C203   C     0.37295   0.47368   0.33353   0.00000  Uiso   1.00
C204   C     0.33095   0.53569   0.26538   0.00000  Uiso   1.00
C205   C     0.41120   0.19112   0.36980   0.00000  Uiso   1.00
C206   C     0.39431   0.12598   0.39698   0.00000  Uiso   1.00
C207   C     0.36206   0.02896   0.35783   0.00000  Uiso   1.00
H208   H     0.40785   0.22010   0.23617   0.00000  Uiso   1.00
H209   H     0.53527   0.22446   0.31988   0.00000  Uiso   1.00
H210   H     0.33138   0.38747   0.15362   0.00000  Uiso   1.00
H211   H     0.35274   0.03982   0.21706   0.00000  Uiso   1.00
H212   H     0.68305   0.24287   0.44092   0.00000  Uiso   1.00
H213   H     0.25312   0.58656   0.09034   0.00000  Uiso   1.00
H214   H     0.29816   0.85347   0.22410   0.00000  Uiso   1.00
H215   H     0.45811   0.32429   0.45369   0.00000  Uiso   1.00
H216   H     0.58829   0.33438   0.54935   0.00000  Uiso   1.00
H217   H     0.38440   0.49739   0.38308   0.00000  Uiso   1.00
H218   H     0.40576   0.14974   0.44651   0.00000  Uiso   1.00
H219   H     0.72609   0.33208   0.62716   0.00000  Uiso   1.00
H220   H     0.29616   0.67577   0.27657   0.00000  Uiso   1.00
H221   H     0.34119   0.94268   0.41034   0.00000  Uiso   1.00
O222   O     0.78929   0.29226   0.59304   0.00000  Uiso   1.00
O223   O     0.22524   0.74315   0.13307   0.00000  Uiso   1.00
O224   O     0.28432   0.78136   0.30857   0.00000  Uiso   1.00
N225   N     0.67531   0.26246   0.47163   0.00000  Uiso   1.00
N226   N     0.27337   0.58380   0.14386   0.00000  Uiso   1.00
N227   N     0.31545   0.89843   0.26890   0.00000  Uiso   1.00
N228   N     0.69847   0.31046   0.57184   0.00000  Uiso   1.00
N229   N     0.29653   0.63180   0.24407   0.00000  Uiso   1.00
N230   N     0.33861   0.94644   0.36911   0.00000  Uiso   1.00
C231   C     0.91937   0.74396   0.28600   0.00000  Uiso   1.00
C232   C     0.99557   0.76077   0.36165   0.00000  Uiso   1.00
C233   C     0.04673   0.74819   0.36944   0.00000  Uiso   1.00
C234   C     0.11330   0.76737   0.44359   0.00000  Uiso   1.00
C235   C     0.22936   0.78886   0.55131   0.00000  Uiso   1.00
C236   C     0.88480   0.84935   0.27132   0.00000  Uiso   1.00
C237   C     0.84282   0.91122   0.20315   0.00000  Uiso   1.00
C238   C     0.81613   0.00497   0.20125   0.00000  Uiso   1.00
C239   C     0.76018   0.16393   0.16871   0.00000  Uiso   1.00
C240   C     0.89641   0.66046   0.30579   0.00000  Uiso   1.00
C241   C     0.86417   0.56352   0.26659   0.00000  Uiso   1.00
C242   C     0.84725   0.49824   0.29371   0.00000  Uiso   1.00
C243   C     0.80932   0.36392   0.31468   0.00000  Uiso   1.00
C244   C     0.94660   0.80042   0.40385   0.00000  Uiso   1.00
C245   C     0.01036   0.79144   0.42566   0.00000  Uiso   1.00
C246   C     0.07686   0.81065   0.49982   0.00000  Uiso   1.00
C247   C     0.12812   0.79808   0.50771   0.00000  Uiso   1.00
C248   C     0.89959   0.88002   0.33533   0.00000  Uiso   1.00
C249   C     0.87295   0.97368   0.33353   0.00000  Uiso   1.00
C250   C     0.83095   0.03569   0.26538   0.00000  Uiso   1.00
C251   C     0.91120   0.69112   0.36980   0.00000  Uiso   1.00
C252   C     0.89431   0.62598   0.39698   0.00000  Uiso   1.00
C253   C     0.86206   0.52896   0.35783   0.00000  Uiso   1.00
H254   H     0.90785   0.72010   0.23617   0.00000  Uiso   1.00
H255   H     0.03527   0.72446   0.31988   0.00000  Uiso   1.00
H256   H     0.83138   0.88747   0.15362   0.00000  Uiso   1.00
H257   H     0.85274   0.53982   0.21706   0.00000  Uiso   1.00
H258   H     0.18305   0.74287   0.44092   0.00000  Uiso   1.00
H259   H     0.75312   0.08656   0.09034   0.00000  Uiso   1.00
H260   H     0.79816   0.35347   0.22410   0.00000  Uiso   1.00
H261   H     0.95811   0.82429   0.45369   0.00000  Uiso   1.00
H262   H     0.08829   0.83438   0.54935   0.00000  Uiso   1.00
H263   H     0.88440   0.99739   0.38308   0.00000  Uiso   1.00
H264   H     0.90576   0.64974   0.44651   0.00000  Uiso   1.00
H265   H     0.22609   0.83208   0.62716   0.00000  Uiso   1.00
H266   H     0.79616   0.17577   0.27657   0.00000  Uiso   1.00
H267   H     0.84119   0.44268   0.41034   0.00000  Uiso   1.00
O268   O     0.28929   0.79226   0.59304   0.00000  Uiso   1.00
O269   O     0.72524   0.24315   0.13307   0.00000  Uiso   1.00
O270   O     0.78432   0.28136   0.30857   0.00000  Uiso   1.00
N271   N     0.17531   0.76246   0.47163   0.00000  Uiso   1.00
N272   N     0.77337   0.08380   0.14386   0.00000  Uiso   1.00
N273   N     0.81545   0.39843   0.26890   0.00000  Uiso   1.00
N274   N     0.19847   0.81046   0.57184   0.00000  Uiso   1.00
N275   N     0.79653   0.13180   0.24407   0.00000  Uiso   1.00
N276   N     0.83861   0.44644   0.36911   0.00000  Uiso   1.00
C277   C     0.58063   0.24396   0.21400   0.00000  Uiso   1.00
C278   C     0.50443   0.26077   0.13835   0.00000  Uiso   1.00
C279   C     0.45327   0.24819   0.13056   0.00000  Uiso   1.00
C280   C     0.38670   0.26737   0.05641   0.00000  Uiso   1.00
C281   C     0.27064   0.28886   0.94869   0.00000  Uiso   1.00
C282   C     0.61520   0.34935   0.22868   0.00000  Uiso   1.00
C283   C     0.65718   0.41122   0.29685   0.00000  Uiso   1.00
C284   C     0.68387   0.50497   0.29875   0.00000  Uiso   1.00
C285   C     0.73982   0.66393   0.33129   0.00000  Uiso   1.00
C286   C     0.60359   0.16046   0.19421   0.00000  Uiso   1.00
C287   C     0.63583   0.06352   0.23341   0.00000  Uiso   1.00
C288   C     0.65275   0.99824   0.20629   0.00000  Uiso   1.00
C289   C     0.69068   0.86392   0.18532   0.00000  Uiso   1.00
C290   C     0.55340   0.30042   0.09615   0.00000  Uiso   1.00
C291   C     0.48964   0.29144   0.07434   0.00000  Uiso   1.00
C292   C     0.42314   0.31065   0.00018   0.00000  Uiso   1.00
C293   C     0.37188   0.29808   0.99229   0.00000  Uiso   1.00
C294   C     0.60041   0.38002   0.16467   0.00000  Uiso   1.00
C295   C     0.62705   0.47368   0.16647   0.00000  Uiso   1.00
C296   C     0.66905   0.53569   0.23462   0.00000  Uiso   1.00
C297   C     0.58880   0.19112   0.13020   0.00000  Uiso   1.00
C298   C     0.60569   0.12598   0.10302   0.00000  Uiso   1.00
C299   C     0.63794   0.02896   0.14217   0.00000  Uiso   1.00
H300   H     0.59215   0.22010   0.26383   0.00000  Uiso   1.00
H301   H     0.46473   0.22446   0.18012   0.00000  Uiso   1.00
H302   H     0.66862   0.38747   0.34638   0.00000  Uiso   1.00
H303   H     0.64726   0.03982   0.28294   0.00000  Uiso   1.00
H304   H     0.31695   0.24287   0.05908   0.00000  Uiso   1.00
H305   H     0.74688   0.58656   0.40966   0.00000  Uiso   1.00
H306   H     0.70184   0.85347   0.27590   0.00000  Uiso   1.00
H307   H     0.54189   0.32429   0.04631   0.00000  Uiso   1.00
H308   H     0.41171   0.33438   0.95065   0.00000  Uiso   1.00
H309   H     0.61560   0.49739   0.11692   0.00000  Uiso   1.00
H310   H     0.59424   0.14974   0.05349   0.00000  Uiso   1.00
H311   H     0.27391   0.33208   0.87284   0.00000  Uiso   1.00
H312   H     0.70384   0.67577   0.22343   0.00000  Uiso   1.00
H313   H     0.65881   0.94268   0.08966   0.00000  Uiso   1.00
O314   O     0.21071   0.29226   0.90696   0.00000  Uiso   1.00
O315   O     0.77476   0.74315   0.36693   0.00000  Uiso   1.00
O316   O     0.71568   0.78136   0.19143   0.00000  Uiso   1.00
N317   N     0.32469   0.26246   0.02837   0.00000  Uiso   1.00
N318   N     0.72663   0.58380   0.35614   0.00000  Uiso   1.00
N319   N     0.68455   0.89843   0.23110   0.00000  Uiso   1.00
N320   N     0.30153   0.31046   0.92816   0.00000  Uiso   1.00
N321   N     0.70347   0.63180   0.25593   0.00000  Uiso   1.00
N322   N     0.66139   0.94644   0.13089   0.00000  Uiso   1.00
C323   C     0.08063   0.74396   0.21400   0.00000  Uiso   1.00
C324   C     0.00443   0.76077   0.13835   0.00000  Uiso   1.00
C325   C     0.95327   0.74819   0.13056   0.00000  Uiso   1.00
C326   C     0.88670   0.76737   0.05641   0.00000  Uiso   1.00
C327   C     0.77064   0.78886   0.94869   0.00000  Uiso   1.00
C328   C     0.11520   0.84935   0.22868   0.00000  Uiso   1.00
C329   C     0.15718   0.91122   0.29685   0.00000  Uiso   1.00
C330   C     0.18387   0.00497   0.29875   0.00000  Uiso   1.00
C331   C     0.23982   0.16393   0.33129   0.00000  Uiso   1.00
C332   C     0.10359   0.66046   0.19421   0.00000  Uiso   1.00
C333   C     0.13583   0.56352   0.23341   0.00000  Uiso   1.00
C334   C     0.15275   0.49824   0.20629   0.00000  Uiso   1.00
C335   C     0.19068   0.36392   0.18532   0.00000  Uiso   1.00
C336   C     0.05340   0.80042   0.09615   0.00000  Uiso   1.00
C337   C     0.98964   0.79144   0.07434   0.00000  Uiso   1.00
C338   C     0.92314   0.81065   0.00018   0.00000  Uiso   1.00
C339   C     0.87188   0.79808   0.99229   0.00000  Uiso   1.00
C340   C     0.10041   0.88002   0.16467   0.00000  Uiso   1.00
C341   C     0.12705   0.97368   0.16647   0.00000  Uiso   1.00
C342   C     0.16905   0.03569   0.23462   0.00000  Uiso   1.00
C343   C     0.08880   0.69112   0.13020   0.00000  Uiso   1.00
C344   C     0.10569   0.62598   0.10302   0.00000  Uiso   1.00
C345   C     0.13794   0.52896   0.14217   0.00000  Uiso   1.00
H346   H     0.09215   0.72010   0.26383   0.00000  Uiso   1.00
H347   H     0.96473   0.72446   0.18012   0.00000  Uiso   1.00
H348   H     0.16862   0.88747   0.34638   0.00000  Uiso   1.00
H349   H     0.14726   0.53982   0.28294   0.00000  Uiso   1.00
H350   H     0.81695   0.74287   0.05908   0.00000  Uiso   1.00
H351   H     0.24688   0.08656   0.40966   0.00000  Uiso   1.00
H352   H     0.20184   0.35347   0.27590   0.00000  Uiso   1.00
H353   H     0.04189   0.82429   0.04631   0.00000  Uiso   1.00
H354   H     0.91171   0.83438   0.95065   0.00000  Uiso   1.00
H355   H     0.11560   0.99739   0.11692   0.00000  Uiso   1.00
H356   H     0.09424   0.64974   0.05349   0.00000  Uiso   1.00
H357   H     0.77391   0.83208   0.87284   0.00000  Uiso   1.00
H358   H     0.20384   0.17577   0.22343   0.00000  Uiso   1.00
H359   H     0.15881   0.44268   0.08966   0.00000  Uiso   1.00
O360   O     0.71071   0.79226   0.90696   0.00000  Uiso   1.00
O361   O     0.27476   0.24315   0.36693   0.00000  Uiso   1.00
O362   O     0.21568   0.28136   0.19143   0.00000  Uiso   1.00
N363   N     0.82469   0.76246   0.02837   0.00000  Uiso   1.00
N364   N     0.22663   0.08380   0.35614   0.00000  Uiso   1.00
N365   N     0.18455   0.39843   0.23110   0.00000  Uiso   1.00
N366   N     0.80153   0.81046   0.92816   0.00000  Uiso   1.00
N367   N     0.20347   0.13180   0.25593   0.00000  Uiso   1.00
N368   N     0.16139   0.44644   0.13089   0.00000  Uiso   1.00
