data_job_05771
_audit_creation_date              2018-12-19
_audit_creation_method            'Materials Studio'
_symmetry_space_group_name_H-M    'P1'
_symmetry_Int_Tables_number       1
_symmetry_cell_setting            triclinic
loop_
_symmetry_equiv_pos_as_xyz
  x,y,z
_cell_length_a                    20.5514
_cell_length_b                    10.7096
_cell_length_c                    26.9120
_cell_angle_alpha                 90.0000
_cell_angle_beta                  90.0000
_cell_angle_gamma                 90.0000
loop_
_atom_site_label
_atom_site_type_symbol
_atom_site_fract_x
_atom_site_fract_y
_atom_site_fract_z
_atom_site_U_iso_or_equiv
_atom_site_adp_type
_atom_site_occupancy
C1     C     0.70655   0.45535   0.11083   0.00000  Uiso   1.00
C2     C     0.66552   0.37556   0.14577   0.00000  Uiso   1.00
C3     C     0.59882   0.35726   0.14232   0.00000  Uiso   1.00
C4     C     0.57032   0.28096   0.17789   0.00000  Uiso   1.00
C5     C     0.50099   0.16562   0.22643   0.00000  Uiso   1.00
C6     C     0.74125   0.55049   0.14362   0.00000  Uiso   1.00
C7     C     0.73823   0.67927   0.13836   0.00000  Uiso   1.00
C8     C     0.77349   0.75022   0.17212   0.00000  Uiso   1.00
C9     C     0.82177   0.90646   0.21730   0.00000  Uiso   1.00
C10    C     0.75946   0.36945   0.09060   0.00000  Uiso   1.00
C11    C     0.77177   0.34603   0.04076   0.00000  Uiso   1.00
C12    C     0.82236   0.26458   0.02988   0.00000  Uiso   1.00
C13    C     0.89892   0.13972   0.99274   0.00000  Uiso   1.00
C14    C     0.77453   0.35236   0.18014   0.00000  Uiso   1.00
C15    C     0.70245   0.31962   0.18342   0.00000  Uiso   1.00
C16    C     0.67403   0.24332   0.21900   0.00000  Uiso   1.00
C17    C     0.60730   0.22491   0.21561   0.00000  Uiso   1.00
C18    C     0.77817   0.49455   0.18127   0.00000  Uiso   1.00
C19    C     0.81344   0.56533   0.21504   0.00000  Uiso   1.00
C20    C     0.81048   0.69418   0.20984   0.00000  Uiso   1.00
C21    C     0.79638   0.31350   0.12825   0.00000  Uiso   1.00
C22    C     0.84697   0.23208   0.11745   0.00000  Uiso   1.00
C23    C     0.85935   0.20854   0.06760   0.00000  Uiso   1.00
H24    H     0.67781   0.49891   0.08152   0.00000  Uiso   1.00
H25    H     0.57026   0.40058   0.11318   0.00000  Uiso   1.00
H26    H     0.70966   0.72254   0.10922   0.00000  Uiso   1.00
H27    H     0.74318   0.38934   0.01164   0.00000  Uiso   1.00
H28    H     0.46732   0.26693   0.16490   0.00000  Uiso   1.00
H29    H     0.76126   0.94579   0.15653   0.00000  Uiso   1.00
H30    H     0.83195   0.24318   0.95076   0.00000  Uiso   1.00
H31    H     0.80328   0.30881   0.20945   0.00000  Uiso   1.00
H32    H     0.70262   0.20004   0.24813   0.00000  Uiso   1.00
H33    H     0.84201   0.52200   0.24417   0.00000  Uiso   1.00
H34    H     0.87554   0.18881   0.14659   0.00000  Uiso   1.00
H35    H     0.57474   0.10417   0.27443   0.00000  Uiso   1.00
H36    H     0.86868   0.78303   0.26606   0.00000  Uiso   1.00
H37    H     0.93937   0.08042   0.06029   0.00000  Uiso   1.00
O38    O     0.45254   0.11746   0.24281   0.00000  Uiso   1.00
O39    O     0.83819   0.00809   0.23183   0.00000  Uiso   1.00
O40    O     0.93094   0.08629   0.96186   0.00000  Uiso   1.00
N41    N     0.50641   0.24353   0.18536   0.00000  Uiso   1.00
N42    N     0.78122   0.87822   0.17754   0.00000  Uiso   1.00
N43    N     0.84733   0.22137   0.98516   0.00000  Uiso   1.00
N44    N     0.56422   0.15595   0.24430   0.00000  Uiso   1.00
N45    N     0.83903   0.79064   0.23648   0.00000  Uiso   1.00
N46    N     0.90513   0.13379   0.04410   0.00000  Uiso   1.00
C47    C     0.21091   0.96166   0.07779   0.00000  Uiso   1.00
C48    C     0.17144   0.87620   0.11164   0.00000  Uiso   1.00
C49    C     0.10481   0.85636   0.10881   0.00000  Uiso   1.00
C50    C     0.07785   0.77469   0.14319   0.00000  Uiso   1.00
C51    C     0.01073   0.65112   0.19031   0.00000  Uiso   1.00
C52    C     0.24574   0.05346   0.11197   0.00000  Uiso   1.00
C53    C     0.24159   0.18265   0.10942   0.00000  Uiso   1.00
C54    C     0.27719   0.25019   0.14407   0.00000  Uiso   1.00
C55    C     0.32546   0.40181   0.19168   0.00000  Uiso   1.00
C56    C     0.26393   0.88010   0.05503   0.00000  Uiso   1.00
C57    C     0.27508   0.86355   0.00459   0.00000  Uiso   1.00
C58    C     0.32600   0.78516   0.99130   0.00000  Uiso   1.00
C59    C     0.40250   0.66762   0.95049   0.00000  Uiso   1.00
C60    C     0.28151   0.85190   0.14385   0.00000  Uiso   1.00
C61    C     0.20979   0.81659   0.14752   0.00000  Uiso   1.00
C62    C     0.18292   0.73492   0.18190   0.00000  Uiso   1.00
C63    C     0.11627   0.71496   0.17913   0.00000  Uiso   1.00
C64    C     0.28409   0.99385   0.14785   0.00000  Uiso   1.00
C65    C     0.31970   0.06121   0.18251   0.00000  Uiso   1.00
C66    C     0.31560   0.19047   0.18001   0.00000  Uiso   1.00
C67    C     0.30227   0.82048   0.09091   0.00000  Uiso   1.00
C68    C     0.35319   0.74211   0.07768   0.00000  Uiso   1.00
C69    C     0.36441   0.72544   0.02724   0.00000  Uiso   1.00
H70    H     0.18106   0.00807   0.04985   0.00000  Uiso   1.00
H71    H     0.07515   0.90252   0.08104   0.00000  Uiso   1.00
H72    H     0.21192   0.22875   0.08165   0.00000  Uiso   1.00
H73    H     0.24539   0.90970   0.97684   0.00000  Uiso   1.00
H74    H     0.97465   0.75924   0.13146   0.00000  Uiso   1.00
H75    H     0.26304   0.44712   0.13272   0.00000  Uiso   1.00
H76    H     0.33364   0.77434   0.91171   0.00000  Uiso   1.00
H77    H     0.31137   0.80549   0.17179   0.00000  Uiso   1.00
H78    H     0.21261   0.68881   0.20967   0.00000  Uiso   1.00
H79    H     0.34938   0.01505   0.21027   0.00000  Uiso   1.00
H80    H     0.38285   0.69600   0.10546   0.00000  Uiso   1.00
H81    H     0.08621   0.58578   0.23586   0.00000  Uiso   1.00
H82    H     0.37461   0.27367   0.23711   0.00000  Uiso   1.00
H83    H     0.44520   0.60089   0.01610   0.00000  Uiso   1.00
O84    O     0.96311   0.59944   0.20639   0.00000  Uiso   1.00
O85    O     0.34148   0.50192   0.20803   0.00000  Uiso   1.00
O86    O     0.43410   0.61925   0.91807   0.00000  Uiso   1.00
N87    N     0.01446   0.73441   0.15082   0.00000  Uiso   1.00
N88    N     0.28408   0.37754   0.15201   0.00000  Uiso   1.00
N89    N     0.35009   0.74857   0.94538   0.00000  Uiso   1.00
N90    N     0.07449   0.64107   0.20700   0.00000  Uiso   1.00
N91    N     0.34411   0.28420   0.20818   0.00000  Uiso   1.00
N92    N     0.41013   0.65524   0.00155   0.00000  Uiso   1.00
C93    C     0.79345   0.54465   0.61083   0.00000  Uiso   1.00
C94    C     0.83448   0.62444   0.64577   0.00000  Uiso   1.00
C95    C     0.90118   0.64274   0.64232   0.00000  Uiso   1.00
C96    C     0.92968   0.71904   0.67789   0.00000  Uiso   1.00
C97    C     0.99901   0.83438   0.72643   0.00000  Uiso   1.00
C98    C     0.75875   0.44951   0.64362   0.00000  Uiso   1.00
C99    C     0.76177   0.32073   0.63836   0.00000  Uiso   1.00
C100   C     0.72651   0.24978   0.67212   0.00000  Uiso   1.00
C101   C     0.67823   0.09354   0.71730   0.00000  Uiso   1.00
C102   C     0.74054   0.63055   0.59060   0.00000  Uiso   1.00
C103   C     0.72823   0.65397   0.54076   0.00000  Uiso   1.00
C104   C     0.67764   0.73542   0.52988   0.00000  Uiso   1.00
C105   C     0.60108   0.86028   0.49274   0.00000  Uiso   1.00
C106   C     0.72547   0.64764   0.68014   0.00000  Uiso   1.00
C107   C     0.79755   0.68038   0.68342   0.00000  Uiso   1.00
C108   C     0.82597   0.75668   0.71900   0.00000  Uiso   1.00
C109   C     0.89270   0.77509   0.71561   0.00000  Uiso   1.00
C110   C     0.72183   0.50545   0.68127   0.00000  Uiso   1.00
C111   C     0.68656   0.43467   0.71504   0.00000  Uiso   1.00
C112   C     0.68952   0.30582   0.70984   0.00000  Uiso   1.00
C113   C     0.70362   0.68650   0.62825   0.00000  Uiso   1.00
C114   C     0.65303   0.76792   0.61745   0.00000  Uiso   1.00
C115   C     0.64065   0.79146   0.56760   0.00000  Uiso   1.00
H116   H     0.82219   0.50109   0.58152   0.00000  Uiso   1.00
H117   H     0.92974   0.59942   0.61318   0.00000  Uiso   1.00
H118   H     0.79034   0.27746   0.60922   0.00000  Uiso   1.00
H119   H     0.75682   0.61066   0.51164   0.00000  Uiso   1.00
H120   H     0.03268   0.73307   0.66490   0.00000  Uiso   1.00
H121   H     0.73874   0.05421   0.65653   0.00000  Uiso   1.00
H122   H     0.66805   0.75682   0.45076   0.00000  Uiso   1.00
H123   H     0.69672   0.69119   0.70945   0.00000  Uiso   1.00
H124   H     0.79738   0.79996   0.74813   0.00000  Uiso   1.00
H125   H     0.65799   0.47800   0.74417   0.00000  Uiso   1.00
H126   H     0.62446   0.81119   0.64659   0.00000  Uiso   1.00
H127   H     0.92526   0.89583   0.77443   0.00000  Uiso   1.00
H128   H     0.63132   0.21697   0.76606   0.00000  Uiso   1.00
H129   H     0.56063   0.91958   0.56029   0.00000  Uiso   1.00
O130   O     0.04746   0.88254   0.74281   0.00000  Uiso   1.00
O131   O     0.66181   0.99191   0.73183   0.00000  Uiso   1.00
O132   O     0.56906   0.91371   0.46186   0.00000  Uiso   1.00
N133   N     0.99359   0.75647   0.68536   0.00000  Uiso   1.00
N134   N     0.71878   0.12178   0.67754   0.00000  Uiso   1.00
N135   N     0.65267   0.77863   0.48516   0.00000  Uiso   1.00
N136   N     0.93578   0.84405   0.74430   0.00000  Uiso   1.00
N137   N     0.66097   0.20936   0.73648   0.00000  Uiso   1.00
N138   N     0.59487   0.86621   0.54410   0.00000  Uiso   1.00
C139   C     0.28909   0.03834   0.57779   0.00000  Uiso   1.00
C140   C     0.32856   0.12380   0.61164   0.00000  Uiso   1.00
C141   C     0.39519   0.14364   0.60881   0.00000  Uiso   1.00
C142   C     0.42215   0.22531   0.64319   0.00000  Uiso   1.00
C143   C     0.48927   0.34888   0.69031   0.00000  Uiso   1.00
C144   C     0.25426   0.94654   0.61197   0.00000  Uiso   1.00
C145   C     0.25841   0.81735   0.60942   0.00000  Uiso   1.00
C146   C     0.22281   0.74981   0.64407   0.00000  Uiso   1.00
C147   C     0.17454   0.59819   0.69168   0.00000  Uiso   1.00
C148   C     0.23607   0.11990   0.55503   0.00000  Uiso   1.00
C149   C     0.22492   0.13645   0.50459   0.00000  Uiso   1.00
C150   C     0.17400   0.21484   0.49130   0.00000  Uiso   1.00
C151   C     0.09750   0.33238   0.45049   0.00000  Uiso   1.00
C152   C     0.21849   0.14810   0.64385   0.00000  Uiso   1.00
C153   C     0.29021   0.18341   0.64752   0.00000  Uiso   1.00
C154   C     0.31708   0.26508   0.68190   0.00000  Uiso   1.00
C155   C     0.38373   0.28504   0.67913   0.00000  Uiso   1.00
C156   C     0.21591   0.00615   0.64785   0.00000  Uiso   1.00
C157   C     0.18030   0.93879   0.68251   0.00000  Uiso   1.00
C158   C     0.18440   0.80953   0.68001   0.00000  Uiso   1.00
C159   C     0.19773   0.17952   0.59091   0.00000  Uiso   1.00
C160   C     0.14681   0.25789   0.57768   0.00000  Uiso   1.00
C161   C     0.13559   0.27456   0.52724   0.00000  Uiso   1.00
H162   H     0.31894   0.99193   0.54985   0.00000  Uiso   1.00
H163   H     0.42485   0.09748   0.58104   0.00000  Uiso   1.00
H164   H     0.28808   0.77125   0.58165   0.00000  Uiso   1.00
H165   H     0.25461   0.09030   0.47684   0.00000  Uiso   1.00
H166   H     0.52535   0.24076   0.63146   0.00000  Uiso   1.00
H167   H     0.23696   0.55288   0.63272   0.00000  Uiso   1.00
H168   H     0.16636   0.22566   0.41171   0.00000  Uiso   1.00
H169   H     0.18863   0.19451   0.67179   0.00000  Uiso   1.00
H170   H     0.28739   0.31119   0.70967   0.00000  Uiso   1.00
H171   H     0.15062   0.98495   0.71027   0.00000  Uiso   1.00
H172   H     0.11715   0.30400   0.60546   0.00000  Uiso   1.00
H173   H     0.41379   0.41422   0.73586   0.00000  Uiso   1.00
H174   H     0.12539   0.72633   0.73711   0.00000  Uiso   1.00
H175   H     0.05480   0.39911   0.51610   0.00000  Uiso   1.00
O176   O     0.53689   0.40056   0.70639   0.00000  Uiso   1.00
O177   O     0.15852   0.49808   0.70803   0.00000  Uiso   1.00
O178   O     0.06590   0.38075   0.41807   0.00000  Uiso   1.00
N179   N     0.48554   0.26559   0.65082   0.00000  Uiso   1.00
N180   N     0.21592   0.62246   0.65201   0.00000  Uiso   1.00
N181   N     0.14991   0.25143   0.44538   0.00000  Uiso   1.00
N182   N     0.42551   0.35893   0.70700   0.00000  Uiso   1.00
N183   N     0.15589   0.71580   0.70818   0.00000  Uiso   1.00
N184   N     0.08987   0.34476   0.50155   0.00000  Uiso   1.00
C185   C     0.29345   0.95535   0.38917   0.00000  Uiso   1.00
C186   C     0.33448   0.87556   0.35423   0.00000  Uiso   1.00
C187   C     0.40118   0.85726   0.35768   0.00000  Uiso   1.00
C188   C     0.42968   0.78096   0.32211   0.00000  Uiso   1.00
C189   C     0.49901   0.66562   0.27357   0.00000  Uiso   1.00
C190   C     0.25875   0.05049   0.35638   0.00000  Uiso   1.00
C191   C     0.26177   0.17927   0.36164   0.00000  Uiso   1.00
C192   C     0.22651   0.25022   0.32788   0.00000  Uiso   1.00
C193   C     0.17823   0.40646   0.28270   0.00000  Uiso   1.00
C194   C     0.24054   0.86945   0.40940   0.00000  Uiso   1.00
C195   C     0.22823   0.84603   0.45924   0.00000  Uiso   1.00
C196   C     0.17764   0.76458   0.47012   0.00000  Uiso   1.00
C197   C     0.10108   0.63972   0.50726   0.00000  Uiso   1.00
C198   C     0.22547   0.85236   0.31986   0.00000  Uiso   1.00
C199   C     0.29755   0.81962   0.31658   0.00000  Uiso   1.00
C200   C     0.32597   0.74332   0.28100   0.00000  Uiso   1.00
C201   C     0.39270   0.72491   0.28439   0.00000  Uiso   1.00
C202   C     0.22183   0.99455   0.31873   0.00000  Uiso   1.00
C203   C     0.18656   0.06533   0.28496   0.00000  Uiso   1.00
C204   C     0.18952   0.19418   0.29016   0.00000  Uiso   1.00
C205   C     0.20362   0.81350   0.37175   0.00000  Uiso   1.00
C206   C     0.15303   0.73208   0.38255   0.00000  Uiso   1.00
C207   C     0.14065   0.70854   0.43240   0.00000  Uiso   1.00
H208   H     0.32219   0.99891   0.41848   0.00000  Uiso   1.00
H209   H     0.42974   0.90058   0.38682   0.00000  Uiso   1.00
H210   H     0.29034   0.22254   0.39078   0.00000  Uiso   1.00
H211   H     0.25682   0.88934   0.48836   0.00000  Uiso   1.00
H212   H     0.53268   0.76693   0.33510   0.00000  Uiso   1.00
H213   H     0.23874   0.44579   0.34347   0.00000  Uiso   1.00
H214   H     0.16805   0.74318   0.54924   0.00000  Uiso   1.00
H215   H     0.19672   0.80881   0.29055   0.00000  Uiso   1.00
H216   H     0.29738   0.70004   0.25187   0.00000  Uiso   1.00
H217   H     0.15799   0.02200   0.25583   0.00000  Uiso   1.00
H218   H     0.12446   0.68881   0.35341   0.00000  Uiso   1.00
H219   H     0.42526   0.60417   0.22557   0.00000  Uiso   1.00
H220   H     0.13132   0.28303   0.23394   0.00000  Uiso   1.00
H221   H     0.06063   0.58042   0.43971   0.00000  Uiso   1.00
O222   O     0.54746   0.61746   0.25719   0.00000  Uiso   1.00
O223   O     0.16181   0.50809   0.26817   0.00000  Uiso   1.00
O224   O     0.06906   0.58629   0.53814   0.00000  Uiso   1.00
N225   N     0.49359   0.74353   0.31464   0.00000  Uiso   1.00
N226   N     0.21878   0.37822   0.32246   0.00000  Uiso   1.00
N227   N     0.15267   0.72137   0.51484   0.00000  Uiso   1.00
N228   N     0.43578   0.65595   0.25570   0.00000  Uiso   1.00
N229   N     0.16097   0.29064   0.26352   0.00000  Uiso   1.00
N230   N     0.09487   0.63379   0.45590   0.00000  Uiso   1.00
C231   C     0.78909   0.46166   0.42221   0.00000  Uiso   1.00
C232   C     0.82856   0.37620   0.38836   0.00000  Uiso   1.00
C233   C     0.89519   0.35636   0.39119   0.00000  Uiso   1.00
C234   C     0.92215   0.27469   0.35681   0.00000  Uiso   1.00
C235   C     0.98927   0.15112   0.30969   0.00000  Uiso   1.00
C236   C     0.75426   0.55346   0.38803   0.00000  Uiso   1.00
C237   C     0.75841   0.68265   0.39058   0.00000  Uiso   1.00
C238   C     0.72281   0.75019   0.35593   0.00000  Uiso   1.00
C239   C     0.67454   0.90181   0.30832   0.00000  Uiso   1.00
C240   C     0.73607   0.38010   0.44497   0.00000  Uiso   1.00
C241   C     0.72492   0.36355   0.49541   0.00000  Uiso   1.00
C242   C     0.67400   0.28516   0.50870   0.00000  Uiso   1.00
C243   C     0.59750   0.16762   0.54951   0.00000  Uiso   1.00
C244   C     0.71849   0.35190   0.35615   0.00000  Uiso   1.00
C245   C     0.79021   0.31659   0.35248   0.00000  Uiso   1.00
C246   C     0.81708   0.23492   0.31810   0.00000  Uiso   1.00
C247   C     0.88373   0.21496   0.32087   0.00000  Uiso   1.00
C248   C     0.71591   0.49385   0.35215   0.00000  Uiso   1.00
C249   C     0.68030   0.56121   0.31749   0.00000  Uiso   1.00
C250   C     0.68440   0.69047   0.31999   0.00000  Uiso   1.00
C251   C     0.69773   0.32048   0.40909   0.00000  Uiso   1.00
C252   C     0.64681   0.24211   0.42232   0.00000  Uiso   1.00
C253   C     0.63559   0.22544   0.47276   0.00000  Uiso   1.00
H254   H     0.81894   0.50807   0.45015   0.00000  Uiso   1.00
H255   H     0.92485   0.40252   0.41896   0.00000  Uiso   1.00
H256   H     0.78808   0.72875   0.41835   0.00000  Uiso   1.00
H257   H     0.75461   0.40970   0.52316   0.00000  Uiso   1.00
H258   H     0.02535   0.25924   0.36854   0.00000  Uiso   1.00
H259   H     0.73696   0.94712   0.36728   0.00000  Uiso   1.00
H260   H     0.66636   0.27434   0.58829   0.00000  Uiso   1.00
H261   H     0.68863   0.30549   0.32821   0.00000  Uiso   1.00
H262   H     0.78739   0.18881   0.29033   0.00000  Uiso   1.00
H263   H     0.65062   0.51505   0.28973   0.00000  Uiso   1.00
H264   H     0.61715   0.19600   0.39454   0.00000  Uiso   1.00
H265   H     0.91379   0.08578   0.26414   0.00000  Uiso   1.00
H266   H     0.62539   0.77367   0.26289   0.00000  Uiso   1.00
H267   H     0.55480   0.10089   0.48390   0.00000  Uiso   1.00
O268   O     0.03689   0.09944   0.29361   0.00000  Uiso   1.00
O269   O     0.65852   0.00192   0.29197   0.00000  Uiso   1.00
O270   O     0.56590   0.11925   0.58193   0.00000  Uiso   1.00
N271   N     0.98554   0.23441   0.34918   0.00000  Uiso   1.00
N272   N     0.71592   0.87754   0.34799   0.00000  Uiso   1.00
N273   N     0.64991   0.24857   0.55462   0.00000  Uiso   1.00
N274   N     0.92551   0.14107   0.29300   0.00000  Uiso   1.00
N275   N     0.65589   0.78420   0.29182   0.00000  Uiso   1.00
N276   N     0.58987   0.15524   0.49845   0.00000  Uiso   1.00
C277   C     0.20655   0.04465   0.88917   0.00000  Uiso   1.00
C278   C     0.16552   0.12444   0.85423   0.00000  Uiso   1.00
C279   C     0.09882   0.14274   0.85768   0.00000  Uiso   1.00
C280   C     0.07032   0.21904   0.82211   0.00000  Uiso   1.00
C281   C     0.00099   0.33438   0.77357   0.00000  Uiso   1.00
C282   C     0.24125   0.94951   0.85638   0.00000  Uiso   1.00
C283   C     0.23823   0.82073   0.86164   0.00000  Uiso   1.00
C284   C     0.27349   0.74978   0.82788   0.00000  Uiso   1.00
C285   C     0.32177   0.59354   0.78270   0.00000  Uiso   1.00
C286   C     0.25946   0.13055   0.90940   0.00000  Uiso   1.00
C287   C     0.27177   0.15397   0.95924   0.00000  Uiso   1.00
C288   C     0.32236   0.23542   0.97012   0.00000  Uiso   1.00
C289   C     0.39892   0.36028   0.00726   0.00000  Uiso   1.00
C290   C     0.27453   0.14764   0.81986   0.00000  Uiso   1.00
C291   C     0.20245   0.18038   0.81658   0.00000  Uiso   1.00
C292   C     0.17403   0.25668   0.78100   0.00000  Uiso   1.00
C293   C     0.10730   0.27509   0.78439   0.00000  Uiso   1.00
C294   C     0.27817   0.00545   0.81873   0.00000  Uiso   1.00
C295   C     0.31344   0.93467   0.78496   0.00000  Uiso   1.00
C296   C     0.31048   0.80582   0.79016   0.00000  Uiso   1.00
C297   C     0.29638   0.18650   0.87175   0.00000  Uiso   1.00
C298   C     0.34697   0.26792   0.88255   0.00000  Uiso   1.00
C299   C     0.35935   0.29146   0.93240   0.00000  Uiso   1.00
H300   H     0.17781   0.00109   0.91848   0.00000  Uiso   1.00
H301   H     0.07026   0.09942   0.88682   0.00000  Uiso   1.00
H302   H     0.20966   0.77746   0.89078   0.00000  Uiso   1.00
H303   H     0.24318   0.11066   0.98836   0.00000  Uiso   1.00
H304   H     0.96732   0.23307   0.83510   0.00000  Uiso   1.00
H305   H     0.26126   0.55421   0.84347   0.00000  Uiso   1.00
H306   H     0.33195   0.25682   0.04924   0.00000  Uiso   1.00
H307   H     0.30328   0.19119   0.79055   0.00000  Uiso   1.00
H308   H     0.20262   0.29996   0.75187   0.00000  Uiso   1.00
H309   H     0.34201   0.97800   0.75583   0.00000  Uiso   1.00
H310   H     0.37554   0.31119   0.85341   0.00000  Uiso   1.00
H311   H     0.07474   0.39583   0.72557   0.00000  Uiso   1.00
H312   H     0.36868   0.71697   0.73394   0.00000  Uiso   1.00
H313   H     0.43937   0.41958   0.93971   0.00000  Uiso   1.00
O314   O     0.95254   0.38254   0.75719   0.00000  Uiso   1.00
O315   O     0.33819   0.49191   0.76817   0.00000  Uiso   1.00
O316   O     0.43094   0.41371   0.03814   0.00000  Uiso   1.00
N317   N     0.00641   0.25647   0.81464   0.00000  Uiso   1.00
N318   N     0.28122   0.62178   0.82246   0.00000  Uiso   1.00
N319   N     0.34733   0.27863   0.01484   0.00000  Uiso   1.00
N320   N     0.06422   0.34405   0.75570   0.00000  Uiso   1.00
N321   N     0.33903   0.70936   0.76352   0.00000  Uiso   1.00
N322   N     0.40513   0.36621   0.95590   0.00000  Uiso   1.00
C323   C     0.71091   0.53834   0.92221   0.00000  Uiso   1.00
C324   C     0.67144   0.62380   0.88836   0.00000  Uiso   1.00
C325   C     0.60481   0.64364   0.89119   0.00000  Uiso   1.00
C326   C     0.57785   0.72531   0.85681   0.00000  Uiso   1.00
C327   C     0.51073   0.84888   0.80969   0.00000  Uiso   1.00
C328   C     0.74574   0.44654   0.88803   0.00000  Uiso   1.00
C329   C     0.74159   0.31735   0.89058   0.00000  Uiso   1.00
C330   C     0.77719   0.24981   0.85593   0.00000  Uiso   1.00
C331   C     0.82546   0.09819   0.80832   0.00000  Uiso   1.00
C332   C     0.76393   0.61990   0.94497   0.00000  Uiso   1.00
C333   C     0.77508   0.63645   0.99541   0.00000  Uiso   1.00
C334   C     0.82600   0.71484   0.00870   0.00000  Uiso   1.00
C335   C     0.90250   0.83238   0.04951   0.00000  Uiso   1.00
C336   C     0.78151   0.64810   0.85615   0.00000  Uiso   1.00
C337   C     0.70979   0.68341   0.85248   0.00000  Uiso   1.00
C338   C     0.68292   0.76508   0.81810   0.00000  Uiso   1.00
C339   C     0.61627   0.78504   0.82087   0.00000  Uiso   1.00
C340   C     0.78409   0.50615   0.85215   0.00000  Uiso   1.00
C341   C     0.81970   0.43879   0.81749   0.00000  Uiso   1.00
C342   C     0.81560   0.30953   0.81999   0.00000  Uiso   1.00
C343   C     0.80227   0.67952   0.90909   0.00000  Uiso   1.00
C344   C     0.85319   0.75789   0.92232   0.00000  Uiso   1.00
C345   C     0.86441   0.77456   0.97276   0.00000  Uiso   1.00
H346   H     0.68106   0.49193   0.95015   0.00000  Uiso   1.00
H347   H     0.57515   0.59748   0.91896   0.00000  Uiso   1.00
H348   H     0.71192   0.27125   0.91835   0.00000  Uiso   1.00
H349   H     0.74539   0.59030   0.02316   0.00000  Uiso   1.00
H350   H     0.47465   0.74076   0.86854   0.00000  Uiso   1.00
H351   H     0.76304   0.05288   0.86728   0.00000  Uiso   1.00
H352   H     0.83364   0.72566   0.08829   0.00000  Uiso   1.00
H353   H     0.81137   0.69451   0.82821   0.00000  Uiso   1.00
H354   H     0.71261   0.81119   0.79033   0.00000  Uiso   1.00
H355   H     0.84938   0.48495   0.78973   0.00000  Uiso   1.00
H356   H     0.88285   0.80400   0.89454   0.00000  Uiso   1.00
H357   H     0.58621   0.91422   0.76414   0.00000  Uiso   1.00
H358   H     0.87461   0.22633   0.76289   0.00000  Uiso   1.00
H359   H     0.94520   0.89911   0.98390   0.00000  Uiso   1.00
O360   O     0.46311   0.90056   0.79361   0.00000  Uiso   1.00
O361   O     0.84148   0.99808   0.79197   0.00000  Uiso   1.00
O362   O     0.93410   0.88075   0.08193   0.00000  Uiso   1.00
N363   N     0.51446   0.76559   0.84918   0.00000  Uiso   1.00
N364   N     0.78408   0.12246   0.84799   0.00000  Uiso   1.00
N365   N     0.85009   0.75143   0.05462   0.00000  Uiso   1.00
N366   N     0.57449   0.85893   0.79300   0.00000  Uiso   1.00
N367   N     0.84411   0.21580   0.79182   0.00000  Uiso   1.00
N368   N     0.91013   0.84476   0.99845   0.00000  Uiso   1.00
