data_job_06716
_audit_creation_date              2018-12-19
_audit_creation_method            'Materials Studio'
_symmetry_space_group_name_H-M    'P1'
_symmetry_Int_Tables_number       1
_symmetry_cell_setting            triclinic
loop_
_symmetry_equiv_pos_as_xyz
  x,y,z
_cell_length_a                    20.4826
_cell_length_b                    22.1316
_cell_length_c                    23.0673
_cell_angle_alpha                 90.1113
_cell_angle_beta                  90.7688
_cell_angle_gamma                 64.5105
loop_
_atom_site_label
_atom_site_type_symbol
_atom_site_fract_x
_atom_site_fract_y
_atom_site_fract_z
_atom_site_U_iso_or_equiv
_atom_site_adp_type
_atom_site_occupancy
C1     C     0.94091   0.20607   0.60932   0.00000  Uiso   1.00
C2     C     0.96690   0.14961   0.65401   0.00000  Uiso   1.00
C3     C     0.03778   0.11388   0.67324   0.00000  Uiso   1.00
C4     C     0.05047   0.06414   0.71430   0.00000  Uiso   1.00
C5     C     0.09939   0.97849   0.78048   0.00000  Uiso   1.00
C6     C     0.90259   0.18523   0.56163   0.00000  Uiso   1.00
C7     C     0.91939   0.17946   0.50319   0.00000  Uiso   1.00
C8     C     0.87794   0.15971   0.46647   0.00000  Uiso   1.00
C9     C     0.82697   0.12942   0.38922   0.00000  Uiso   1.00
C10    C     0.88231   0.26637   0.63884   0.00000  Uiso   1.00
C11    C     0.88205   0.32883   0.64531   0.00000  Uiso   1.00
C12    C     0.82351   0.37740   0.67360   0.00000  Uiso   1.00
C13    C     0.74106   0.47309   0.71623   0.00000  Uiso   1.00
C14    C     0.83740   0.18127   0.64803   0.00000  Uiso   1.00
C15    C     0.91068   0.13614   0.67504   0.00000  Uiso   1.00
C16    C     0.92326   0.08644   0.71608   0.00000  Uiso   1.00
C17    C     0.99415   0.05064   0.73537   0.00000  Uiso   1.00
C18    C     0.84637   0.17176   0.58265   0.00000  Uiso   1.00
C19    C     0.80488   0.15202   0.54602   0.00000  Uiso   1.00
C20    C     0.82162   0.14622   0.48754   0.00000  Uiso   1.00
C21    C     0.82609   0.25290   0.65987   0.00000  Uiso   1.00
C22    C     0.76754   0.30139   0.68815   0.00000  Uiso   1.00
C23    C     0.76719   0.36391   0.69466   0.00000  Uiso   1.00
H24    H     0.98468   0.21656   0.59294   0.00000  Uiso   1.00
H25    H     0.08127   0.12431   0.65695   0.00000  Uiso   1.00
H26    H     0.96290   0.18989   0.48692   0.00000  Uiso   1.00
H27    H     0.92556   0.33924   0.62903   0.00000  Uiso   1.00
H28    H     0.16358   0.01609   0.73718   0.00000  Uiso   1.00
H29    H     0.91396   0.15439   0.37866   0.00000  Uiso   1.00
H30    H     0.83524   0.46931   0.67832   0.00000  Uiso   1.00
H31    H     0.79363   0.17079   0.66441   0.00000  Uiso   1.00
H32    H     0.87975   0.07603   0.73234   0.00000  Uiso   1.00
H33    H     0.76137   0.14161   0.56231   0.00000  Uiso   1.00
H34    H     0.72404   0.29095   0.70442   0.00000  Uiso   1.00
H35    H     0.00002   0.97689   0.79837   0.00000  Uiso   1.00
H36    H     0.75040   0.11520   0.43984   0.00000  Uiso   1.00
H37    H     0.67167   0.43012   0.73950   0.00000  Uiso   1.00
O38    O     0.14190   0.93497   0.81116   0.00000  Uiso   1.00
O39    O     0.81440   0.11643   0.34079   0.00000  Uiso   1.00
O40    O     0.71112   0.52959   0.73394   0.00000  Uiso   1.00
N41    N     0.11327   0.01988   0.74227   0.00000  Uiso   1.00
N42    N     0.87990   0.14917   0.40707   0.00000  Uiso   1.00
N43    N     0.80628   0.44360   0.68721   0.00000  Uiso   1.00
N44    N     0.02525   0.99879   0.77519   0.00000  Uiso   1.00
N45    N     0.79188   0.12808   0.44000   0.00000  Uiso   1.00
N46    N     0.71827   0.42251   0.72014   0.00000  Uiso   1.00
C47    C     0.61920   0.71292   0.39577   0.00000  Uiso   1.00
C48    C     0.57307   0.78648   0.40948   0.00000  Uiso   1.00
C49    C     0.57994   0.84045   0.38457   0.00000  Uiso   1.00
C50    C     0.53256   0.90386   0.40296   0.00000  Uiso   1.00
C51    C     0.46892   0.01670   0.41792   0.00000  Uiso   1.00
C52    C     0.65206   0.67929   0.45344   0.00000  Uiso   1.00
C53    C     0.72533   0.64312   0.46548   0.00000  Uiso   1.00
C54    C     0.74443   0.61629   0.52087   0.00000  Uiso   1.00
C55    C     0.80341   0.56268   0.60406   0.00000  Uiso   1.00
C56    C     0.56645   0.68439   0.37711   0.00000  Uiso   1.00
C57    C     0.56775   0.65249   0.32499   0.00000  Uiso   1.00
C58    C     0.51478   0.62994   0.31612   0.00000  Uiso   1.00
C59    C     0.44084   0.58424   0.28080   0.00000  Uiso   1.00
C60    C     0.52284   0.72956   0.47271   0.00000  Uiso   1.00
C61    C     0.52074   0.79552   0.45128   0.00000  Uiso   1.00
C62    C     0.47333   0.85886   0.46970   0.00000  Uiso   1.00
C63    C     0.48012   0.91291   0.44483   0.00000  Uiso   1.00
C64    C     0.59972   0.68833   0.49523   0.00000  Uiso   1.00
C65    C     0.61872   0.66153   0.55061   0.00000  Uiso   1.00
C66    C     0.69200   0.62534   0.56274   0.00000  Uiso   1.00
C67    C     0.51410   0.69343   0.41890   0.00000  Uiso   1.00
C68    C     0.46113   0.67091   0.41012   0.00000  Uiso   1.00
C69    C     0.46235   0.63899   0.35799   0.00000  Uiso   1.00
H70    H     0.65996   0.70588   0.36323   0.00000  Uiso   1.00
H71    H     0.62046   0.83343   0.35223   0.00000  Uiso   1.00
H72    H     0.76582   0.63613   0.43313   0.00000  Uiso   1.00
H73    H     0.60826   0.64551   0.29266   0.00000  Uiso   1.00
H74    H     0.55360   0.97883   0.35849   0.00000  Uiso   1.00
H75    H     0.86011   0.56280   0.52906   0.00000  Uiso   1.00
H76    H     0.52786   0.58256   0.23284   0.00000  Uiso   1.00
H77    H     0.48209   0.73659   0.50525   0.00000  Uiso   1.00
H78    H     0.43283   0.86584   0.50205   0.00000  Uiso   1.00
H79    H     0.57820   0.66854   0.58294   0.00000  Uiso   1.00
H80    H     0.42064   0.67791   0.44247   0.00000  Uiso   1.00
H81    H     0.40132   0.00513   0.48009   0.00000  Uiso   1.00
H82    H     0.70783   0.58909   0.65065   0.00000  Uiso   1.00
H83    H     0.37558   0.60886   0.35443   0.00000  Uiso   1.00
O84    O     0.44828   0.07645   0.41463   0.00000  Uiso   1.00
O85    O     0.85041   0.53061   0.63841   0.00000  Uiso   1.00
O86    O     0.41450   0.55655   0.24977   0.00000  Uiso   1.00
N87    N     0.52451   0.96729   0.38754   0.00000  Uiso   1.00
N88    N     0.81108   0.57833   0.54701   0.00000  Uiso   1.00
N89    N     0.50047   0.59679   0.27008   0.00000  Uiso   1.00
N90    N     0.44257   0.98144   0.45297   0.00000  Uiso   1.00
N91    N     0.72914   0.59248   0.61244   0.00000  Uiso   1.00
N92    N     0.41853   0.61094   0.33551   0.00000  Uiso   1.00
C93    C     0.66343   0.17258   0.17089   0.00000  Uiso   1.00
C94    C     0.62750   0.15381   0.12010   0.00000  Uiso   1.00
C95    C     0.66296   0.11476   0.07312   0.00000  Uiso   1.00
C96    C     0.62039   0.10332   0.03116   0.00000  Uiso   1.00
C97    C     0.57604   0.07013   0.95153   0.00000  Uiso   1.00
C98    C     0.62780   0.24885   0.17336   0.00000  Uiso   1.00
C99    C     0.66352   0.28971   0.17118   0.00000  Uiso   1.00
C100   C     0.62121   0.35828   0.17406   0.00000  Uiso   1.00
C101   C     0.57734   0.47265   0.17717   0.00000  Uiso   1.00
C102   C     0.63999   0.14877   0.22538   0.00000  Uiso   1.00
C103   C     0.68595   0.10549   0.26695   0.00000  Uiso   1.00
C104   C     0.65389   0.08981   0.31363   0.00000  Uiso   1.00
C105   C     0.62894   0.04878   0.39751   0.00000  Uiso   1.00
C106   C     0.52479   0.22171   0.17991   0.00000  Uiso   1.00
C107   C     0.55219   0.18049   0.12500   0.00000  Uiso   1.00
C108   C     0.50956   0.16910   0.08309   0.00000  Uiso   1.00
C109   C     0.54495   0.13004   0.03606   0.00000  Uiso   1.00
C110   C     0.55250   0.27553   0.17826   0.00000  Uiso   1.00
C111   C     0.51012   0.34406   0.18115   0.00000  Uiso   1.00
C112   C     0.54577   0.38502   0.17896   0.00000  Uiso   1.00
C113   C     0.56468   0.17545   0.23028   0.00000  Uiso   1.00
C114   C     0.53255   0.15984   0.27692   0.00000  Uiso   1.00
C115   C     0.57845   0.11654   0.31854   0.00000  Uiso   1.00
H116   H     0.72206   0.15182   0.16708   0.00000  Uiso   1.00
H117   H     0.72124   0.09412   0.06935   0.00000  Uiso   1.00
H118   H     0.72180   0.26905   0.16739   0.00000  Uiso   1.00
H119   H     0.74422   0.08485   0.26314   0.00000  Uiso   1.00
H120   H     0.68710   0.04194   0.96314   0.00000  Uiso   1.00
H121   H     0.68829   0.41079   0.16989   0.00000  Uiso   1.00
H122   H     0.73558   0.02237   0.37181   0.00000  Uiso   1.00
H123   H     0.46616   0.24248   0.18372   0.00000  Uiso   1.00
H124   H     0.45128   0.18976   0.08690   0.00000  Uiso   1.00
H125   H     0.45185   0.36469   0.18494   0.00000  Uiso   1.00
H126   H     0.47427   0.18049   0.28069   0.00000  Uiso   1.00
H127   H     0.46800   0.11957   0.97738   0.00000  Uiso   1.00
H128   H     0.46919   0.48842   0.18414   0.00000  Uiso   1.00
H129   H     0.51647   0.10000   0.38605   0.00000  Uiso   1.00
O130   O     0.57239   0.04446   0.90626   0.00000  Uiso   1.00
O131   O     0.57395   0.52836   0.17752   0.00000  Uiso   1.00
O132   O     0.63598   0.01877   0.44242   0.00000  Uiso   1.00
N133   N     0.63758   0.06744   0.97978   0.00000  Uiso   1.00
N134   N     0.63869   0.41229   0.17308   0.00000  Uiso   1.00
N135   N     0.68290   0.04916   0.36186   0.00000  Uiso   1.00
N136   N     0.51968   0.10921   0.98745   0.00000  Uiso   1.00
N137   N     0.52080   0.45406   0.18074   0.00000  Uiso   1.00
N138   N     0.56500   0.09093   0.36952   0.00000  Uiso   1.00
C139   C     0.29754   0.76127   0.05474   0.00000  Uiso   1.00
C140   C     0.30519   0.79762   0.10878   0.00000  Uiso   1.00
C141   C     0.35888   0.81894   0.11893   0.00000  Uiso   1.00
C142   C     0.35645   0.85128   0.17105   0.00000  Uiso   1.00
C143   C     0.37656   0.90613   0.24880   0.00000  Uiso   1.00
C144   C     0.22178   0.80337   0.03040   0.00000  Uiso   1.00
C145   C     0.20534   0.82952   0.97464   0.00000  Uiso   1.00
C146   C     0.13270   0.86669   0.96076   0.00000  Uiso   1.00
C147   C     0.02330   0.93044   0.91681   0.00000  Uiso   1.00
C148   C     0.29726   0.69622   0.07608   0.00000  Uiso   1.00
C149   C     0.34428   0.63226   0.05872   0.00000  Uiso   1.00
C150   C     0.33518   0.57922   0.08329   0.00000  Uiso   1.00
C151   C     0.34298   0.47659   0.11027   0.00000  Uiso   1.00
C152   C     0.19776   0.78080   0.12924   0.00000  Uiso   1.00
C153   C     0.25100   0.80823   0.14925   0.00000  Uiso   1.00
C154   C     0.24849   0.84054   0.20136   0.00000  Uiso   1.00
C155   C     0.30217   0.86190   0.21159   0.00000  Uiso   1.00
C156   C     0.16759   0.81398   0.07086   0.00000  Uiso   1.00
C157   C     0.09495   0.85112   0.05706   0.00000  Uiso   1.00
C158   C     0.07841   0.87732   0.00130   0.00000  Uiso   1.00
C159   C     0.24307   0.70682   0.11655   0.00000  Uiso   1.00
C160   C     0.23389   0.65387   0.14115   0.00000  Uiso   1.00
C161   C     0.28089   0.58985   0.12383   0.00000  Uiso   1.00
H162   H     0.33972   0.75302   0.02323   0.00000  Uiso   1.00
H163   H     0.40080   0.81072   0.08760   0.00000  Uiso   1.00
H164   H     0.24728   0.82129   0.94333   0.00000  Uiso   1.00
H165   H     0.38620   0.62407   0.02740   0.00000  Uiso   1.00
H166   H     0.44461   0.87940   0.17681   0.00000  Uiso   1.00
H167   H     0.12091   0.90167   0.87260   0.00000  Uiso   1.00
H168   H     0.41385   0.48579   0.04987   0.00000  Uiso   1.00
H169   H     0.15557   0.78906   0.16074   0.00000  Uiso   1.00
H170   H     0.20655   0.84874   0.23267   0.00000  Uiso   1.00
H171   H     0.05303   0.85931   0.08839   0.00000  Uiso   1.00
H172   H     0.19195   0.66209   0.17246   0.00000  Uiso   1.00
H173   H     0.28694   0.91026   0.29455   0.00000  Uiso   1.00
H174   H     0.96324   0.93253   0.99033   0.00000  Uiso   1.00
H175   H     0.25618   0.51665   0.16761   0.00000  Uiso   1.00
O176   O     0.40262   0.93347   0.28051   0.00000  Uiso   1.00
O177   O     0.97794   0.96267   0.88138   0.00000  Uiso   1.00
O178   O     0.36227   0.41705   0.11397   0.00000  Uiso   1.00
N179   N     0.40051   0.87846   0.19466   0.00000  Uiso   1.00
N180   N     0.09787   0.89929   0.91024   0.00000  Uiso   1.00
N181   N     0.37173   0.51048   0.07596   0.00000  Uiso   1.00
N182   N     0.31567   0.89507   0.25801   0.00000  Uiso   1.00
N183   N     0.01304   0.91590   0.97359   0.00000  Uiso   1.00
N184   N     0.28690   0.52708   0.13932   0.00000  Uiso   1.00
C185   C     0.35232   0.24779   0.80624   0.00000  Uiso   1.00
C186   C     0.38885   0.17231   0.81629   0.00000  Uiso   1.00
C187   C     0.43658   0.12527   0.77891   0.00000  Uiso   1.00
C188   C     0.46415   0.05865   0.79597   0.00000  Uiso   1.00
C189   C     0.52387   0.94431   0.80359   0.00000  Uiso   1.00
C190   C     0.37229   0.27878   0.85867   0.00000  Uiso   1.00
C191   C     0.40609   0.32127   0.85693   0.00000  Uiso   1.00
C192   C     0.41971   0.34428   0.90967   0.00000  Uiso   1.00
C193   C     0.45366   0.39528   0.98309   0.00000  Uiso   1.00
C194   C     0.27123   0.26852   0.81006   0.00000  Uiso   1.00
C195   C     0.22004   0.30241   0.76745   0.00000  Uiso   1.00
C196   C     0.14857   0.31679   0.77927   0.00000  Uiso   1.00
C197   C     0.02561   0.35187   0.77722   0.00000  Uiso   1.00
C198   C     0.31642   0.21311   0.90299   0.00000  Uiso   1.00
C199   C     0.36935   0.15347   0.86884   0.00000  Uiso   1.00
C200   C     0.39686   0.08690   0.88596   0.00000  Uiso   1.00
C201   C     0.44462   0.03977   0.84861   0.00000  Uiso   1.00
C202   C     0.35279   0.25994   0.91122   0.00000  Uiso   1.00
C203   C     0.36636   0.28290   0.96398   0.00000  Uiso   1.00
C204   C     0.40017   0.32541   0.96232   0.00000  Uiso   1.00
C205   C     0.25172   0.24969   0.86261   0.00000  Uiso   1.00
C206   C     0.18032   0.26403   0.87450   0.00000  Uiso   1.00
C207   C     0.12903   0.29792   0.83192   0.00000  Uiso   1.00
H208   H     0.36751   0.26246   0.76533   0.00000  Uiso   1.00
H209   H     0.45166   0.13987   0.73825   0.00000  Uiso   1.00
H210   H     0.42116   0.33584   0.81626   0.00000  Uiso   1.00
H211   H     0.23515   0.31698   0.72679   0.00000  Uiso   1.00
H212   H     0.53639   0.99565   0.73141   0.00000  Uiso   1.00
H213   H     0.47206   0.40889   0.89589   0.00000  Uiso   1.00
H214   H     0.07981   0.36911   0.70724   0.00000  Uiso   1.00
H215   H     0.30124   0.19845   0.94391   0.00000  Uiso   1.00
H216   H     0.38176   0.07234   0.92663   0.00000  Uiso   1.00
H217   H     0.35126   0.26831   0.00463   0.00000  Uiso   1.00
H218   H     0.16525   0.24944   0.91517   0.00000  Uiso   1.00
H219   H     0.47965   0.94084   0.88431   0.00000  Uiso   1.00
H220   H     0.41532   0.35408   0.04879   0.00000  Uiso   1.00
H221   H     0.02307   0.31429   0.86014   0.00000  Uiso   1.00
O222   O     0.56220   0.88645   0.79328   0.00000  Uiso   1.00
O223   O     0.47779   0.42860   0.00907   0.00000  Uiso   1.00
O224   O     0.96318   0.37641   0.76157   0.00000  Uiso   1.00
N225   N     0.51197   0.00006   0.76976   0.00000  Uiso   1.00
N226   N     0.45184   0.38640   0.92354   0.00000  Uiso   1.00
N227   N     0.08512   0.34922   0.74718   0.00000  Uiso   1.00
N228   N     0.48144   0.97056   0.85204   0.00000  Uiso   1.00
N229   N     0.42131   0.35690   0.00582   0.00000  Uiso   1.00
N230   N     0.05459   0.31973   0.82945   0.00000  Uiso   1.00
C231   C     0.94176   0.82358   0.67724   0.00000  Uiso   1.00
C232   C     0.90042   0.85602   0.62169   0.00000  Uiso   1.00
C233   C     0.92366   0.88635   0.57925   0.00000  Uiso   1.00
C234   C     0.87800   0.91308   0.53168   0.00000  Uiso   1.00
C235   C     0.82394   0.96397   0.44616   0.00000  Uiso   1.00
C236   C     0.94982   0.75179   0.67691   0.00000  Uiso   1.00
C237   C     0.01460   0.69449   0.68091   0.00000  Uiso   1.00
C238   C     0.01051   0.63349   0.67984   0.00000  Uiso   1.00
C239   C     0.03314   0.52255   0.68009   0.00000  Uiso   1.00
C240   C     0.89113   0.85848   0.72693   0.00000  Uiso   1.00
C241   C     0.90657   0.89087   0.77300   0.00000  Uiso   1.00
C242   C     0.85307   0.91967   0.81405   0.00000  Uiso   1.00
C243   C     0.78458   0.97439   0.89197   0.00000  Uiso   1.00
C244   C     0.81932   0.81711   0.66823   0.00000  Uiso   1.00
C245   C     0.83392   0.85251   0.61680   0.00000  Uiso   1.00
C246   C     0.78820   0.87920   0.56928   0.00000  Uiso   1.00
C247   C     0.81137   0.90957   0.52678   0.00000  Uiso   1.00
C248   C     0.88332   0.74828   0.67202   0.00000  Uiso   1.00
C249   C     0.87913   0.68734   0.67095   0.00000  Uiso   1.00
C250   C     0.94389   0.62997   0.67494   0.00000  Uiso   1.00
C251   C     0.82462   0.85497   0.72204   0.00000  Uiso   1.00
C252   C     0.77110   0.88372   0.76303   0.00000  Uiso   1.00
C253   C     0.78645   0.91615   0.80915   0.00000  Uiso   1.00
H254   H     0.99353   0.82630   0.68104   0.00000  Uiso   1.00
H255   H     0.97514   0.88905   0.58305   0.00000  Uiso   1.00
H256   H     0.06605   0.69723   0.68470   0.00000  Uiso   1.00
H257   H     0.95803   0.89357   0.77677   0.00000  Uiso   1.00
H258   H     0.92542   0.95705   0.47223   0.00000  Uiso   1.00
H259   H     0.11712   0.55257   0.68659   0.00000  Uiso   1.00
H260   H     0.88935   0.96661   0.88074   0.00000  Uiso   1.00
H261   H     0.76754   0.81438   0.66442   0.00000  Uiso   1.00
H262   H     0.73674   0.87648   0.56551   0.00000  Uiso   1.00
H263   H     0.82766   0.68465   0.66716   0.00000  Uiso   1.00
H264   H     0.71964   0.88100   0.75923   0.00000  Uiso   1.00
H265   H     0.73193   0.94684   0.45800   0.00000  Uiso   1.00
H266   H     0.92363   0.54236   0.67236   0.00000  Uiso   1.00
H267   H     0.69586   0.95640   0.86651   0.00000  Uiso   1.00
O268   O     0.81251   0.99299   0.40034   0.00000  Uiso   1.00
O269   O     0.06401   0.46233   0.68158   0.00000  Uiso   1.00
O270   O     0.76517   0.00554   0.93630   0.00000  Uiso   1.00
N271   N     0.88411   0.94614   0.48246   0.00000  Uiso   1.00
N272   N     0.06333   0.56798   0.68286   0.00000  Uiso   1.00
N273   N     0.85039   0.95505   0.86439   0.00000  Uiso   1.00
N274   N     0.77999   0.94065   0.47480   0.00000  Uiso   1.00
N275   N     0.95922   0.56248   0.67521   0.00000  Uiso   1.00
N276   N     0.74628   0.94956   0.85673   0.00000  Uiso   1.00
C277   C     0.05909   0.79393   0.39068   0.00000  Uiso   1.00
C278   C     0.03310   0.85039   0.34599   0.00000  Uiso   1.00
C279   C     0.96222   0.88612   0.32676   0.00000  Uiso   1.00
C280   C     0.94953   0.93586   0.28570   0.00000  Uiso   1.00
C281   C     0.90061   0.02151   0.21952   0.00000  Uiso   1.00
C282   C     0.09741   0.81477   0.43837   0.00000  Uiso   1.00
C283   C     0.08061   0.82054   0.49681   0.00000  Uiso   1.00
C284   C     0.12206   0.84029   0.53353   0.00000  Uiso   1.00
C285   C     0.17303   0.87058   0.61078   0.00000  Uiso   1.00
C286   C     0.11769   0.73363   0.36116   0.00000  Uiso   1.00
C287   C     0.11795   0.67117   0.35469   0.00000  Uiso   1.00
C288   C     0.17649   0.62260   0.32640   0.00000  Uiso   1.00
C289   C     0.25894   0.52691   0.28377   0.00000  Uiso   1.00
C290   C     0.16260   0.81873   0.35197   0.00000  Uiso   1.00
C291   C     0.08932   0.86386   0.32496   0.00000  Uiso   1.00
C292   C     0.07674   0.91356   0.28392   0.00000  Uiso   1.00
C293   C     0.00585   0.94936   0.26463   0.00000  Uiso   1.00
C294   C     0.15363   0.82824   0.41735   0.00000  Uiso   1.00
C295   C     0.19512   0.84798   0.45398   0.00000  Uiso   1.00
C296   C     0.17838   0.85378   0.51246   0.00000  Uiso   1.00
C297   C     0.17391   0.74710   0.34013   0.00000  Uiso   1.00
C298   C     0.23246   0.69861   0.31185   0.00000  Uiso   1.00
C299   C     0.23281   0.63609   0.30534   0.00000  Uiso   1.00
H300   H     0.01532   0.78344   0.40706   0.00000  Uiso   1.00
H301   H     0.91873   0.87569   0.34305   0.00000  Uiso   1.00
H302   H     0.03710   0.81011   0.51308   0.00000  Uiso   1.00
H303   H     0.07444   0.66076   0.37097   0.00000  Uiso   1.00
H304   H     0.83642   0.98391   0.26282   0.00000  Uiso   1.00
H305   H     0.08604   0.84561   0.62134   0.00000  Uiso   1.00
H306   H     0.16476   0.53069   0.32168   0.00000  Uiso   1.00
H307   H     0.20637   0.82921   0.33559   0.00000  Uiso   1.00
H308   H     0.12025   0.92397   0.26766   0.00000  Uiso   1.00
H309   H     0.23863   0.85839   0.43769   0.00000  Uiso   1.00
H310   H     0.27596   0.70905   0.29558   0.00000  Uiso   1.00
H311   H     0.99998   0.02311   0.20163   0.00000  Uiso   1.00
H312   H     0.24960   0.88480   0.56016   0.00000  Uiso   1.00
H313   H     0.32833   0.56988   0.26050   0.00000  Uiso   1.00
O314   O     0.85810   0.06503   0.18884   0.00000  Uiso   1.00
O315   O     0.18560   0.88357   0.65921   0.00000  Uiso   1.00
O316   O     0.28888   0.47041   0.26606   0.00000  Uiso   1.00
N317   N     0.88673   0.98012   0.25773   0.00000  Uiso   1.00
N318   N     0.12010   0.85083   0.59293   0.00000  Uiso   1.00
N319   N     0.19372   0.55640   0.31279   0.00000  Uiso   1.00
N320   N     0.97475   0.00121   0.22481   0.00000  Uiso   1.00
N321   N     0.20812   0.87192   0.56000   0.00000  Uiso   1.00
N322   N     0.28173   0.57749   0.27986   0.00000  Uiso   1.00
C323   C     0.38080   0.28708   0.60423   0.00000  Uiso   1.00
C324   C     0.42693   0.21352   0.59052   0.00000  Uiso   1.00
C325   C     0.42006   0.15955   0.61543   0.00000  Uiso   1.00
C326   C     0.46744   0.09614   0.59704   0.00000  Uiso   1.00
C327   C     0.53108   0.98330   0.58208   0.00000  Uiso   1.00
C328   C     0.34794   0.32071   0.54656   0.00000  Uiso   1.00
C329   C     0.27467   0.35688   0.53452   0.00000  Uiso   1.00
C330   C     0.25557   0.38371   0.47913   0.00000  Uiso   1.00
C331   C     0.19659   0.43732   0.39594   0.00000  Uiso   1.00
C332   C     0.43355   0.31561   0.62289   0.00000  Uiso   1.00
C333   C     0.43225   0.34751   0.67501   0.00000  Uiso   1.00
C334   C     0.48522   0.37006   0.68388   0.00000  Uiso   1.00
C335   C     0.55916   0.41576   0.71920   0.00000  Uiso   1.00
C336   C     0.47716   0.27044   0.52729   0.00000  Uiso   1.00
C337   C     0.47926   0.20448   0.54872   0.00000  Uiso   1.00
C338   C     0.52667   0.14114   0.53030   0.00000  Uiso   1.00
C339   C     0.51988   0.08709   0.55517   0.00000  Uiso   1.00
C340   C     0.40028   0.31167   0.50477   0.00000  Uiso   1.00
C341   C     0.38128   0.33847   0.44939   0.00000  Uiso   1.00
C342   C     0.30800   0.37466   0.43726   0.00000  Uiso   1.00
C343   C     0.48590   0.30657   0.58110   0.00000  Uiso   1.00
C344   C     0.53887   0.32909   0.58988   0.00000  Uiso   1.00
C345   C     0.53765   0.36101   0.64201   0.00000  Uiso   1.00
H346   H     0.34004   0.29412   0.63677   0.00000  Uiso   1.00
H347   H     0.37954   0.16657   0.64777   0.00000  Uiso   1.00
H348   H     0.23418   0.36387   0.56687   0.00000  Uiso   1.00
H349   H     0.39174   0.35449   0.70734   0.00000  Uiso   1.00
H350   H     0.44640   0.02117   0.64151   0.00000  Uiso   1.00
H351   H     0.13989   0.43720   0.47094   0.00000  Uiso   1.00
H352   H     0.47214   0.41744   0.76716   0.00000  Uiso   1.00
H353   H     0.51791   0.26341   0.49475   0.00000  Uiso   1.00
H354   H     0.56717   0.13416   0.49795   0.00000  Uiso   1.00
H355   H     0.42180   0.33146   0.41706   0.00000  Uiso   1.00
H356   H     0.57936   0.32209   0.55753   0.00000  Uiso   1.00
H357   H     0.59868   0.99487   0.51991   0.00000  Uiso   1.00
H358   H     0.29217   0.41091   0.34935   0.00000  Uiso   1.00
H359   H     0.62442   0.39114   0.64557   0.00000  Uiso   1.00
O360   O     0.55172   0.92355   0.58537   0.00000  Uiso   1.00
O361   O     0.14959   0.46939   0.36159   0.00000  Uiso   1.00
O362   O     0.58550   0.44345   0.75023   0.00000  Uiso   1.00
N363   N     0.47549   0.03271   0.61246   0.00000  Uiso   1.00
N364   N     0.18892   0.42167   0.45299   0.00000  Uiso   1.00
N365   N     0.49953   0.40321   0.72992   0.00000  Uiso   1.00
N366   N     0.55743   0.01856   0.54703   0.00000  Uiso   1.00
N367   N     0.27086   0.40752   0.38756   0.00000  Uiso   1.00
N368   N     0.58147   0.38906   0.66449   0.00000  Uiso   1.00
C369   C     0.33657   0.82742   0.82911   0.00000  Uiso   1.00
C370   C     0.37250   0.84619   0.87990   0.00000  Uiso   1.00
C371   C     0.33704   0.88524   0.92688   0.00000  Uiso   1.00
C372   C     0.37961   0.89668   0.96884   0.00000  Uiso   1.00
C373   C     0.42396   0.92987   0.04847   0.00000  Uiso   1.00
C374   C     0.37220   0.75115   0.82664   0.00000  Uiso   1.00
C375   C     0.33648   0.71029   0.82882   0.00000  Uiso   1.00
C376   C     0.37879   0.64172   0.82594   0.00000  Uiso   1.00
C377   C     0.42266   0.52735   0.82283   0.00000  Uiso   1.00
C378   C     0.36001   0.85123   0.77462   0.00000  Uiso   1.00
C379   C     0.31405   0.89451   0.73305   0.00000  Uiso   1.00
C380   C     0.34611   0.91019   0.68637   0.00000  Uiso   1.00
C381   C     0.37106   0.95122   0.60249   0.00000  Uiso   1.00
C382   C     0.47521   0.77829   0.82009   0.00000  Uiso   1.00
C383   C     0.44781   0.81951   0.87500   0.00000  Uiso   1.00
C384   C     0.49044   0.83090   0.91691   0.00000  Uiso   1.00
C385   C     0.45505   0.86996   0.96394   0.00000  Uiso   1.00
C386   C     0.44750   0.72447   0.82174   0.00000  Uiso   1.00
C387   C     0.48988   0.65594   0.81885   0.00000  Uiso   1.00
C388   C     0.45423   0.61498   0.82104   0.00000  Uiso   1.00
C389   C     0.43532   0.82455   0.76972   0.00000  Uiso   1.00
C390   C     0.46745   0.84016   0.72308   0.00000  Uiso   1.00
C391   C     0.42155   0.88346   0.68146   0.00000  Uiso   1.00
H392   H     0.27794   0.84818   0.83292   0.00000  Uiso   1.00
H393   H     0.27876   0.90588   0.93065   0.00000  Uiso   1.00
H394   H     0.27820   0.73095   0.83261   0.00000  Uiso   1.00
H395   H     0.25578   0.91515   0.73686   0.00000  Uiso   1.00
H396   H     0.31290   0.95806   0.03686   0.00000  Uiso   1.00
H397   H     0.31171   0.58921   0.83011   0.00000  Uiso   1.00
H398   H     0.26442   0.97763   0.62819   0.00000  Uiso   1.00
H399   H     0.53384   0.75752   0.81628   0.00000  Uiso   1.00
H400   H     0.54872   0.81024   0.91310   0.00000  Uiso   1.00
H401   H     0.54815   0.63531   0.81506   0.00000  Uiso   1.00
H402   H     0.52573   0.81951   0.71931   0.00000  Uiso   1.00
H403   H     0.53200   0.88043   0.02262   0.00000  Uiso   1.00
H404   H     0.53081   0.51158   0.81586   0.00000  Uiso   1.00
H405   H     0.48353   0.90000   0.61395   0.00000  Uiso   1.00
O406   O     0.42761   0.95554   0.09374   0.00000  Uiso   1.00
O407   O     0.42605   0.47164   0.82248   0.00000  Uiso   1.00
O408   O     0.36402   0.98123   0.55758   0.00000  Uiso   1.00
N409   N     0.36242   0.93256   0.02022   0.00000  Uiso   1.00
N410   N     0.36131   0.58771   0.82692   0.00000  Uiso   1.00
N411   N     0.31710   0.95084   0.63814   0.00000  Uiso   1.00
N412   N     0.48032   0.89079   0.01255   0.00000  Uiso   1.00
N413   N     0.47920   0.54594   0.81926   0.00000  Uiso   1.00
N414   N     0.43500   0.90907   0.63048   0.00000  Uiso   1.00
C415   C     0.70246   0.23873   0.94526   0.00000  Uiso   1.00
C416   C     0.69481   0.20238   0.89122   0.00000  Uiso   1.00
C417   C     0.64112   0.18106   0.88107   0.00000  Uiso   1.00
C418   C     0.64355   0.14872   0.82895   0.00000  Uiso   1.00
C419   C     0.62344   0.09387   0.75120   0.00000  Uiso   1.00
C420   C     0.77822   0.19663   0.96960   0.00000  Uiso   1.00
C421   C     0.79466   0.17048   0.02536   0.00000  Uiso   1.00
C422   C     0.86730   0.13331   0.03924   0.00000  Uiso   1.00
C423   C     0.97670   0.06956   0.08319   0.00000  Uiso   1.00
C424   C     0.70274   0.30378   0.92392   0.00000  Uiso   1.00
C425   C     0.65572   0.36774   0.94128   0.00000  Uiso   1.00
C426   C     0.66482   0.42078   0.91671   0.00000  Uiso   1.00
C427   C     0.65702   0.52341   0.88973   0.00000  Uiso   1.00
C428   C     0.80224   0.21920   0.87076   0.00000  Uiso   1.00
C429   C     0.74900   0.19177   0.85075   0.00000  Uiso   1.00
C430   C     0.75151   0.15946   0.79864   0.00000  Uiso   1.00
C431   C     0.69783   0.13810   0.78841   0.00000  Uiso   1.00
C432   C     0.83241   0.18602   0.92914   0.00000  Uiso   1.00
C433   C     0.90505   0.14888   0.94294   0.00000  Uiso   1.00
C434   C     0.92159   0.12268   0.99870   0.00000  Uiso   1.00
C435   C     0.75693   0.29318   0.88345   0.00000  Uiso   1.00
C436   C     0.76611   0.34613   0.85885   0.00000  Uiso   1.00
C437   C     0.71911   0.41015   0.87617   0.00000  Uiso   1.00
H438   H     0.66028   0.24698   0.97677   0.00000  Uiso   1.00
H439   H     0.59920   0.18928   0.91240   0.00000  Uiso   1.00
H440   H     0.75272   0.17871   0.05667   0.00000  Uiso   1.00
H441   H     0.61380   0.37593   0.97260   0.00000  Uiso   1.00
H442   H     0.55539   0.12060   0.82319   0.00000  Uiso   1.00
H443   H     0.87909   0.09833   0.12740   0.00000  Uiso   1.00
H444   H     0.58615   0.51421   0.95013   0.00000  Uiso   1.00
H445   H     0.84443   0.21094   0.83926   0.00000  Uiso   1.00
H446   H     0.79345   0.15126   0.76733   0.00000  Uiso   1.00
H447   H     0.94697   0.14069   0.91161   0.00000  Uiso   1.00
H448   H     0.80805   0.33791   0.82754   0.00000  Uiso   1.00
H449   H     0.71306   0.08974   0.70545   0.00000  Uiso   1.00
H450   H     0.03676   0.06747   0.00967   0.00000  Uiso   1.00
H451   H     0.74382   0.48335   0.83239   0.00000  Uiso   1.00
O452   O     0.59738   0.06653   0.71949   0.00000  Uiso   1.00
O453   O     0.02206   0.03733   0.11862   0.00000  Uiso   1.00
O454   O     0.63773   0.58295   0.88603   0.00000  Uiso   1.00
N455   N     0.59949   0.12154   0.80534   0.00000  Uiso   1.00
N456   N     0.90213   0.10071   0.08976   0.00000  Uiso   1.00
N457   N     0.62827   0.48952   0.92404   0.00000  Uiso   1.00
N458   N     0.68433   0.10493   0.74199   0.00000  Uiso   1.00
N459   N     0.98696   0.08410   0.02641   0.00000  Uiso   1.00
N460   N     0.71310   0.47292   0.86068   0.00000  Uiso   1.00
C461   C     0.64768   0.75221   0.19376   0.00000  Uiso   1.00
C462   C     0.61115   0.82769   0.18371   0.00000  Uiso   1.00
C463   C     0.56342   0.87473   0.22109   0.00000  Uiso   1.00
C464   C     0.53585   0.94135   0.20403   0.00000  Uiso   1.00
C465   C     0.47613   0.05569   0.19641   0.00000  Uiso   1.00
C466   C     0.62771   0.72122   0.14133   0.00000  Uiso   1.00
C467   C     0.59391   0.67873   0.14307   0.00000  Uiso   1.00
C468   C     0.58029   0.65572   0.09033   0.00000  Uiso   1.00
C469   C     0.54634   0.60472   0.01691   0.00000  Uiso   1.00
C470   C     0.72877   0.73148   0.18994   0.00000  Uiso   1.00
C471   C     0.77996   0.69759   0.23255   0.00000  Uiso   1.00
C472   C     0.85143   0.68321   0.22073   0.00000  Uiso   1.00
C473   C     0.97439   0.64813   0.22278   0.00000  Uiso   1.00
C474   C     0.68358   0.78689   0.09701   0.00000  Uiso   1.00
C475   C     0.63065   0.84653   0.13116   0.00000  Uiso   1.00
C476   C     0.60314   0.91310   0.11404   0.00000  Uiso   1.00
C477   C     0.55538   0.96023   0.15139   0.00000  Uiso   1.00
C478   C     0.64721   0.74006   0.08878   0.00000  Uiso   1.00
C479   C     0.63364   0.71710   0.03602   0.00000  Uiso   1.00
C480   C     0.59983   0.67459   0.03768   0.00000  Uiso   1.00
C481   C     0.74828   0.75031   0.13739   0.00000  Uiso   1.00
C482   C     0.81968   0.73597   0.12550   0.00000  Uiso   1.00
C483   C     0.87097   0.70208   0.16808   0.00000  Uiso   1.00
H484   H     0.63249   0.73754   0.23467   0.00000  Uiso   1.00
H485   H     0.54834   0.86013   0.26175   0.00000  Uiso   1.00
H486   H     0.57884   0.66416   0.18374   0.00000  Uiso   1.00
H487   H     0.76485   0.68302   0.27321   0.00000  Uiso   1.00
H488   H     0.46361   0.00435   0.26859   0.00000  Uiso   1.00
H489   H     0.52794   0.59111   0.10411   0.00000  Uiso   1.00
H490   H     0.92019   0.63089   0.29276   0.00000  Uiso   1.00
H491   H     0.69876   0.80155   0.05609   0.00000  Uiso   1.00
H492   H     0.61824   0.92766   0.07337   0.00000  Uiso   1.00
H493   H     0.64874   0.73169   0.99537   0.00000  Uiso   1.00
H494   H     0.83475   0.75056   0.08483   0.00000  Uiso   1.00
H495   H     0.52035   0.05916   0.11569   0.00000  Uiso   1.00
H496   H     0.58468   0.64592   0.95121   0.00000  Uiso   1.00
H497   H     0.97693   0.68571   0.13986   0.00000  Uiso   1.00
O498   O     0.43780   0.11355   0.20672   0.00000  Uiso   1.00
O499   O     0.52221   0.57140   0.99093   0.00000  Uiso   1.00
O500   O     0.03682   0.62359   0.23843   0.00000  Uiso   1.00
N501   N     0.48803   0.99994   0.23024   0.00000  Uiso   1.00
N502   N     0.54816   0.61360   0.07646   0.00000  Uiso   1.00
N503   N     0.91488   0.65078   0.25282   0.00000  Uiso   1.00
N504   N     0.51856   0.02944   0.14796   0.00000  Uiso   1.00
N505   N     0.57869   0.64310   0.99418   0.00000  Uiso   1.00
N506   N     0.94541   0.68027   0.17055   0.00000  Uiso   1.00
C507   C     0.05824   0.17642   0.32276   0.00000  Uiso   1.00
C508   C     0.09958   0.14398   0.37831   0.00000  Uiso   1.00
C509   C     0.07634   0.11365   0.42075   0.00000  Uiso   1.00
C510   C     0.12200   0.08692   0.46832   0.00000  Uiso   1.00
C511   C     0.17606   0.03603   0.55384   0.00000  Uiso   1.00
C512   C     0.05018   0.24821   0.32309   0.00000  Uiso   1.00
C513   C     0.98540   0.30551   0.31909   0.00000  Uiso   1.00
C514   C     0.98949   0.36651   0.32016   0.00000  Uiso   1.00
C515   C     0.96686   0.47745   0.31991   0.00000  Uiso   1.00
C516   C     0.10887   0.14152   0.27307   0.00000  Uiso   1.00
C517   C     0.09343   0.10913   0.22700   0.00000  Uiso   1.00
C518   C     0.14693   0.08033   0.18595   0.00000  Uiso   1.00
C519   C     0.21542   0.02561   0.10803   0.00000  Uiso   1.00
C520   C     0.18068   0.18289   0.33177   0.00000  Uiso   1.00
C521   C     0.16608   0.14749   0.38320   0.00000  Uiso   1.00
C522   C     0.21180   0.12080   0.43072   0.00000  Uiso   1.00
C523   C     0.18863   0.09043   0.47322   0.00000  Uiso   1.00
C524   C     0.11668   0.25172   0.32798   0.00000  Uiso   1.00
C525   C     0.12087   0.31266   0.32905   0.00000  Uiso   1.00
C526   C     0.05611   0.37003   0.32506   0.00000  Uiso   1.00
C527   C     0.17538   0.14503   0.27796   0.00000  Uiso   1.00
C528   C     0.22890   0.11628   0.23697   0.00000  Uiso   1.00
C529   C     0.21355   0.08385   0.19085   0.00000  Uiso   1.00
H530   H     0.00647   0.17370   0.31896   0.00000  Uiso   1.00
H531   H     0.02486   0.11095   0.41695   0.00000  Uiso   1.00
H532   H     0.93395   0.30277   0.31530   0.00000  Uiso   1.00
H533   H     0.04197   0.10643   0.22323   0.00000  Uiso   1.00
H534   H     0.07458   0.04295   0.52777   0.00000  Uiso   1.00
H535   H     0.88288   0.44743   0.31341   0.00000  Uiso   1.00
H536   H     0.11065   0.03339   0.11926   0.00000  Uiso   1.00
H537   H     0.23246   0.18562   0.33558   0.00000  Uiso   1.00
H538   H     0.26326   0.12352   0.43449   0.00000  Uiso   1.00
H539   H     0.17234   0.31535   0.33284   0.00000  Uiso   1.00
H540   H     0.28036   0.11900   0.24077   0.00000  Uiso   1.00
H541   H     0.26807   0.05316   0.54200   0.00000  Uiso   1.00
H542   H     0.07637   0.45764   0.32764   0.00000  Uiso   1.00
H543   H     0.30414   0.04360   0.13349   0.00000  Uiso   1.00
O544   O     0.18749   0.00701   0.59966   0.00000  Uiso   1.00
O545   O     0.93599   0.53767   0.31842   0.00000  Uiso   1.00
O546   O     0.23483   0.99446   0.06370   0.00000  Uiso   1.00
N547   N     0.11589   0.05386   0.51754   0.00000  Uiso   1.00
N548   N     0.93667   0.43202   0.31714   0.00000  Uiso   1.00
N549   N     0.14961   0.04495   0.13561   0.00000  Uiso   1.00
N550   N     0.22001   0.05935   0.52520   0.00000  Uiso   1.00
N551   N     0.04078   0.43752   0.32479   0.00000  Uiso   1.00
N552   N     0.25372   0.05044   0.14327   0.00000  Uiso   1.00
