data_job_02342
_audit_creation_date              2018-12-19
_audit_creation_method            'Materials Studio'
_symmetry_space_group_name_H-M    'P1'
_symmetry_Int_Tables_number       1
_symmetry_cell_setting            triclinic
loop_
_symmetry_equiv_pos_as_xyz
  x,y,z
_cell_length_a                    13.7778
_cell_length_b                    34.8577
_cell_length_c                    10.8726
_cell_angle_alpha                 90.0000
_cell_angle_beta                  90.0000
_cell_angle_gamma                 90.0000
loop_
_atom_site_label
_atom_site_type_symbol
_atom_site_fract_x
_atom_site_fract_y
_atom_site_fract_z
_atom_site_U_iso_or_equiv
_atom_site_adp_type
_atom_site_occupancy
C1     C     0.64853   0.84725   0.40265   0.00000  Uiso   1.00
C2     C     0.72966   0.85363   0.30945   0.00000  Uiso   1.00
C3     C     0.71719   0.86089   0.18495   0.00000  Uiso   1.00
C4     C     0.80061   0.86590   0.11514   0.00000  Uiso   1.00
C5     C     0.91250   0.87612   0.96237   0.00000  Uiso   1.00
C6     C     0.66862   0.80837   0.46166   0.00000  Uiso   1.00
C7     C     0.60483   0.77757   0.46514   0.00000  Uiso   1.00
C8     C     0.63687   0.74448   0.52347   0.00000  Uiso   1.00
C9     C     0.65398   0.68443   0.60709   0.00000  Uiso   1.00
C10    C     0.66404   0.87700   0.50358   0.00000  Uiso   1.00
C11    C     0.59639   0.90390   0.54235   0.00000  Uiso   1.00
C12    C     0.62456   0.92859   0.63600   0.00000  Uiso   1.00
C13    C     0.63455   0.97511   0.78470   0.00000  Uiso   1.00
C14    C     0.81885   0.84324   0.50006   0.00000  Uiso   1.00
C15    C     0.82217   0.85145   0.36236   0.00000  Uiso   1.00
C16    C     0.90563   0.85645   0.29272   0.00000  Uiso   1.00
C17    C     0.89329   0.86372   0.16814   0.00000  Uiso   1.00
C18    C     0.76113   0.80618   0.51457   0.00000  Uiso   1.00
C19    C     0.79327   0.77313   0.57291   0.00000  Uiso   1.00
C20    C     0.72955   0.74229   0.57648   0.00000  Uiso   1.00
C21    C     0.75655   0.87482   0.55649   0.00000  Uiso   1.00
C22    C     0.78483   0.89946   0.65011   0.00000  Uiso   1.00
C23    C     0.71723   0.92640   0.68900   0.00000  Uiso   1.00
H24    H     0.57651   0.84894   0.36146   0.00000  Uiso   1.00
H25    H     0.64559   0.86257   0.14404   0.00000  Uiso   1.00
H26    H     0.53325   0.77927   0.42420   0.00000  Uiso   1.00
H27    H     0.52481   0.90558   0.50138   0.00000  Uiso   1.00
H28    H     0.76297   0.87671   0.92631   0.00000  Uiso   1.00
H29    H     0.52608   0.70106   0.51708   0.00000  Uiso   1.00
H30    H     0.50827   0.96741   0.67984   0.00000  Uiso   1.00
H31    H     0.89087   0.84154   0.54125   0.00000  Uiso   1.00
H32    H     0.97721   0.85476   0.33369   0.00000  Uiso   1.00
H33    H     0.86486   0.77145   0.61385   0.00000  Uiso   1.00
H34    H     0.85642   0.89777   0.69103   0.00000  Uiso   1.00
H35    H     0.03212   0.87037   0.08024   0.00000  Uiso   1.00
H36    H     0.79522   0.69472   0.67102   0.00000  Uiso   1.00
H37    H     0.77743   0.96107   0.83377   0.00000  Uiso   1.00
O38    O     0.94867   0.88236   0.86349   0.00000  Uiso   1.00
O39    O     0.63786   0.65191   0.63858   0.00000  Uiso   1.00
O40    O     0.61451   0.00137   0.85210   0.00000  Uiso   1.00
N41    N     0.81447   0.87341   0.99103   0.00000  Uiso   1.00
N42    N     0.59299   0.70918   0.54335   0.00000  Uiso   1.00
N43    N     0.57634   0.95820   0.69553   0.00000  Uiso   1.00
N44    N     0.95930   0.87000   0.07386   0.00000  Uiso   1.00
N45    N     0.73782   0.70577   0.62618   0.00000  Uiso   1.00
N46    N     0.72117   0.95479   0.77836   0.00000  Uiso   1.00
C47    C     0.85147   0.15275   0.40265   0.00000  Uiso   1.00
C48    C     0.77034   0.14637   0.30945   0.00000  Uiso   1.00
C49    C     0.78281   0.13911   0.18495   0.00000  Uiso   1.00
C50    C     0.69939   0.13410   0.11514   0.00000  Uiso   1.00
C51    C     0.58750   0.12388   0.96237   0.00000  Uiso   1.00
C52    C     0.83138   0.19163   0.46166   0.00000  Uiso   1.00
C53    C     0.89517   0.22243   0.46514   0.00000  Uiso   1.00
C54    C     0.86313   0.25552   0.52347   0.00000  Uiso   1.00
C55    C     0.84602   0.31557   0.60709   0.00000  Uiso   1.00
C56    C     0.83596   0.12300   0.50358   0.00000  Uiso   1.00
C57    C     0.90361   0.09610   0.54235   0.00000  Uiso   1.00
C58    C     0.87544   0.07141   0.63600   0.00000  Uiso   1.00
C59    C     0.86545   0.02489   0.78470   0.00000  Uiso   1.00
C60    C     0.68115   0.15676   0.50006   0.00000  Uiso   1.00
C61    C     0.67783   0.14855   0.36236   0.00000  Uiso   1.00
C62    C     0.59437   0.14355   0.29272   0.00000  Uiso   1.00
C63    C     0.60671   0.13628   0.16814   0.00000  Uiso   1.00
C64    C     0.73887   0.19382   0.51457   0.00000  Uiso   1.00
C65    C     0.70673   0.22687   0.57291   0.00000  Uiso   1.00
C66    C     0.77045   0.25771   0.57648   0.00000  Uiso   1.00
C67    C     0.74345   0.12518   0.55649   0.00000  Uiso   1.00
C68    C     0.71517   0.10054   0.65011   0.00000  Uiso   1.00
C69    C     0.78277   0.07360   0.68900   0.00000  Uiso   1.00
H70    H     0.92349   0.15106   0.36146   0.00000  Uiso   1.00
H71    H     0.85441   0.13743   0.14404   0.00000  Uiso   1.00
H72    H     0.96675   0.22073   0.42420   0.00000  Uiso   1.00
H73    H     0.97519   0.09442   0.50138   0.00000  Uiso   1.00
H74    H     0.73703   0.12329   0.92631   0.00000  Uiso   1.00
H75    H     0.97392   0.29894   0.51708   0.00000  Uiso   1.00
H76    H     0.99173   0.03259   0.67984   0.00000  Uiso   1.00
H77    H     0.60913   0.15846   0.54125   0.00000  Uiso   1.00
H78    H     0.52279   0.14524   0.33369   0.00000  Uiso   1.00
H79    H     0.63514   0.22855   0.61385   0.00000  Uiso   1.00
H80    H     0.64358   0.10223   0.69103   0.00000  Uiso   1.00
H81    H     0.46788   0.12963   0.08024   0.00000  Uiso   1.00
H82    H     0.70478   0.30528   0.67102   0.00000  Uiso   1.00
H83    H     0.72257   0.03893   0.83377   0.00000  Uiso   1.00
O84    O     0.55133   0.11764   0.86349   0.00000  Uiso   1.00
O85    O     0.86214   0.34809   0.63858   0.00000  Uiso   1.00
O86    O     0.88549   0.99863   0.85210   0.00000  Uiso   1.00
N87    N     0.68553   0.12659   0.99103   0.00000  Uiso   1.00
N88    N     0.90701   0.29082   0.54335   0.00000  Uiso   1.00
N89    N     0.92366   0.04180   0.69553   0.00000  Uiso   1.00
N90    N     0.54070   0.13000   0.07386   0.00000  Uiso   1.00
N91    N     0.76218   0.29423   0.62618   0.00000  Uiso   1.00
N92    N     0.77883   0.04521   0.77836   0.00000  Uiso   1.00
C93    C     0.85147   0.34725   0.09735   0.00000  Uiso   1.00
C94    C     0.77034   0.35363   0.19055   0.00000  Uiso   1.00
C95    C     0.78281   0.36089   0.31505   0.00000  Uiso   1.00
C96    C     0.69939   0.36590   0.38486   0.00000  Uiso   1.00
C97    C     0.58750   0.37612   0.53763   0.00000  Uiso   1.00
C98    C     0.83138   0.30837   0.03834   0.00000  Uiso   1.00
C99    C     0.89517   0.27757   0.03486   0.00000  Uiso   1.00
C100   C     0.86313   0.24448   0.97653   0.00000  Uiso   1.00
C101   C     0.84602   0.18443   0.89291   0.00000  Uiso   1.00
C102   C     0.83596   0.37700   0.99642   0.00000  Uiso   1.00
C103   C     0.90361   0.40390   0.95765   0.00000  Uiso   1.00
C104   C     0.87544   0.42859   0.86400   0.00000  Uiso   1.00
C105   C     0.86545   0.47511   0.71530   0.00000  Uiso   1.00
C106   C     0.68115   0.34324   0.99994   0.00000  Uiso   1.00
C107   C     0.67783   0.35145   0.13764   0.00000  Uiso   1.00
C108   C     0.59437   0.35645   0.20728   0.00000  Uiso   1.00
C109   C     0.60671   0.36372   0.33186   0.00000  Uiso   1.00
C110   C     0.73887   0.30618   0.98543   0.00000  Uiso   1.00
C111   C     0.70673   0.27313   0.92709   0.00000  Uiso   1.00
C112   C     0.77045   0.24229   0.92352   0.00000  Uiso   1.00
C113   C     0.74345   0.37482   0.94351   0.00000  Uiso   1.00
C114   C     0.71517   0.39946   0.84989   0.00000  Uiso   1.00
C115   C     0.78277   0.42640   0.81100   0.00000  Uiso   1.00
H116   H     0.92349   0.34894   0.13854   0.00000  Uiso   1.00
H117   H     0.85441   0.36257   0.35596   0.00000  Uiso   1.00
H118   H     0.96675   0.27927   0.07580   0.00000  Uiso   1.00
H119   H     0.97519   0.40558   0.99862   0.00000  Uiso   1.00
H120   H     0.73703   0.37671   0.57369   0.00000  Uiso   1.00
H121   H     0.97392   0.20106   0.98292   0.00000  Uiso   1.00
H122   H     0.99173   0.46741   0.82016   0.00000  Uiso   1.00
H123   H     0.60913   0.34154   0.95875   0.00000  Uiso   1.00
H124   H     0.52279   0.35476   0.16631   0.00000  Uiso   1.00
H125   H     0.63514   0.27145   0.88615   0.00000  Uiso   1.00
H126   H     0.64358   0.39777   0.80897   0.00000  Uiso   1.00
H127   H     0.46788   0.37037   0.41976   0.00000  Uiso   1.00
H128   H     0.70478   0.19472   0.82898   0.00000  Uiso   1.00
H129   H     0.72257   0.46107   0.66623   0.00000  Uiso   1.00
O130   O     0.55133   0.38236   0.63651   0.00000  Uiso   1.00
O131   O     0.86214   0.15191   0.86142   0.00000  Uiso   1.00
O132   O     0.88549   0.50137   0.64790   0.00000  Uiso   1.00
N133   N     0.68553   0.37341   0.50897   0.00000  Uiso   1.00
N134   N     0.90701   0.20918   0.95665   0.00000  Uiso   1.00
N135   N     0.92366   0.45820   0.80447   0.00000  Uiso   1.00
N136   N     0.54070   0.37000   0.42614   0.00000  Uiso   1.00
N137   N     0.76218   0.20577   0.87382   0.00000  Uiso   1.00
N138   N     0.77883   0.45479   0.72164   0.00000  Uiso   1.00
C139   C     0.64853   0.65275   0.09735   0.00000  Uiso   1.00
C140   C     0.72966   0.64637   0.19055   0.00000  Uiso   1.00
C141   C     0.71719   0.63911   0.31505   0.00000  Uiso   1.00
C142   C     0.80061   0.63410   0.38486   0.00000  Uiso   1.00
C143   C     0.91250   0.62388   0.53763   0.00000  Uiso   1.00
C144   C     0.66862   0.69163   0.03834   0.00000  Uiso   1.00
C145   C     0.60483   0.72243   0.03486   0.00000  Uiso   1.00
C146   C     0.63687   0.75552   0.97653   0.00000  Uiso   1.00
C147   C     0.65398   0.81557   0.89291   0.00000  Uiso   1.00
C148   C     0.66404   0.62300   0.99642   0.00000  Uiso   1.00
C149   C     0.59639   0.59610   0.95765   0.00000  Uiso   1.00
C150   C     0.62456   0.57141   0.86400   0.00000  Uiso   1.00
C151   C     0.63455   0.52489   0.71530   0.00000  Uiso   1.00
C152   C     0.81885   0.65676   0.99994   0.00000  Uiso   1.00
C153   C     0.82217   0.64855   0.13764   0.00000  Uiso   1.00
C154   C     0.90563   0.64355   0.20728   0.00000  Uiso   1.00
C155   C     0.89329   0.63628   0.33186   0.00000  Uiso   1.00
C156   C     0.76113   0.69382   0.98543   0.00000  Uiso   1.00
C157   C     0.79327   0.72687   0.92709   0.00000  Uiso   1.00
C158   C     0.72955   0.75771   0.92352   0.00000  Uiso   1.00
C159   C     0.75655   0.62518   0.94351   0.00000  Uiso   1.00
C160   C     0.78483   0.60054   0.84989   0.00000  Uiso   1.00
C161   C     0.71723   0.57360   0.81100   0.00000  Uiso   1.00
H162   H     0.57651   0.65106   0.13854   0.00000  Uiso   1.00
H163   H     0.64559   0.63743   0.35596   0.00000  Uiso   1.00
H164   H     0.53325   0.72073   0.07580   0.00000  Uiso   1.00
H165   H     0.52481   0.59442   0.99862   0.00000  Uiso   1.00
H166   H     0.76297   0.62329   0.57369   0.00000  Uiso   1.00
H167   H     0.52608   0.79894   0.98292   0.00000  Uiso   1.00
H168   H     0.50827   0.53259   0.82016   0.00000  Uiso   1.00
H169   H     0.89087   0.65846   0.95875   0.00000  Uiso   1.00
H170   H     0.97721   0.64524   0.16631   0.00000  Uiso   1.00
H171   H     0.86486   0.72855   0.88615   0.00000  Uiso   1.00
H172   H     0.85642   0.60223   0.80897   0.00000  Uiso   1.00
H173   H     0.03212   0.62963   0.41976   0.00000  Uiso   1.00
H174   H     0.79522   0.80528   0.82898   0.00000  Uiso   1.00
H175   H     0.77743   0.53893   0.66623   0.00000  Uiso   1.00
O176   O     0.94867   0.61764   0.63651   0.00000  Uiso   1.00
O177   O     0.63786   0.84809   0.86142   0.00000  Uiso   1.00
O178   O     0.61451   0.49863   0.64790   0.00000  Uiso   1.00
N179   N     0.81447   0.62659   0.50897   0.00000  Uiso   1.00
N180   N     0.59299   0.79082   0.95665   0.00000  Uiso   1.00
N181   N     0.57634   0.54180   0.80447   0.00000  Uiso   1.00
N182   N     0.95930   0.63000   0.42614   0.00000  Uiso   1.00
N183   N     0.73782   0.79423   0.87382   0.00000  Uiso   1.00
N184   N     0.72117   0.54521   0.72164   0.00000  Uiso   1.00
C185   C     0.35147   0.15275   0.59735   0.00000  Uiso   1.00
C186   C     0.27034   0.14637   0.69055   0.00000  Uiso   1.00
C187   C     0.28281   0.13911   0.81505   0.00000  Uiso   1.00
C188   C     0.19939   0.13410   0.88486   0.00000  Uiso   1.00
C189   C     0.08750   0.12388   0.03763   0.00000  Uiso   1.00
C190   C     0.33138   0.19163   0.53834   0.00000  Uiso   1.00
C191   C     0.39517   0.22243   0.53486   0.00000  Uiso   1.00
C192   C     0.36313   0.25552   0.47653   0.00000  Uiso   1.00
C193   C     0.34602   0.31557   0.39291   0.00000  Uiso   1.00
C194   C     0.33596   0.12300   0.49642   0.00000  Uiso   1.00
C195   C     0.40361   0.09610   0.45765   0.00000  Uiso   1.00
C196   C     0.37544   0.07141   0.36400   0.00000  Uiso   1.00
C197   C     0.36545   0.02489   0.21530   0.00000  Uiso   1.00
C198   C     0.18115   0.15676   0.49994   0.00000  Uiso   1.00
C199   C     0.17783   0.14855   0.63764   0.00000  Uiso   1.00
C200   C     0.09437   0.14355   0.70728   0.00000  Uiso   1.00
C201   C     0.10671   0.13628   0.83186   0.00000  Uiso   1.00
C202   C     0.23887   0.19382   0.48543   0.00000  Uiso   1.00
C203   C     0.20673   0.22687   0.42709   0.00000  Uiso   1.00
C204   C     0.27045   0.25771   0.42352   0.00000  Uiso   1.00
C205   C     0.24345   0.12518   0.44351   0.00000  Uiso   1.00
C206   C     0.21517   0.10054   0.34989   0.00000  Uiso   1.00
C207   C     0.28277   0.07360   0.31100   0.00000  Uiso   1.00
H208   H     0.42349   0.15106   0.63854   0.00000  Uiso   1.00
H209   H     0.35441   0.13743   0.85596   0.00000  Uiso   1.00
H210   H     0.46675   0.22073   0.57580   0.00000  Uiso   1.00
H211   H     0.47519   0.09442   0.49862   0.00000  Uiso   1.00
H212   H     0.23703   0.12329   0.07369   0.00000  Uiso   1.00
H213   H     0.47392   0.29894   0.48292   0.00000  Uiso   1.00
H214   H     0.49173   0.03259   0.32016   0.00000  Uiso   1.00
H215   H     0.10913   0.15846   0.45875   0.00000  Uiso   1.00
H216   H     0.02279   0.14524   0.66631   0.00000  Uiso   1.00
H217   H     0.13514   0.22855   0.38615   0.00000  Uiso   1.00
H218   H     0.14358   0.10223   0.30897   0.00000  Uiso   1.00
H219   H     0.96788   0.12963   0.91976   0.00000  Uiso   1.00
H220   H     0.20478   0.30528   0.32898   0.00000  Uiso   1.00
H221   H     0.22257   0.03893   0.16623   0.00000  Uiso   1.00
O222   O     0.05133   0.11764   0.13651   0.00000  Uiso   1.00
O223   O     0.36214   0.34809   0.36142   0.00000  Uiso   1.00
O224   O     0.38549   0.99863   0.14790   0.00000  Uiso   1.00
N225   N     0.18553   0.12659   0.00897   0.00000  Uiso   1.00
N226   N     0.40701   0.29082   0.45665   0.00000  Uiso   1.00
N227   N     0.42366   0.04180   0.30447   0.00000  Uiso   1.00
N228   N     0.04070   0.13000   0.92614   0.00000  Uiso   1.00
N229   N     0.26218   0.29423   0.37382   0.00000  Uiso   1.00
N230   N     0.27883   0.04521   0.22164   0.00000  Uiso   1.00
C231   C     0.14853   0.84725   0.59735   0.00000  Uiso   1.00
C232   C     0.22966   0.85363   0.69055   0.00000  Uiso   1.00
C233   C     0.21719   0.86089   0.81505   0.00000  Uiso   1.00
C234   C     0.30061   0.86590   0.88486   0.00000  Uiso   1.00
C235   C     0.41250   0.87612   0.03763   0.00000  Uiso   1.00
C236   C     0.16862   0.80837   0.53834   0.00000  Uiso   1.00
C237   C     0.10483   0.77757   0.53486   0.00000  Uiso   1.00
C238   C     0.13687   0.74448   0.47653   0.00000  Uiso   1.00
C239   C     0.15398   0.68443   0.39291   0.00000  Uiso   1.00
C240   C     0.16404   0.87700   0.49642   0.00000  Uiso   1.00
C241   C     0.09639   0.90390   0.45765   0.00000  Uiso   1.00
C242   C     0.12456   0.92859   0.36400   0.00000  Uiso   1.00
C243   C     0.13455   0.97511   0.21530   0.00000  Uiso   1.00
C244   C     0.31885   0.84324   0.49994   0.00000  Uiso   1.00
C245   C     0.32217   0.85145   0.63764   0.00000  Uiso   1.00
C246   C     0.40563   0.85645   0.70728   0.00000  Uiso   1.00
C247   C     0.39329   0.86372   0.83186   0.00000  Uiso   1.00
C248   C     0.26113   0.80618   0.48543   0.00000  Uiso   1.00
C249   C     0.29327   0.77313   0.42709   0.00000  Uiso   1.00
C250   C     0.22955   0.74229   0.42352   0.00000  Uiso   1.00
C251   C     0.25655   0.87482   0.44351   0.00000  Uiso   1.00
C252   C     0.28483   0.89946   0.34989   0.00000  Uiso   1.00
C253   C     0.21723   0.92640   0.31100   0.00000  Uiso   1.00
H254   H     0.07651   0.84894   0.63854   0.00000  Uiso   1.00
H255   H     0.14559   0.86257   0.85596   0.00000  Uiso   1.00
H256   H     0.03325   0.77927   0.57580   0.00000  Uiso   1.00
H257   H     0.02481   0.90558   0.49862   0.00000  Uiso   1.00
H258   H     0.26297   0.87671   0.07369   0.00000  Uiso   1.00
H259   H     0.02608   0.70106   0.48292   0.00000  Uiso   1.00
H260   H     0.00827   0.96741   0.32016   0.00000  Uiso   1.00
H261   H     0.39087   0.84154   0.45875   0.00000  Uiso   1.00
H262   H     0.47721   0.85476   0.66631   0.00000  Uiso   1.00
H263   H     0.36486   0.77145   0.38615   0.00000  Uiso   1.00
H264   H     0.35642   0.89777   0.30897   0.00000  Uiso   1.00
H265   H     0.53212   0.87037   0.91976   0.00000  Uiso   1.00
H266   H     0.29522   0.69472   0.32898   0.00000  Uiso   1.00
H267   H     0.27743   0.96107   0.16623   0.00000  Uiso   1.00
O268   O     0.44867   0.88236   0.13651   0.00000  Uiso   1.00
O269   O     0.13786   0.65191   0.36142   0.00000  Uiso   1.00
O270   O     0.11451   0.00137   0.14790   0.00000  Uiso   1.00
N271   N     0.31447   0.87341   0.00897   0.00000  Uiso   1.00
N272   N     0.09299   0.70918   0.45665   0.00000  Uiso   1.00
N273   N     0.07634   0.95820   0.30447   0.00000  Uiso   1.00
N274   N     0.45930   0.87000   0.92614   0.00000  Uiso   1.00
N275   N     0.23782   0.70577   0.37382   0.00000  Uiso   1.00
N276   N     0.22117   0.95479   0.22164   0.00000  Uiso   1.00
C277   C     0.14853   0.65275   0.90265   0.00000  Uiso   1.00
C278   C     0.22966   0.64637   0.80945   0.00000  Uiso   1.00
C279   C     0.21719   0.63911   0.68495   0.00000  Uiso   1.00
C280   C     0.30061   0.63410   0.61514   0.00000  Uiso   1.00
C281   C     0.41250   0.62388   0.46237   0.00000  Uiso   1.00
C282   C     0.16862   0.69163   0.96166   0.00000  Uiso   1.00
C283   C     0.10483   0.72243   0.96514   0.00000  Uiso   1.00
C284   C     0.13687   0.75552   0.02347   0.00000  Uiso   1.00
C285   C     0.15398   0.81557   0.10709   0.00000  Uiso   1.00
C286   C     0.16404   0.62300   0.00358   0.00000  Uiso   1.00
C287   C     0.09639   0.59610   0.04235   0.00000  Uiso   1.00
C288   C     0.12456   0.57141   0.13600   0.00000  Uiso   1.00
C289   C     0.13455   0.52489   0.28470   0.00000  Uiso   1.00
C290   C     0.31885   0.65676   0.00006   0.00000  Uiso   1.00
C291   C     0.32217   0.64855   0.86236   0.00000  Uiso   1.00
C292   C     0.40563   0.64355   0.79272   0.00000  Uiso   1.00
C293   C     0.39329   0.63628   0.66814   0.00000  Uiso   1.00
C294   C     0.26113   0.69382   0.01457   0.00000  Uiso   1.00
C295   C     0.29327   0.72687   0.07291   0.00000  Uiso   1.00
C296   C     0.22955   0.75771   0.07648   0.00000  Uiso   1.00
C297   C     0.25655   0.62518   0.05649   0.00000  Uiso   1.00
C298   C     0.28483   0.60054   0.15011   0.00000  Uiso   1.00
C299   C     0.21723   0.57360   0.18900   0.00000  Uiso   1.00
H300   H     0.07651   0.65106   0.86146   0.00000  Uiso   1.00
H301   H     0.14559   0.63743   0.64404   0.00000  Uiso   1.00
H302   H     0.03325   0.72073   0.92420   0.00000  Uiso   1.00
H303   H     0.02481   0.59442   0.00138   0.00000  Uiso   1.00
H304   H     0.26297   0.62329   0.42631   0.00000  Uiso   1.00
H305   H     0.02608   0.79894   0.01708   0.00000  Uiso   1.00
H306   H     0.00827   0.53259   0.17984   0.00000  Uiso   1.00
H307   H     0.39087   0.65846   0.04125   0.00000  Uiso   1.00
H308   H     0.47721   0.64524   0.83369   0.00000  Uiso   1.00
H309   H     0.36486   0.72855   0.11385   0.00000  Uiso   1.00
H310   H     0.35642   0.60223   0.19103   0.00000  Uiso   1.00
H311   H     0.53212   0.62963   0.58024   0.00000  Uiso   1.00
H312   H     0.29522   0.80528   0.17102   0.00000  Uiso   1.00
H313   H     0.27743   0.53893   0.33377   0.00000  Uiso   1.00
O314   O     0.44867   0.61764   0.36349   0.00000  Uiso   1.00
O315   O     0.13786   0.84809   0.13858   0.00000  Uiso   1.00
O316   O     0.11451   0.49863   0.35210   0.00000  Uiso   1.00
N317   N     0.31447   0.62659   0.49103   0.00000  Uiso   1.00
N318   N     0.09299   0.79082   0.04335   0.00000  Uiso   1.00
N319   N     0.07634   0.54180   0.19553   0.00000  Uiso   1.00
N320   N     0.45930   0.63000   0.57386   0.00000  Uiso   1.00
N321   N     0.23782   0.79423   0.12618   0.00000  Uiso   1.00
N322   N     0.22117   0.54521   0.27836   0.00000  Uiso   1.00
C323   C     0.35147   0.34725   0.90265   0.00000  Uiso   1.00
C324   C     0.27034   0.35363   0.80945   0.00000  Uiso   1.00
C325   C     0.28281   0.36089   0.68495   0.00000  Uiso   1.00
C326   C     0.19939   0.36590   0.61514   0.00000  Uiso   1.00
C327   C     0.08750   0.37612   0.46237   0.00000  Uiso   1.00
C328   C     0.33138   0.30837   0.96166   0.00000  Uiso   1.00
C329   C     0.39517   0.27757   0.96514   0.00000  Uiso   1.00
C330   C     0.36313   0.24448   0.02347   0.00000  Uiso   1.00
C331   C     0.34602   0.18443   0.10709   0.00000  Uiso   1.00
C332   C     0.33596   0.37700   0.00358   0.00000  Uiso   1.00
C333   C     0.40361   0.40390   0.04235   0.00000  Uiso   1.00
C334   C     0.37544   0.42859   0.13600   0.00000  Uiso   1.00
C335   C     0.36545   0.47511   0.28470   0.00000  Uiso   1.00
C336   C     0.18115   0.34324   0.00006   0.00000  Uiso   1.00
C337   C     0.17783   0.35145   0.86236   0.00000  Uiso   1.00
C338   C     0.09437   0.35645   0.79272   0.00000  Uiso   1.00
C339   C     0.10671   0.36372   0.66814   0.00000  Uiso   1.00
C340   C     0.23887   0.30618   0.01457   0.00000  Uiso   1.00
C341   C     0.20673   0.27313   0.07291   0.00000  Uiso   1.00
C342   C     0.27045   0.24229   0.07648   0.00000  Uiso   1.00
C343   C     0.24345   0.37482   0.05649   0.00000  Uiso   1.00
C344   C     0.21517   0.39946   0.15011   0.00000  Uiso   1.00
C345   C     0.28277   0.42640   0.18900   0.00000  Uiso   1.00
H346   H     0.42349   0.34894   0.86146   0.00000  Uiso   1.00
H347   H     0.35441   0.36257   0.64404   0.00000  Uiso   1.00
H348   H     0.46675   0.27927   0.92420   0.00000  Uiso   1.00
H349   H     0.47519   0.40558   0.00138   0.00000  Uiso   1.00
H350   H     0.23703   0.37671   0.42631   0.00000  Uiso   1.00
H351   H     0.47392   0.20106   0.01708   0.00000  Uiso   1.00
H352   H     0.49173   0.46741   0.17984   0.00000  Uiso   1.00
H353   H     0.10913   0.34154   0.04125   0.00000  Uiso   1.00
H354   H     0.02279   0.35476   0.83369   0.00000  Uiso   1.00
H355   H     0.13514   0.27145   0.11385   0.00000  Uiso   1.00
H356   H     0.14358   0.39777   0.19103   0.00000  Uiso   1.00
H357   H     0.96788   0.37037   0.58024   0.00000  Uiso   1.00
H358   H     0.20478   0.19472   0.17102   0.00000  Uiso   1.00
H359   H     0.22257   0.46107   0.33377   0.00000  Uiso   1.00
O360   O     0.05133   0.38236   0.36349   0.00000  Uiso   1.00
O361   O     0.36214   0.15191   0.13858   0.00000  Uiso   1.00
O362   O     0.38549   0.50137   0.35210   0.00000  Uiso   1.00
N363   N     0.18553   0.37341   0.49103   0.00000  Uiso   1.00
N364   N     0.40701   0.20918   0.04335   0.00000  Uiso   1.00
N365   N     0.42366   0.45820   0.19553   0.00000  Uiso   1.00
N366   N     0.04070   0.37000   0.57386   0.00000  Uiso   1.00
N367   N     0.26218   0.20577   0.12618   0.00000  Uiso   1.00
N368   N     0.27883   0.45479   0.27836   0.00000  Uiso   1.00
