data_job_00118
_audit_creation_date              2018-12-19
_audit_creation_method            'Materials Studio'
_symmetry_space_group_name_H-M    'P1'
_symmetry_Int_Tables_number       1
_symmetry_cell_setting            triclinic
loop_
_symmetry_equiv_pos_as_xyz
  x,y,z
_cell_length_a                    21.9462
_cell_length_b                    11.6985
_cell_length_c                    24.4412
_cell_angle_alpha                 90.0000
_cell_angle_beta                  138.9236
_cell_angle_gamma                 90.0000
loop_
_atom_site_label
_atom_site_type_symbol
_atom_site_fract_x
_atom_site_fract_y
_atom_site_fract_z
_atom_site_U_iso_or_equiv
_atom_site_adp_type
_atom_site_occupancy
C1     C     0.64711   0.49040   0.30304   0.00000  Uiso   1.00
C2     C     0.64511   0.36492   0.31854   0.00000  Uiso   1.00
C3     C     0.63655   0.32429   0.36585   0.00000  Uiso   1.00
C4     C     0.63614   0.20649   0.37246   0.00000  Uiso   1.00
C5     C     0.63179   0.02296   0.40247   0.00000  Uiso   1.00
C6     C     0.56900   0.50540   0.20873   0.00000  Uiso   1.00
C7     C     0.49646   0.58290   0.16371   0.00000  Uiso   1.00
C8     C     0.43199   0.58335   0.07788   0.00000  Uiso   1.00
C9     C     0.30952   0.61798   0.93742   0.00000  Uiso   1.00
C10    C     0.73714   0.50703   0.33223   0.00000  Uiso   1.00
C11    C     0.80596   0.58592   0.39105   0.00000  Uiso   1.00
C12    C     0.88304   0.58777   0.40919   0.00000  Uiso   1.00
C13    C     0.02163   0.62494   0.46049   0.00000  Uiso   1.00
C14    C     0.66161   0.35344   0.23065   0.00000  Uiso   1.00
C15    C     0.65298   0.29053   0.27922   0.00000  Uiso   1.00
C16    C     0.65259   0.17276   0.28576   0.00000  Uiso   1.00
C17    C     0.64403   0.13196   0.33307   0.00000  Uiso   1.00
C18    C     0.57688   0.43101   0.16941   0.00000  Uiso   1.00
C19    C     0.51250   0.43136   0.08362   0.00000  Uiso   1.00
C20    C     0.43988   0.50883   0.03849   0.00000  Uiso   1.00
C21    C     0.74502   0.43264   0.29292   0.00000  Uiso   1.00
C22    C     0.82200   0.43438   0.31096   0.00000  Uiso   1.00
C23    C     0.89093   0.51325   0.36980   0.00000  Uiso   1.00
H24    H     0.64098   0.54833   0.33364   0.00000  Uiso   1.00
H25    H     0.63045   0.38190   0.39626   0.00000  Uiso   1.00
H26    H     0.49039   0.64046   0.19416   0.00000  Uiso   1.00
H27    H     0.79984   0.64348   0.42146   0.00000  Uiso   1.00
H28    H     0.62222   0.16457   0.44832   0.00000  Uiso   1.00
H29    H     0.32691   0.70979   0.02218   0.00000  Uiso   1.00
H30    H     0.97946   0.71617   0.50150   0.00000  Uiso   1.00
H31    H     0.66774   0.29552   0.20003   0.00000  Uiso   1.00
H32    H     0.65868   0.11521   0.25533   0.00000  Uiso   1.00
H33    H     0.51862   0.37378   0.05322   0.00000  Uiso   1.00
H34    H     0.82807   0.37680   0.28053   0.00000  Uiso   1.00
H35    H     0.64513   0.94811   0.33393   0.00000  Uiso   1.00
H36    H     0.34982   0.49335   0.90778   0.00000  Uiso   1.00
H37    H     0.00237   0.49971   0.38710   0.00000  Uiso   1.00
O38    O     0.62720   0.94229   0.42988   0.00000  Uiso   1.00
O39    O     0.23979   0.65762   0.87080   0.00000  Uiso   1.00
O40    O     0.09591   0.66597   0.49966   0.00000  Uiso   1.00
N41    N     0.62887   0.13837   0.41382   0.00000  Uiso   1.00
N42    N     0.35277   0.64811   0.01540   0.00000  Uiso   1.00
N43    N     0.96283   0.65409   0.46351   0.00000  Uiso   1.00
N44    N     0.64120   0.02190   0.35227   0.00000  Uiso   1.00
N45    N     0.36510   0.53164   0.95385   0.00000  Uiso   1.00
N46    N     0.97516   0.53762   0.40196   0.00000  Uiso   1.00
C47    C     0.14711   0.99040   0.30304   0.00000  Uiso   1.00
C48    C     0.14511   0.86492   0.31854   0.00000  Uiso   1.00
C49    C     0.13655   0.82429   0.36585   0.00000  Uiso   1.00
C50    C     0.13614   0.70649   0.37246   0.00000  Uiso   1.00
C51    C     0.13179   0.52296   0.40247   0.00000  Uiso   1.00
C52    C     0.06900   0.00540   0.20873   0.00000  Uiso   1.00
C53    C     0.99646   0.08290   0.16371   0.00000  Uiso   1.00
C54    C     0.93199   0.08335   0.07788   0.00000  Uiso   1.00
C55    C     0.80952   0.11798   0.93742   0.00000  Uiso   1.00
C56    C     0.23714   0.00703   0.33223   0.00000  Uiso   1.00
C57    C     0.30596   0.08592   0.39105   0.00000  Uiso   1.00
C58    C     0.38304   0.08777   0.40919   0.00000  Uiso   1.00
C59    C     0.52163   0.12494   0.46049   0.00000  Uiso   1.00
C60    C     0.16161   0.85344   0.23065   0.00000  Uiso   1.00
C61    C     0.15298   0.79053   0.27922   0.00000  Uiso   1.00
C62    C     0.15259   0.67276   0.28576   0.00000  Uiso   1.00
C63    C     0.14403   0.63196   0.33307   0.00000  Uiso   1.00
C64    C     0.07688   0.93101   0.16941   0.00000  Uiso   1.00
C65    C     0.01250   0.93136   0.08362   0.00000  Uiso   1.00
C66    C     0.93988   0.00883   0.03849   0.00000  Uiso   1.00
C67    C     0.24502   0.93264   0.29292   0.00000  Uiso   1.00
C68    C     0.32200   0.93438   0.31096   0.00000  Uiso   1.00
C69    C     0.39093   0.01325   0.36980   0.00000  Uiso   1.00
H70    H     0.14098   0.04833   0.33364   0.00000  Uiso   1.00
H71    H     0.13045   0.88190   0.39626   0.00000  Uiso   1.00
H72    H     0.99039   0.14046   0.19416   0.00000  Uiso   1.00
H73    H     0.29984   0.14348   0.42146   0.00000  Uiso   1.00
H74    H     0.12222   0.66457   0.44832   0.00000  Uiso   1.00
H75    H     0.82691   0.20979   0.02218   0.00000  Uiso   1.00
H76    H     0.47946   0.21617   0.50150   0.00000  Uiso   1.00
H77    H     0.16774   0.79552   0.20003   0.00000  Uiso   1.00
H78    H     0.15868   0.61521   0.25533   0.00000  Uiso   1.00
H79    H     0.01862   0.87378   0.05322   0.00000  Uiso   1.00
H80    H     0.32807   0.87680   0.28053   0.00000  Uiso   1.00
H81    H     0.14513   0.44811   0.33393   0.00000  Uiso   1.00
H82    H     0.84982   0.99335   0.90778   0.00000  Uiso   1.00
H83    H     0.50237   0.99971   0.38710   0.00000  Uiso   1.00
O84    O     0.12720   0.44229   0.42988   0.00000  Uiso   1.00
O85    O     0.73979   0.15762   0.87080   0.00000  Uiso   1.00
O86    O     0.59591   0.16597   0.49966   0.00000  Uiso   1.00
N87    N     0.12887   0.63837   0.41382   0.00000  Uiso   1.00
N88    N     0.85277   0.14811   0.01540   0.00000  Uiso   1.00
N89    N     0.46283   0.15409   0.46351   0.00000  Uiso   1.00
N90    N     0.14120   0.52190   0.35227   0.00000  Uiso   1.00
N91    N     0.86510   0.03164   0.95385   0.00000  Uiso   1.00
N92    N     0.47516   0.03762   0.40196   0.00000  Uiso   1.00
C93    C     0.35289   0.49040   0.19696   0.00000  Uiso   1.00
C94    C     0.35489   0.36492   0.18146   0.00000  Uiso   1.00
C95    C     0.36345   0.32429   0.13415   0.00000  Uiso   1.00
C96    C     0.36386   0.20649   0.12754   0.00000  Uiso   1.00
C97    C     0.36821   0.02296   0.09753   0.00000  Uiso   1.00
C98    C     0.43100   0.50540   0.29127   0.00000  Uiso   1.00
C99    C     0.50354   0.58290   0.33629   0.00000  Uiso   1.00
C100   C     0.56801   0.58335   0.42212   0.00000  Uiso   1.00
C101   C     0.69048   0.61798   0.56258   0.00000  Uiso   1.00
C102   C     0.26286   0.50703   0.16777   0.00000  Uiso   1.00
C103   C     0.19404   0.58592   0.10895   0.00000  Uiso   1.00
C104   C     0.11696   0.58777   0.09081   0.00000  Uiso   1.00
C105   C     0.97837   0.62494   0.03951   0.00000  Uiso   1.00
C106   C     0.33839   0.35344   0.26935   0.00000  Uiso   1.00
C107   C     0.34702   0.29053   0.22078   0.00000  Uiso   1.00
C108   C     0.34741   0.17276   0.21424   0.00000  Uiso   1.00
C109   C     0.35597   0.13196   0.16693   0.00000  Uiso   1.00
C110   C     0.42312   0.43101   0.33059   0.00000  Uiso   1.00
C111   C     0.48750   0.43136   0.41638   0.00000  Uiso   1.00
C112   C     0.56012   0.50883   0.46151   0.00000  Uiso   1.00
C113   C     0.25498   0.43264   0.20708   0.00000  Uiso   1.00
C114   C     0.17800   0.43438   0.18904   0.00000  Uiso   1.00
C115   C     0.10907   0.51325   0.13020   0.00000  Uiso   1.00
H116   H     0.35902   0.54833   0.16636   0.00000  Uiso   1.00
H117   H     0.36955   0.38190   0.10374   0.00000  Uiso   1.00
H118   H     0.50961   0.64046   0.30584   0.00000  Uiso   1.00
H119   H     0.20016   0.64348   0.07854   0.00000  Uiso   1.00
H120   H     0.37778   0.16457   0.05168   0.00000  Uiso   1.00
H121   H     0.67309   0.70979   0.47782   0.00000  Uiso   1.00
H122   H     0.02054   0.71617   0.99850   0.00000  Uiso   1.00
H123   H     0.33226   0.29552   0.29997   0.00000  Uiso   1.00
H124   H     0.34132   0.11521   0.24467   0.00000  Uiso   1.00
H125   H     0.48138   0.37378   0.44678   0.00000  Uiso   1.00
H126   H     0.17193   0.37680   0.21947   0.00000  Uiso   1.00
H127   H     0.35487   0.94811   0.16607   0.00000  Uiso   1.00
H128   H     0.65018   0.49335   0.59222   0.00000  Uiso   1.00
H129   H     0.99763   0.49971   0.11290   0.00000  Uiso   1.00
O130   O     0.37280   0.94229   0.07012   0.00000  Uiso   1.00
O131   O     0.76021   0.65762   0.62920   0.00000  Uiso   1.00
O132   O     0.90409   0.66597   0.00034   0.00000  Uiso   1.00
N133   N     0.37113   0.13837   0.08618   0.00000  Uiso   1.00
N134   N     0.64723   0.64811   0.48460   0.00000  Uiso   1.00
N135   N     0.03717   0.65409   0.03649   0.00000  Uiso   1.00
N136   N     0.35880   0.02190   0.14773   0.00000  Uiso   1.00
N137   N     0.63490   0.53164   0.54615   0.00000  Uiso   1.00
N138   N     0.02484   0.53762   0.09804   0.00000  Uiso   1.00
C139   C     0.85289   0.99040   0.19696   0.00000  Uiso   1.00
C140   C     0.85489   0.86492   0.18146   0.00000  Uiso   1.00
C141   C     0.86345   0.82429   0.13415   0.00000  Uiso   1.00
C142   C     0.86386   0.70649   0.12754   0.00000  Uiso   1.00
C143   C     0.86821   0.52296   0.09753   0.00000  Uiso   1.00
C144   C     0.93100   0.00540   0.29127   0.00000  Uiso   1.00
C145   C     0.00354   0.08290   0.33629   0.00000  Uiso   1.00
C146   C     0.06801   0.08335   0.42212   0.00000  Uiso   1.00
C147   C     0.19048   0.11798   0.56258   0.00000  Uiso   1.00
C148   C     0.76286   0.00703   0.16777   0.00000  Uiso   1.00
C149   C     0.69404   0.08592   0.10895   0.00000  Uiso   1.00
C150   C     0.61696   0.08777   0.09081   0.00000  Uiso   1.00
C151   C     0.47837   0.12494   0.03951   0.00000  Uiso   1.00
C152   C     0.83839   0.85344   0.26935   0.00000  Uiso   1.00
C153   C     0.84702   0.79053   0.22078   0.00000  Uiso   1.00
C154   C     0.84741   0.67276   0.21424   0.00000  Uiso   1.00
C155   C     0.85597   0.63196   0.16693   0.00000  Uiso   1.00
C156   C     0.92312   0.93101   0.33059   0.00000  Uiso   1.00
C157   C     0.98750   0.93136   0.41638   0.00000  Uiso   1.00
C158   C     0.06012   0.00883   0.46151   0.00000  Uiso   1.00
C159   C     0.75498   0.93264   0.20708   0.00000  Uiso   1.00
C160   C     0.67800   0.93438   0.18904   0.00000  Uiso   1.00
C161   C     0.60907   0.01325   0.13020   0.00000  Uiso   1.00
H162   H     0.85902   0.04833   0.16636   0.00000  Uiso   1.00
H163   H     0.86955   0.88190   0.10374   0.00000  Uiso   1.00
H164   H     0.00961   0.14046   0.30584   0.00000  Uiso   1.00
H165   H     0.70016   0.14348   0.07854   0.00000  Uiso   1.00
H166   H     0.87778   0.66457   0.05168   0.00000  Uiso   1.00
H167   H     0.17309   0.20979   0.47782   0.00000  Uiso   1.00
H168   H     0.52054   0.21617   0.99850   0.00000  Uiso   1.00
H169   H     0.83226   0.79552   0.29997   0.00000  Uiso   1.00
H170   H     0.84132   0.61521   0.24467   0.00000  Uiso   1.00
H171   H     0.98138   0.87378   0.44678   0.00000  Uiso   1.00
H172   H     0.67193   0.87680   0.21947   0.00000  Uiso   1.00
H173   H     0.85487   0.44811   0.16607   0.00000  Uiso   1.00
H174   H     0.15018   0.99335   0.59222   0.00000  Uiso   1.00
H175   H     0.49763   0.99971   0.11290   0.00000  Uiso   1.00
O176   O     0.87280   0.44229   0.07012   0.00000  Uiso   1.00
O177   O     0.26021   0.15762   0.62920   0.00000  Uiso   1.00
O178   O     0.40409   0.16597   0.00034   0.00000  Uiso   1.00
N179   N     0.87113   0.63837   0.08618   0.00000  Uiso   1.00
N180   N     0.14723   0.14811   0.48460   0.00000  Uiso   1.00
N181   N     0.53717   0.15409   0.03649   0.00000  Uiso   1.00
N182   N     0.85880   0.52190   0.14773   0.00000  Uiso   1.00
N183   N     0.13490   0.03164   0.54615   0.00000  Uiso   1.00
N184   N     0.52484   0.03762   0.09804   0.00000  Uiso   1.00
C185   C     0.35289   0.50960   0.69696   0.00000  Uiso   1.00
C186   C     0.35489   0.63508   0.68146   0.00000  Uiso   1.00
C187   C     0.36345   0.67571   0.63415   0.00000  Uiso   1.00
C188   C     0.36386   0.79351   0.62754   0.00000  Uiso   1.00
C189   C     0.36821   0.97704   0.59753   0.00000  Uiso   1.00
C190   C     0.43100   0.49460   0.79127   0.00000  Uiso   1.00
C191   C     0.50354   0.41710   0.83629   0.00000  Uiso   1.00
C192   C     0.56801   0.41665   0.92212   0.00000  Uiso   1.00
C193   C     0.69048   0.38202   0.06258   0.00000  Uiso   1.00
C194   C     0.26286   0.49297   0.66777   0.00000  Uiso   1.00
C195   C     0.19404   0.41408   0.60895   0.00000  Uiso   1.00
C196   C     0.11696   0.41223   0.59081   0.00000  Uiso   1.00
C197   C     0.97837   0.37506   0.53951   0.00000  Uiso   1.00
C198   C     0.33839   0.64656   0.76935   0.00000  Uiso   1.00
C199   C     0.34702   0.70947   0.72078   0.00000  Uiso   1.00
C200   C     0.34741   0.82724   0.71424   0.00000  Uiso   1.00
C201   C     0.35597   0.86804   0.66693   0.00000  Uiso   1.00
C202   C     0.42312   0.56899   0.83059   0.00000  Uiso   1.00
C203   C     0.48750   0.56864   0.91638   0.00000  Uiso   1.00
C204   C     0.56012   0.49117   0.96151   0.00000  Uiso   1.00
C205   C     0.25498   0.56736   0.70708   0.00000  Uiso   1.00
C206   C     0.17800   0.56562   0.68904   0.00000  Uiso   1.00
C207   C     0.10907   0.48675   0.63020   0.00000  Uiso   1.00
H208   H     0.35902   0.45167   0.66636   0.00000  Uiso   1.00
H209   H     0.36955   0.61810   0.60374   0.00000  Uiso   1.00
H210   H     0.50961   0.35954   0.80584   0.00000  Uiso   1.00
H211   H     0.20016   0.35652   0.57854   0.00000  Uiso   1.00
H212   H     0.37778   0.83543   0.55168   0.00000  Uiso   1.00
H213   H     0.67309   0.29021   0.97782   0.00000  Uiso   1.00
H214   H     0.02054   0.28383   0.49850   0.00000  Uiso   1.00
H215   H     0.33226   0.70448   0.79997   0.00000  Uiso   1.00
H216   H     0.34132   0.88479   0.74467   0.00000  Uiso   1.00
H217   H     0.48138   0.62622   0.94678   0.00000  Uiso   1.00
H218   H     0.17193   0.62320   0.71947   0.00000  Uiso   1.00
H219   H     0.35487   0.05189   0.66607   0.00000  Uiso   1.00
H220   H     0.65018   0.50665   0.09222   0.00000  Uiso   1.00
H221   H     0.99763   0.50029   0.61290   0.00000  Uiso   1.00
O222   O     0.37280   0.05771   0.57012   0.00000  Uiso   1.00
O223   O     0.76021   0.34238   0.12920   0.00000  Uiso   1.00
O224   O     0.90409   0.33403   0.50034   0.00000  Uiso   1.00
N225   N     0.37113   0.86163   0.58618   0.00000  Uiso   1.00
N226   N     0.64723   0.35189   0.98460   0.00000  Uiso   1.00
N227   N     0.03717   0.34591   0.53649   0.00000  Uiso   1.00
N228   N     0.35880   0.97810   0.64773   0.00000  Uiso   1.00
N229   N     0.63490   0.46836   0.04615   0.00000  Uiso   1.00
N230   N     0.02484   0.46238   0.59804   0.00000  Uiso   1.00
C231   C     0.85289   0.00960   0.69696   0.00000  Uiso   1.00
C232   C     0.85489   0.13508   0.68146   0.00000  Uiso   1.00
C233   C     0.86345   0.17571   0.63415   0.00000  Uiso   1.00
C234   C     0.86386   0.29351   0.62754   0.00000  Uiso   1.00
C235   C     0.86821   0.47704   0.59753   0.00000  Uiso   1.00
C236   C     0.93100   0.99460   0.79127   0.00000  Uiso   1.00
C237   C     0.00354   0.91710   0.83629   0.00000  Uiso   1.00
C238   C     0.06801   0.91665   0.92212   0.00000  Uiso   1.00
C239   C     0.19048   0.88202   0.06258   0.00000  Uiso   1.00
C240   C     0.76286   0.99297   0.66777   0.00000  Uiso   1.00
C241   C     0.69404   0.91408   0.60895   0.00000  Uiso   1.00
C242   C     0.61696   0.91223   0.59081   0.00000  Uiso   1.00
C243   C     0.47837   0.87506   0.53951   0.00000  Uiso   1.00
C244   C     0.83839   0.14656   0.76935   0.00000  Uiso   1.00
C245   C     0.84702   0.20947   0.72078   0.00000  Uiso   1.00
C246   C     0.84741   0.32724   0.71424   0.00000  Uiso   1.00
C247   C     0.85597   0.36804   0.66693   0.00000  Uiso   1.00
C248   C     0.92312   0.06899   0.83059   0.00000  Uiso   1.00
C249   C     0.98750   0.06864   0.91638   0.00000  Uiso   1.00
C250   C     0.06012   0.99117   0.96151   0.00000  Uiso   1.00
C251   C     0.75498   0.06736   0.70708   0.00000  Uiso   1.00
C252   C     0.67800   0.06562   0.68904   0.00000  Uiso   1.00
C253   C     0.60907   0.98675   0.63020   0.00000  Uiso   1.00
H254   H     0.85902   0.95167   0.66636   0.00000  Uiso   1.00
H255   H     0.86955   0.11810   0.60374   0.00000  Uiso   1.00
H256   H     0.00961   0.85954   0.80584   0.00000  Uiso   1.00
H257   H     0.70016   0.85652   0.57854   0.00000  Uiso   1.00
H258   H     0.87778   0.33543   0.55168   0.00000  Uiso   1.00
H259   H     0.17309   0.79021   0.97782   0.00000  Uiso   1.00
H260   H     0.52054   0.78383   0.49850   0.00000  Uiso   1.00
H261   H     0.83226   0.20448   0.79997   0.00000  Uiso   1.00
H262   H     0.84132   0.38479   0.74467   0.00000  Uiso   1.00
H263   H     0.98138   0.12622   0.94678   0.00000  Uiso   1.00
H264   H     0.67193   0.12320   0.71947   0.00000  Uiso   1.00
H265   H     0.85487   0.55189   0.66607   0.00000  Uiso   1.00
H266   H     0.15018   0.00665   0.09222   0.00000  Uiso   1.00
H267   H     0.49763   0.00029   0.61290   0.00000  Uiso   1.00
O268   O     0.87280   0.55771   0.57012   0.00000  Uiso   1.00
O269   O     0.26021   0.84238   0.12920   0.00000  Uiso   1.00
O270   O     0.40409   0.83403   0.50034   0.00000  Uiso   1.00
N271   N     0.87113   0.36163   0.58618   0.00000  Uiso   1.00
N272   N     0.14723   0.85189   0.98460   0.00000  Uiso   1.00
N273   N     0.53717   0.84591   0.53649   0.00000  Uiso   1.00
N274   N     0.85880   0.47810   0.64773   0.00000  Uiso   1.00
N275   N     0.13490   0.96836   0.04615   0.00000  Uiso   1.00
N276   N     0.52484   0.96238   0.59804   0.00000  Uiso   1.00
C277   C     0.64711   0.50960   0.80304   0.00000  Uiso   1.00
C278   C     0.64511   0.63508   0.81854   0.00000  Uiso   1.00
C279   C     0.63655   0.67571   0.86585   0.00000  Uiso   1.00
C280   C     0.63614   0.79351   0.87246   0.00000  Uiso   1.00
C281   C     0.63179   0.97704   0.90247   0.00000  Uiso   1.00
C282   C     0.56900   0.49460   0.70873   0.00000  Uiso   1.00
C283   C     0.49646   0.41710   0.66371   0.00000  Uiso   1.00
C284   C     0.43199   0.41665   0.57788   0.00000  Uiso   1.00
C285   C     0.30952   0.38202   0.43742   0.00000  Uiso   1.00
C286   C     0.73714   0.49297   0.83223   0.00000  Uiso   1.00
C287   C     0.80596   0.41408   0.89105   0.00000  Uiso   1.00
C288   C     0.88304   0.41223   0.90919   0.00000  Uiso   1.00
C289   C     0.02163   0.37506   0.96049   0.00000  Uiso   1.00
C290   C     0.66161   0.64656   0.73065   0.00000  Uiso   1.00
C291   C     0.65298   0.70947   0.77922   0.00000  Uiso   1.00
C292   C     0.65259   0.82724   0.78576   0.00000  Uiso   1.00
C293   C     0.64403   0.86804   0.83307   0.00000  Uiso   1.00
C294   C     0.57688   0.56899   0.66941   0.00000  Uiso   1.00
C295   C     0.51250   0.56864   0.58362   0.00000  Uiso   1.00
C296   C     0.43988   0.49117   0.53849   0.00000  Uiso   1.00
C297   C     0.74502   0.56736   0.79292   0.00000  Uiso   1.00
C298   C     0.82200   0.56562   0.81096   0.00000  Uiso   1.00
C299   C     0.89093   0.48675   0.86980   0.00000  Uiso   1.00
H300   H     0.64098   0.45167   0.83364   0.00000  Uiso   1.00
H301   H     0.63045   0.61810   0.89626   0.00000  Uiso   1.00
H302   H     0.49039   0.35954   0.69416   0.00000  Uiso   1.00
H303   H     0.79984   0.35652   0.92146   0.00000  Uiso   1.00
H304   H     0.62222   0.83543   0.94832   0.00000  Uiso   1.00
H305   H     0.32691   0.29021   0.52218   0.00000  Uiso   1.00
H306   H     0.97946   0.28383   0.00150   0.00000  Uiso   1.00
H307   H     0.66774   0.70448   0.70003   0.00000  Uiso   1.00
H308   H     0.65868   0.88479   0.75533   0.00000  Uiso   1.00
H309   H     0.51862   0.62622   0.55322   0.00000  Uiso   1.00
H310   H     0.82807   0.62320   0.78053   0.00000  Uiso   1.00
H311   H     0.64513   0.05189   0.83393   0.00000  Uiso   1.00
H312   H     0.34982   0.50665   0.40778   0.00000  Uiso   1.00
H313   H     0.00237   0.50029   0.88710   0.00000  Uiso   1.00
O314   O     0.62720   0.05771   0.92988   0.00000  Uiso   1.00
O315   O     0.23979   0.34238   0.37080   0.00000  Uiso   1.00
O316   O     0.09591   0.33403   0.99966   0.00000  Uiso   1.00
N317   N     0.62887   0.86163   0.91382   0.00000  Uiso   1.00
N318   N     0.35277   0.35189   0.51540   0.00000  Uiso   1.00
N319   N     0.96283   0.34591   0.96351   0.00000  Uiso   1.00
N320   N     0.64120   0.97810   0.85227   0.00000  Uiso   1.00
N321   N     0.36510   0.46836   0.45385   0.00000  Uiso   1.00
N322   N     0.97516   0.46238   0.90196   0.00000  Uiso   1.00
C323   C     0.14711   0.00960   0.80304   0.00000  Uiso   1.00
C324   C     0.14511   0.13508   0.81854   0.00000  Uiso   1.00
C325   C     0.13655   0.17571   0.86585   0.00000  Uiso   1.00
C326   C     0.13614   0.29351   0.87246   0.00000  Uiso   1.00
C327   C     0.13179   0.47704   0.90247   0.00000  Uiso   1.00
C328   C     0.06900   0.99460   0.70873   0.00000  Uiso   1.00
C329   C     0.99646   0.91710   0.66371   0.00000  Uiso   1.00
C330   C     0.93199   0.91665   0.57788   0.00000  Uiso   1.00
C331   C     0.80952   0.88202   0.43742   0.00000  Uiso   1.00
C332   C     0.23714   0.99297   0.83223   0.00000  Uiso   1.00
C333   C     0.30596   0.91408   0.89105   0.00000  Uiso   1.00
C334   C     0.38304   0.91223   0.90919   0.00000  Uiso   1.00
C335   C     0.52163   0.87506   0.96049   0.00000  Uiso   1.00
C336   C     0.16161   0.14656   0.73065   0.00000  Uiso   1.00
C337   C     0.15298   0.20947   0.77922   0.00000  Uiso   1.00
C338   C     0.15259   0.32724   0.78576   0.00000  Uiso   1.00
C339   C     0.14403   0.36804   0.83307   0.00000  Uiso   1.00
C340   C     0.07688   0.06899   0.66941   0.00000  Uiso   1.00
C341   C     0.01250   0.06864   0.58362   0.00000  Uiso   1.00
C342   C     0.93988   0.99117   0.53849   0.00000  Uiso   1.00
C343   C     0.24502   0.06736   0.79292   0.00000  Uiso   1.00
C344   C     0.32200   0.06562   0.81096   0.00000  Uiso   1.00
C345   C     0.39093   0.98675   0.86980   0.00000  Uiso   1.00
H346   H     0.14098   0.95167   0.83364   0.00000  Uiso   1.00
H347   H     0.13045   0.11810   0.89626   0.00000  Uiso   1.00
H348   H     0.99039   0.85954   0.69416   0.00000  Uiso   1.00
H349   H     0.29984   0.85652   0.92146   0.00000  Uiso   1.00
H350   H     0.12222   0.33543   0.94832   0.00000  Uiso   1.00
H351   H     0.82691   0.79021   0.52218   0.00000  Uiso   1.00
H352   H     0.47946   0.78383   0.00150   0.00000  Uiso   1.00
H353   H     0.16774   0.20448   0.70003   0.00000  Uiso   1.00
H354   H     0.15868   0.38479   0.75533   0.00000  Uiso   1.00
H355   H     0.01862   0.12622   0.55322   0.00000  Uiso   1.00
H356   H     0.32807   0.12320   0.78053   0.00000  Uiso   1.00
H357   H     0.14513   0.55189   0.83393   0.00000  Uiso   1.00
H358   H     0.84982   0.00665   0.40778   0.00000  Uiso   1.00
H359   H     0.50237   0.00029   0.88710   0.00000  Uiso   1.00
O360   O     0.12720   0.55771   0.92988   0.00000  Uiso   1.00
O361   O     0.73979   0.84238   0.37080   0.00000  Uiso   1.00
O362   O     0.59591   0.83403   0.99966   0.00000  Uiso   1.00
N363   N     0.12887   0.36163   0.91382   0.00000  Uiso   1.00
N364   N     0.85277   0.85189   0.51540   0.00000  Uiso   1.00
N365   N     0.46283   0.84591   0.96351   0.00000  Uiso   1.00
N366   N     0.14120   0.47810   0.85227   0.00000  Uiso   1.00
N367   N     0.86510   0.96836   0.45385   0.00000  Uiso   1.00
N368   N     0.47516   0.96238   0.90196   0.00000  Uiso   1.00
