data_job_06593
_audit_creation_date              2018-12-19
_audit_creation_method            'Materials Studio'
_symmetry_space_group_name_H-M    'P1'
_symmetry_Int_Tables_number       1
_symmetry_cell_setting            triclinic
loop_
_symmetry_equiv_pos_as_xyz
  x,y,z
_cell_length_a                    18.6601
_cell_length_b                    21.7434
_cell_length_c                    22.2124
_cell_angle_alpha                 109.4600
_cell_angle_beta                  100.6880
_cell_angle_gamma                 99.8154
loop_
_atom_site_label
_atom_site_type_symbol
_atom_site_fract_x
_atom_site_fract_y
_atom_site_fract_z
_atom_site_U_iso_or_equiv
_atom_site_adp_type
_atom_site_occupancy
C1     C     0.44111   0.78501   0.62860   0.00000  Uiso   1.00
C2     C     0.39324   0.83603   0.63714   0.00000  Uiso   1.00
C3     C     0.39442   0.88407   0.60873   0.00000  Uiso   1.00
C4     C     0.34636   0.92607   0.62260   0.00000  Uiso   1.00
C5     C     0.27928   0.00621   0.62968   0.00000  Uiso   1.00
C6     C     0.48425   0.79573   0.69818   0.00000  Uiso   1.00
C7     C     0.56196   0.80987   0.72109   0.00000  Uiso   1.00
C8     C     0.59051   0.81794   0.78634   0.00000  Uiso   1.00
C9     C     0.66472   0.83546   0.88817   0.00000  Uiso   1.00
C10    C     0.38592   0.71586   0.60199   0.00000  Uiso   1.00
C11    C     0.38095   0.66282   0.54403   0.00000  Uiso   1.00
C12    C     0.32672   0.60363   0.52831   0.00000  Uiso   1.00
C13    C     0.24826   0.49713   0.48079   0.00000  Uiso   1.00
C14    C     0.35364   0.77419   0.70376   0.00000  Uiso   1.00
C15    C     0.34573   0.83016   0.67797   0.00000  Uiso   1.00
C16    C     0.29765   0.87209   0.69188   0.00000  Uiso   1.00
C17    C     0.29876   0.92018   0.66349   0.00000  Uiso   1.00
C18    C     0.43674   0.78986   0.73900   0.00000  Uiso   1.00
C19    C     0.46518   0.79790   0.80424   0.00000  Uiso   1.00
C20    C     0.54291   0.81205   0.82724   0.00000  Uiso   1.00
C21    C     0.33840   0.70998   0.64281   0.00000  Uiso   1.00
C22    C     0.28418   0.65085   0.62718   0.00000  Uiso   1.00
C23    C     0.27913   0.59774   0.56921   0.00000  Uiso   1.00
H24    H     0.47811   0.78959   0.59683   0.00000  Uiso   1.00
H25    H     0.43121   0.88860   0.57715   0.00000  Uiso   1.00
H26    H     0.59871   0.81441   0.68948   0.00000  Uiso   1.00
H27    H     0.41773   0.66739   0.51246   0.00000  Uiso   1.00
H28    H     0.35827   0.99580   0.57335   0.00000  Uiso   1.00
H29    H     0.71147   0.83934   0.81021   0.00000  Uiso   1.00
H30    H     0.32984   0.52932   0.43692   0.00000  Uiso   1.00
H31    H     0.31666   0.76961   0.73554   0.00000  Uiso   1.00
H32    H     0.26089   0.86753   0.72347   0.00000  Uiso   1.00
H33    H     0.42840   0.79334   0.83581   0.00000  Uiso   1.00
H34    H     0.24742   0.64632   0.65878   0.00000  Uiso   1.00
H35    H     0.22004   0.97871   0.69212   0.00000  Uiso   1.00
H36    H     0.57324   0.82224   0.92898   0.00000  Uiso   1.00
H37    H     0.19161   0.51222   0.55568   0.00000  Uiso   1.00
O38    O     0.25541   0.05204   0.62231   0.00000  Uiso   1.00
O39    O     0.71878   0.84676   0.93306   0.00000  Uiso   1.00
O40    O     0.21809   0.44002   0.44330   0.00000  Uiso   1.00
N41    N     0.33338   0.97833   0.60295   0.00000  Uiso   1.00
N42    N     0.66360   0.83206   0.82440   0.00000  Uiso   1.00
N43    N     0.30682   0.54221   0.47541   0.00000  Uiso   1.00
N44    N     0.25900   0.96913   0.66685   0.00000  Uiso   1.00
N45    N     0.58922   0.82286   0.88831   0.00000  Uiso   1.00
N46    N     0.23244   0.53301   0.53932   0.00000  Uiso   1.00
C47    C     0.52685   0.33401   0.86607   0.00000  Uiso   1.00
C48    C     0.55890   0.31840   0.92610   0.00000  Uiso   1.00
C49    C     0.52371   0.31638   0.97549   0.00000  Uiso   1.00
C50    C     0.56234   0.30118   0.02624   0.00000  Uiso   1.00
C51    C     0.60127   0.27892   0.11928   0.00000  Uiso   1.00
C52    C     0.58520   0.39351   0.86805   0.00000  Uiso   1.00
C53    C     0.57212   0.45462   0.86861   0.00000  Uiso   1.00
C54    C     0.63289   0.50264   0.87048   0.00000  Uiso   1.00
C55    C     0.71264   0.59697   0.87334   0.00000  Uiso   1.00
C56    C     0.52636   0.27408   0.80565   0.00000  Uiso   1.00
C57    C     0.46382   0.23479   0.75374   0.00000  Uiso   1.00
C58    C     0.47506   0.18226   0.70307   0.00000  Uiso   1.00
C59    C     0.46346   0.09115   0.60905   0.00000  Uiso   1.00
C60    C     0.65803   0.31062   0.86838   0.00000  Uiso   1.00
C61    C     0.63014   0.30570   0.92736   0.00000  Uiso   1.00
C62    C     0.66884   0.29050   0.97804   0.00000  Uiso   1.00
C63    C     0.63371   0.28845   0.02750   0.00000  Uiso   1.00
C64    C     0.65644   0.38081   0.86930   0.00000  Uiso   1.00
C65    C     0.71725   0.42875   0.87116   0.00000  Uiso   1.00
C66    C     0.70427   0.48992   0.87173   0.00000  Uiso   1.00
C67    C     0.59761   0.26137   0.80691   0.00000  Uiso   1.00
C68    C     0.60895   0.20891   0.75630   0.00000  Uiso   1.00
C69    C     0.54644   0.16954   0.70432   0.00000  Uiso   1.00
H70    H     0.47139   0.34390   0.86510   0.00000  Uiso   1.00
H71    H     0.46857   0.32622   0.97450   0.00000  Uiso   1.00
H72    H     0.51698   0.46444   0.86763   0.00000  Uiso   1.00
H73    H     0.40870   0.24463   0.75279   0.00000  Uiso   1.00
H74    H     0.49689   0.30103   0.09637   0.00000  Uiso   1.00
H75    H     0.59894   0.59247   0.87100   0.00000  Uiso   1.00
H76    H     0.37061   0.12897   0.62882   0.00000  Uiso   1.00
H77    H     0.71350   0.30073   0.86936   0.00000  Uiso   1.00
H78    H     0.72397   0.28067   0.97900   0.00000  Uiso   1.00
H79    H     0.77237   0.41890   0.87213   0.00000  Uiso   1.00
H80    H     0.66409   0.19909   0.75728   0.00000  Uiso   1.00
H81    H     0.70418   0.26407   0.10002   0.00000  Uiso   1.00
H82    H     0.80623   0.55551   0.87465   0.00000  Uiso   1.00
H83    H     0.57790   0.09201   0.63248   0.00000  Uiso   1.00
O84    O     0.60306   0.27016   0.17026   0.00000  Uiso   1.00
O85    O     0.73695   0.65251   0.87457   0.00000  Uiso   1.00
O86    O     0.43738   0.04441   0.55684   0.00000  Uiso   1.00
N87    N     0.54423   0.29507   0.08217   0.00000  Uiso   1.00
N88    N     0.63965   0.56756   0.87148   0.00000  Uiso   1.00
N89    N     0.42618   0.13423   0.64506   0.00000  Uiso   1.00
N90    N     0.65577   0.27518   0.08414   0.00000  Uiso   1.00
N91    N     0.75119   0.54767   0.87345   0.00000  Uiso   1.00
N92    N     0.53772   0.11434   0.64702   0.00000  Uiso   1.00
C93    C     0.80964   0.57688   0.43457   0.00000  Uiso   1.00
C94    C     0.87320   0.61242   0.41426   0.00000  Uiso   1.00
C95    C     0.94285   0.59786   0.41497   0.00000  Uiso   1.00
C96    C     0.99332   0.63612   0.39455   0.00000  Uiso   1.00
C97    C     0.09485   0.68357   0.36615   0.00000  Uiso   1.00
C98    C     0.79119   0.63192   0.48854   0.00000  Uiso   1.00
C99    C     0.79188   0.63373   0.55170   0.00000  Uiso   1.00
C100   C     0.77331   0.68840   0.59381   0.00000  Uiso   1.00
C101   C     0.74746   0.76609   0.68071   0.00000  Uiso   1.00
C102   C     0.74109   0.55063   0.37520   0.00000  Uiso   1.00
C103   C     0.69964   0.48410   0.34306   0.00000  Uiso   1.00
C104   C     0.63887   0.47033   0.28975   0.00000  Uiso   1.00
C105   C     0.53523   0.42181   0.20067   0.00000  Uiso   1.00
C106   C     0.77542   0.67074   0.39704   0.00000  Uiso   1.00
C107   C     0.85461   0.66340   0.39388   0.00000  Uiso   1.00
C108   C     0.90498   0.70170   0.37345   0.00000  Uiso   1.00
C109   C     0.97470   0.68719   0.37413   0.00000  Uiso   1.00
C110   C     0.77260   0.68289   0.46816   0.00000  Uiso   1.00
C111   C     0.75401   0.73757   0.51018   0.00000  Uiso   1.00
C112   C     0.75468   0.73947   0.57339   0.00000  Uiso   1.00
C113   C     0.72250   0.60161   0.35481   0.00000  Uiso   1.00
C114   C     0.66178   0.58794   0.30154   0.00000  Uiso   1.00
C115   C     0.62025   0.52140   0.26933   0.00000  Uiso   1.00
H116   H     0.82411   0.53720   0.45044   0.00000  Uiso   1.00
H117   H     0.95722   0.55841   0.43076   0.00000  Uiso   1.00
H118   H     0.80626   0.59427   0.56746   0.00000  Uiso   1.00
H119   H     0.71404   0.44467   0.35885   0.00000  Uiso   1.00
H120   H     0.09660   0.60442   0.39996   0.00000  Uiso   1.00
H121   H     0.77828   0.68003   0.68820   0.00000  Uiso   1.00
H122   H     0.58381   0.36456   0.24832   0.00000  Uiso   1.00
H123   H     0.76094   0.71043   0.38117   0.00000  Uiso   1.00
H124   H     0.89058   0.74114   0.35768   0.00000  Uiso   1.00
H125   H     0.73963   0.77701   0.49439   0.00000  Uiso   1.00
H126   H     0.64741   0.62740   0.28578   0.00000  Uiso   1.00
H127   H     0.04252   0.75274   0.34065   0.00000  Uiso   1.00
H128   H     0.72419   0.82835   0.62889   0.00000  Uiso   1.00
H129   H     0.52972   0.51287   0.18901   0.00000  Uiso   1.00
O130   O     0.15599   0.69567   0.35612   0.00000  Uiso   1.00
O131   O     0.73835   0.79487   0.73428   0.00000  Uiso   1.00
O132   O     0.48321   0.38097   0.15716   0.00000  Uiso   1.00
N133   N     0.06608   0.63510   0.38921   0.00000  Uiso   1.00
N134   N     0.76847   0.70580   0.65871   0.00000  Uiso   1.00
N135   N     0.58665   0.41086   0.24746   0.00000  Uiso   1.00
N136   N     0.03697   0.71491   0.35730   0.00000  Uiso   1.00
N137   N     0.73937   0.78561   0.62679   0.00000  Uiso   1.00
N138   N     0.55755   0.49067   0.21555   0.00000  Uiso   1.00
C139   C     0.80274   0.02424   0.31440   0.00000  Uiso   1.00
C140   C     0.76575   0.04622   0.37111   0.00000  Uiso   1.00
C141   C     0.76501   0.01936   0.41965   0.00000  Uiso   1.00
C142   C     0.72819   0.04636   0.46724   0.00000  Uiso   1.00
C143   C     0.67609   0.07260   0.55547   0.00000  Uiso   1.00
C144   C     0.85775   0.08756   0.31981   0.00000  Uiso   1.00
C145   C     0.93435   0.09545   0.32520   0.00000  Uiso   1.00
C146   C     0.97498   0.15726   0.32960   0.00000  Uiso   1.00
C147   C     0.06569   0.24765   0.33813   0.00000  Uiso   1.00
C148   C     0.74082   0.00456   0.25105   0.00000  Uiso   1.00
C149   C     0.71912   0.94267   0.19862   0.00000  Uiso   1.00
C150   C     0.66131   0.93460   0.14511   0.00000  Uiso   1.00
C151   C     0.57048   0.89612   0.04688   0.00000  Uiso   1.00
C152   C     0.73868   0.11996   0.31260   0.00000  Uiso   1.00
C153   C     0.73096   0.09821   0.37014   0.00000  Uiso   1.00
C154   C     0.69413   0.12526   0.41767   0.00000  Uiso   1.00
C155   C     0.69333   0.09844   0.46627   0.00000  Uiso   1.00
C156   C     0.82296   0.13954   0.31884   0.00000  Uiso   1.00
C157   C     0.86347   0.20135   0.32322   0.00000  Uiso   1.00
C158   C     0.94012   0.20934   0.32863   0.00000  Uiso   1.00
C159   C     0.70602   0.05654   0.25007   0.00000  Uiso   1.00
C160   C     0.64824   0.04857   0.19664   0.00000  Uiso   1.00
C161   C     0.62645   0.98668   0.14414   0.00000  Uiso   1.00
H162   H     0.82983   0.98377   0.31516   0.00000  Uiso   1.00
H163   H     0.79195   0.97913   0.42039   0.00000  Uiso   1.00
H164   H     0.96126   0.05521   0.32595   0.00000  Uiso   1.00
H165   H     0.74606   0.90245   0.19939   0.00000  Uiso   1.00
H166   H     0.73463   0.99693   0.53665   0.00000  Uiso   1.00
H167   H     0.09163   0.15734   0.33750   0.00000  Uiso   1.00
H168   H     0.63784   0.83522   0.07061   0.00000  Uiso   1.00
H169   H     0.71159   0.16043   0.31184   0.00000  Uiso   1.00
H170   H     0.66721   0.16549   0.41690   0.00000  Uiso   1.00
H171   H     0.83653   0.24157   0.32246   0.00000  Uiso   1.00
H172   H     0.62133   0.08881   0.19590   0.00000  Uiso   1.00
H173   H     0.63339   0.14819   0.53382   0.00000  Uiso   1.00
H174   H     0.99039   0.30859   0.33466   0.00000  Uiso   1.00
H175   H     0.53660   0.98647   0.06778   0.00000  Uiso   1.00
O176   O     0.65697   0.07271   0.60441   0.00000  Uiso   1.00
O177   O     0.12534   0.28315   0.34312   0.00000  Uiso   1.00
O178   O     0.52998   0.86054   0.99298   0.00000  Uiso   1.00
N179   N     0.71688   0.03183   0.52156   0.00000  Uiso   1.00
N180   N     0.05065   0.18180   0.33537   0.00000  Uiso   1.00
N181   N     0.62641   0.88065   0.08585   0.00000  Uiso   1.00
N182   N     0.66240   0.11322   0.52003   0.00000  Uiso   1.00
N183   N     0.99618   0.26319   0.33385   0.00000  Uiso   1.00
N184   N     0.57194   0.96204   0.08432   0.00000  Uiso   1.00
C185   C     0.03655   0.21305   0.87505   0.00000  Uiso   1.00
C186   C     0.07827   0.28122   0.87819   0.00000  Uiso   1.00
C187   C     0.06049   0.34213   0.90595   0.00000  Uiso   1.00
C188   C     0.10554   0.39885   0.90389   0.00000  Uiso   1.00
C189   C     0.16112   0.50533   0.91318   0.00000  Uiso   1.00
C190   C     0.09554   0.18584   0.90850   0.00000  Uiso   1.00
C191   C     0.09228   0.16656   0.96173   0.00000  Uiso   1.00
C192   C     0.15186   0.14298   0.98519   0.00000  Uiso   1.00
C193   C     0.23423   0.10134   0.04149   0.00000  Uiso   1.00
C194   C     0.01231   0.16689   0.80214   0.00000  Uiso   1.00
C195   C     0.93907   0.13165   0.76595   0.00000  Uiso   1.00
C196   C     0.92858   0.09210   0.69986   0.00000  Uiso   1.00
C197   C     0.88173   0.02103   0.59103   0.00000  Uiso   1.00
C198   C     0.14814   0.20545   0.82204   0.00000  Uiso   1.00
C199   C     0.13888   0.27709   0.84940   0.00000  Uiso   1.00
C200   C     0.18396   0.33373   0.84729   0.00000  Uiso   1.00
C201   C     0.16626   0.39472   0.87504   0.00000  Uiso   1.00
C202   C     0.15615   0.18172   0.87971   0.00000  Uiso   1.00
C203   C     0.21575   0.15815   0.90308   0.00000  Uiso   1.00
C204   C     0.21258   0.13884   0.95634   0.00000  Uiso   1.00
C205   C     0.07292   0.16276   0.77335   0.00000  Uiso   1.00
C206   C     0.06254   0.12325   0.70730   0.00000  Uiso   1.00
C207   C     0.98930   0.08796   0.67102   0.00000  Uiso   1.00
H208   H     0.98936   0.21626   0.89747   0.00000  Uiso   1.00
H209   H     0.01358   0.34531   0.92823   0.00000  Uiso   1.00
H210   H     0.04536   0.16975   0.98400   0.00000  Uiso   1.00
H211   H     0.89218   0.13486   0.78825   0.00000  Uiso   1.00
H212   H     0.06719   0.48656   0.94966   0.00000  Uiso   1.00
H213   H     0.13418   0.11637   0.06724   0.00000  Uiso   1.00
H214   H     0.81117   0.04278   0.65446   0.00000  Uiso   1.00
H215   H     0.19534   0.20224   0.79962   0.00000  Uiso   1.00
H216   H     0.23087   0.33052   0.82501   0.00000  Uiso   1.00
H217   H     0.26265   0.15496   0.88078   0.00000  Uiso   1.00
H218   H     0.10946   0.12007   0.68503   0.00000  Uiso   1.00
H219   H     0.24355   0.47456   0.86588   0.00000  Uiso   1.00
H220   H     0.31054   0.10437   0.98346   0.00000  Uiso   1.00
H221   H     0.98753   0.03078   0.57069   0.00000  Uiso   1.00
O222   O     0.17505   0.56520   0.92626   0.00000  Uiso   1.00
O223   O     0.26293   0.07952   0.08051   0.00000  Uiso   1.00
O224   O     0.83914   0.98297   0.53896   0.00000  Uiso   1.00
N225   N     0.10382   0.46613   0.92645   0.00000  Uiso   1.00
N226   N     0.16645   0.12004   0.03639   0.00000  Uiso   1.00
N227   N     0.86446   0.05122   0.65048   0.00000  Uiso   1.00
N228   N     0.19871   0.45967   0.88137   0.00000  Uiso   1.00
N229   N     0.26135   0.11358   0.99131   0.00000  Uiso   1.00
N230   N     0.95936   0.04476   0.60540   0.00000  Uiso   1.00
C231   C     0.22037   0.78465   0.08119   0.00000  Uiso   1.00
C232   C     0.29985   0.77595   0.09963   0.00000  Uiso   1.00
C233   C     0.35315   0.77905   0.06397   0.00000  Uiso   1.00
C234   C     0.42261   0.76979   0.08910   0.00000  Uiso   1.00
C235   C     0.54368   0.75813   0.10883   0.00000  Uiso   1.00
C236   C     0.21355   0.84187   0.14054   0.00000  Uiso   1.00
C237   C     0.19428   0.90041   0.13927   0.00000  Uiso   1.00
C238   C     0.19108   0.94663   0.19883   0.00000  Uiso   1.00
C239   C     0.17812   0.03730   0.28205   0.00000  Uiso   1.00
C240   C     0.16728   0.72106   0.07743   0.00000  Uiso   1.00
C241   C     0.10909   0.67802   0.02311   0.00000  Uiso   1.00
C242   C     0.06692   0.62254   0.02954   0.00000  Uiso   1.00
C243   C     0.98211   0.52563   0.01479   0.00000  Uiso   1.00
C244   C     0.24894   0.76266   0.18922   0.00000  Uiso   1.00
C245   C     0.31537   0.76401   0.15831   0.00000  Uiso   1.00
C246   C     0.38477   0.75473   0.18350   0.00000  Uiso   1.00
C247   C     0.43816   0.75782   0.14788   0.00000  Uiso   1.00
C248   C     0.22907   0.82993   0.19921   0.00000  Uiso   1.00
C249   C     0.22590   0.87608   0.25879   0.00000  Uiso   1.00
C250   C     0.20663   0.93467   0.25761   0.00000  Uiso   1.00
C251   C     0.18280   0.70912   0.13611   0.00000  Uiso   1.00
C252   C     0.14071   0.65369   0.14263   0.00000  Uiso   1.00
C253   C     0.08247   0.61058   0.08833   0.00000  Uiso   1.00
H254   H     0.20828   0.79395   0.03551   0.00000  Uiso   1.00
H255   H     0.34112   0.78830   0.01857   0.00000  Uiso   1.00
H256   H     0.18226   0.90963   0.09385   0.00000  Uiso   1.00
H257   H     0.09709   0.68728   0.97771   0.00000  Uiso   1.00
H258   H     0.49524   0.77681   0.02568   0.00000  Uiso   1.00
H259   H     0.16028   0.03262   0.18441   0.00000  Uiso   1.00
H260   H     0.98066   0.56375   0.93950   0.00000  Uiso   1.00
H261   H     0.26103   0.75336   0.23490   0.00000  Uiso   1.00
H262   H     0.39676   0.74549   0.22891   0.00000  Uiso   1.00
H263   H     0.23791   0.86682   0.30419   0.00000  Uiso   1.00
H264   H     0.15274   0.64447   0.18805   0.00000  Uiso   1.00
H265   H     0.54041   0.74206   0.19640   0.00000  Uiso   1.00
H266   H     0.20544   0.99787   0.35513   0.00000  Uiso   1.00
H267   H     0.02583   0.52900   0.11022   0.00000  Uiso   1.00
O268   O     0.60617   0.75501   0.10351   0.00000  Uiso   1.00
O269   O     0.16669   0.09062   0.31175   0.00000  Uiso   1.00
O270   O     0.93105   0.47547   0.99044   0.00000  Uiso   1.00
N271   N     0.48724   0.76969   0.06668   0.00000  Uiso   1.00
N272   N     0.17408   0.00887   0.21508   0.00000  Uiso   1.00
N273   N     0.00614   0.57053   0.98612   0.00000  Uiso   1.00
N274   N     0.51155   0.75100   0.15854   0.00000  Uiso   1.00
N275   N     0.19838   0.99017   0.30694   0.00000  Uiso   1.00
N276   N     0.03045   0.55183   0.07798   0.00000  Uiso   1.00
C277   C     0.48329   0.21838   0.40992   0.00000  Uiso   1.00
C278   C     0.48352   0.14440   0.39255   0.00000  Uiso   1.00
C279   C     0.47393   0.10820   0.43270   0.00000  Uiso   1.00
C280   C     0.47594   0.04105   0.40781   0.00000  Uiso   1.00
C281   C     0.47456   0.93071   0.39037   0.00000  Uiso   1.00
C282   C     0.42243   0.22030   0.35479   0.00000  Uiso   1.00
C283   C     0.36147   0.24792   0.36320   0.00000  Uiso   1.00
C284   C     0.31207   0.24467   0.30652   0.00000  Uiso   1.00
C285   C     0.21587   0.25221   0.23047   0.00000  Uiso   1.00
C286   C     0.55805   0.25282   0.40319   0.00000  Uiso   1.00
C287   C     0.61113   0.30779   0.45228   0.00000  Uiso   1.00
C288   C     0.67591   0.33192   0.43635   0.00000  Uiso   1.00
C289   C     0.79030   0.38994   0.43545   0.00000  Uiso   1.00
C290   C     0.50393   0.16350   0.29432   0.00000  Uiso   1.00
C291   C     0.49473   0.11460   0.32976   0.00000  Uiso   1.00
C292   C     0.49677   0.04748   0.30480   0.00000  Uiso   1.00
C293   C     0.48718   0.01119   0.34491   0.00000  Uiso   1.00
C294   C     0.43364   0.19049   0.29200   0.00000  Uiso   1.00
C295   C     0.38431   0.18720   0.23530   0.00000  Uiso   1.00
C296   C     0.32330   0.21481   0.24362   0.00000  Uiso   1.00
C297   C     0.56927   0.22301   0.34040   0.00000  Uiso   1.00
C298   C     0.63397   0.24706   0.32438   0.00000  Uiso   1.00
C299   C     0.68714   0.30205   0.37344   0.00000  Uiso   1.00
H300   H     0.47455   0.24159   0.45880   0.00000  Uiso   1.00
H301   H     0.46524   0.13129   0.48128   0.00000  Uiso   1.00
H302   H     0.35281   0.27099   0.41179   0.00000  Uiso   1.00
H303   H     0.60244   0.33084   0.50086   0.00000  Uiso   1.00
H304   H     0.45984   0.99585   0.47851   0.00000  Uiso   1.00
H305   H     0.22279   0.29044   0.33199   0.00000  Uiso   1.00
H306   H     0.74917   0.41665   0.51982   0.00000  Uiso   1.00
H307   H     0.51266   0.14029   0.24543   0.00000  Uiso   1.00
H308   H     0.50544   0.02443   0.25621   0.00000  Uiso   1.00
H309   H     0.39301   0.16413   0.18672   0.00000  Uiso   1.00
H310   H     0.64263   0.22398   0.27579   0.00000  Uiso   1.00
H311   H     0.49246   0.90911   0.29583   0.00000  Uiso   1.00
H312   H     0.25541   0.20372   0.14931   0.00000  Uiso   1.00
H313   H     0.78179   0.32992   0.33714   0.00000  Uiso   1.00
O314   O     0.47069   0.87809   0.39810   0.00000  Uiso   1.00
O315   O     0.15970   0.26460   0.20588   0.00000  Uiso   1.00
O316   O     0.85029   0.43017   0.45230   0.00000  Uiso   1.00
N317   N     0.46852   0.99134   0.43404   0.00000  Uiso   1.00
N318   N     0.24689   0.26676   0.29706   0.00000  Uiso   1.00
N319   N     0.73900   0.38476   0.47265   0.00000  Uiso   1.00
N320   N     0.48608   0.94467   0.33575   0.00000  Uiso   1.00
N321   N     0.26444   0.22009   0.19876   0.00000  Uiso   1.00
N322   N     0.75655   0.33809   0.37435   0.00000  Uiso   1.00
C323   C     0.35960   0.51450   0.26124   0.00000  Uiso   1.00
C324   C     0.35139   0.52141   0.19435   0.00000  Uiso   1.00
C325   C     0.37666   0.48384   0.14242   0.00000  Uiso   1.00
C326   C     0.36370   0.49778   0.08530   0.00000  Uiso   1.00
C327   C     0.35654   0.50093   0.98219   0.00000  Uiso   1.00
C328   C     0.28010   0.50062   0.27009   0.00000  Uiso   1.00
C329   C     0.24543   0.44557   0.28183   0.00000  Uiso   1.00
C330   C     0.17247   0.44202   0.28847   0.00000  Uiso   1.00
C331   C     0.05464   0.41291   0.30298   0.00000  Uiso   1.00
C332   C     0.40075   0.58422   0.31305   0.00000  Uiso   1.00
C333   C     0.46751   0.59946   0.36093   0.00000  Uiso   1.00
C334   C     0.49611   0.66630   0.40376   0.00000  Uiso   1.00
C335   C     0.56560   0.76700   0.48497   0.00000  Uiso   1.00
C336   C     0.29166   0.60609   0.25216   0.00000  Uiso   1.00
C337   C     0.31449   0.57116   0.18943   0.00000  Uiso   1.00
C338   C     0.30149   0.58518   0.13237   0.00000  Uiso   1.00
C339   C     0.32674   0.54762   0.08036   0.00000  Uiso   1.00
C340   C     0.24320   0.55037   0.26516   0.00000  Uiso   1.00
C341   C     0.17027   0.54691   0.27179   0.00000  Uiso   1.00
C342   C     0.13550   0.49186   0.28354   0.00000  Uiso   1.00
C343   C     0.36385   0.63398   0.30812   0.00000  Uiso   1.00
C344   C     0.39235   0.70080   0.35088   0.00000  Uiso   1.00
C345   C     0.45914   0.71614   0.39882   0.00000  Uiso   1.00
H346   H     0.38832   0.47577   0.26508   0.00000  Uiso   1.00
H347   H     0.40521   0.44533   0.14625   0.00000  Uiso   1.00
H348   H     0.27401   0.40708   0.28565   0.00000  Uiso   1.00
H349   H     0.49605   0.56095   0.36473   0.00000  Uiso   1.00
H350   H     0.40763   0.43352   0.01232   0.00000  Uiso   1.00
H351   H     0.13099   0.35287   0.30628   0.00000  Uiso   1.00
H352   H     0.59921   0.67733   0.47304   0.00000  Uiso   1.00
H353   H     0.26293   0.64483   0.24832   0.00000  Uiso   1.00
H354   H     0.27294   0.62368   0.12857   0.00000  Uiso   1.00
H355   H     0.14173   0.58542   0.26797   0.00000  Uiso   1.00
H356   H     0.36378   0.73929   0.34706   0.00000  Uiso   1.00
H357   H     0.30027   0.57827   0.99798   0.00000  Uiso   1.00
H358   H     0.02364   0.49762   0.29193   0.00000  Uiso   1.00
H359   H     0.49185   0.82208   0.45870   0.00000  Uiso   1.00
O360   O     0.36277   0.48891   0.92667   0.00000  Uiso   1.00
O361   O     0.99985   0.38311   0.31234   0.00000  Uiso   1.00
O362   O     0.61413   0.80880   0.53113   0.00000  Uiso   1.00
N363   N     0.38100   0.47050   0.02539   0.00000  Uiso   1.00
N364   N     0.12236   0.39509   0.30021   0.00000  Uiso   1.00
N365   N     0.56009   0.69843   0.45613   0.00000  Uiso   1.00
N366   N     0.32323   0.54839   0.01767   0.00000  Uiso   1.00
N367   N     0.06459   0.47298   0.29249   0.00000  Uiso   1.00
N368   N     0.50233   0.77632   0.44841   0.00000  Uiso   1.00
C369   C     0.18868   0.37612   0.57890   0.00000  Uiso   1.00
C370   C     0.11409   0.38153   0.59630   0.00000  Uiso   1.00
C371   C     0.05843   0.40412   0.56538   0.00000  Uiso   1.00
C372   C     0.99431   0.40528   0.58856   0.00000  Uiso   1.00
C373   C     0.87971   0.41680   0.60762   0.00000  Uiso   1.00
C374   C     0.19154   0.30297   0.56378   0.00000  Uiso   1.00
C375   C     0.20101   0.25950   0.50552   0.00000  Uiso   1.00
C376   C     0.20210   0.19453   0.50133   0.00000  Uiso   1.00
C377   C     0.20780   0.08409   0.46992   0.00000  Uiso   1.00
C378   C     0.25019   0.41775   0.64251   0.00000  Uiso   1.00
C379   C     0.30898   0.47078   0.65044   0.00000  Uiso   1.00
C380   C     0.35946   0.50243   0.71253   0.00000  Uiso   1.00
C381   C     0.45621   0.57021   0.80336   0.00000  Uiso   1.00
C382   C     0.17378   0.33802   0.67507   0.00000  Uiso   1.00
C383   C     0.10600   0.36084   0.64854   0.00000  Uiso   1.00
C384   C     0.04195   0.36197   0.67178   0.00000  Uiso   1.00
C385   C     0.98620   0.38455   0.64089   0.00000  Uiso   1.00
C386   C     0.18345   0.28227   0.61601   0.00000  Uiso   1.00
C387   C     0.18453   0.21735   0.61192   0.00000  Uiso   1.00
C388   C     0.19399   0.17380   0.55366   0.00000  Uiso   1.00
C389   C     0.24210   0.39705   0.69475   0.00000  Uiso   1.00
C390   C     0.29250   0.42863   0.75684   0.00000  Uiso   1.00
C391   C     0.35135   0.48170   0.76486   0.00000  Uiso   1.00
H392   H     0.19498   0.39223   0.53823   0.00000  Uiso   1.00
H393   H     0.06471   0.42013   0.52495   0.00000  Uiso   1.00
H394   H     0.20728   0.27554   0.46510   0.00000  Uiso   1.00
H395   H     0.31522   0.48678   0.61000   0.00000  Uiso   1.00
H396   H     0.91671   0.44190   0.53325   0.00000  Uiso   1.00
H397   H     0.21734   0.13703   0.40707   0.00000  Uiso   1.00
H398   H     0.44497   0.58248   0.71262   0.00000  Uiso   1.00
H399   H     0.16748   0.32191   0.71574   0.00000  Uiso   1.00
H400   H     0.03570   0.34595   0.71220   0.00000  Uiso   1.00
H401   H     0.17827   0.20136   0.65235   0.00000  Uiso   1.00
H402   H     0.28622   0.41260   0.79725   0.00000  Uiso   1.00
H403   H     0.89316   0.38170   0.68522   0.00000  Uiso   1.00
H404   H     0.19380   0.07683   0.55905   0.00000  Uiso   1.00
H405   H     0.42143   0.52228   0.86459   0.00000  Uiso   1.00
O406   O     0.81873   0.42886   0.60369   0.00000  Uiso   1.00
O407   O     0.21317   0.02889   0.43815   0.00000  Uiso   1.00
O408   O     0.51181   0.61331   0.83903   0.00000  Uiso   1.00
N409   N     0.92926   0.42445   0.56951   0.00000  Uiso   1.00
N410   N     0.21032   0.13941   0.45153   0.00000  Uiso   1.00
N411   N     0.42315   0.55586   0.73719   0.00000  Uiso   1.00
N412   N     0.91659   0.39205   0.65129   0.00000  Uiso   1.00
N413   N     0.19765   0.10701   0.53331   0.00000  Uiso   1.00
N414   N     0.41048   0.52346   0.81897   0.00000  Uiso   1.00
C415   C     0.08666   0.83030   0.81806   0.00000  Uiso   1.00
C416   C     0.09058   0.82025   0.74756   0.00000  Uiso   1.00
C417   C     0.05625   0.85101   0.70877   0.00000  Uiso   1.00
C418   C     0.06659   0.83519   0.64557   0.00000  Uiso   1.00
C419   C     0.06608   0.82640   0.53966   0.00000  Uiso   1.00
C420   C     0.05580   0.76028   0.81713   0.00000  Uiso   1.00
C421   C     0.99222   0.74064   0.83684   0.00000  Uiso   1.00
C422   C     0.97329   0.67433   0.83222   0.00000  Uiso   1.00
C423   C     0.91881   0.57246   0.83436   0.00000  Uiso   1.00
C424   C     0.16803   0.85361   0.85985   0.00000  Uiso   1.00
C425   C     0.19882   0.91242   0.91549   0.00000  Uiso   1.00
C426   C     0.27438   0.92469   0.94684   0.00000  Uiso   1.00
C427   C     0.39416   0.96772   0.01531   0.00000  Uiso   1.00
C428   C     0.16609   0.74749   0.77480   0.00000  Uiso   1.00
C429   C     0.13372   0.77526   0.72406   0.00000  Uiso   1.00
C430   C     0.14413   0.75939   0.66091   0.00000  Uiso   1.00
C431   C     0.10981   0.79013   0.62203   0.00000  Uiso   1.00
C432   C     0.09894   0.71530   0.79363   0.00000  Uiso   1.00
C433   C     0.08010   0.64902   0.78898   0.00000  Uiso   1.00
C434   C     0.01651   0.62927   0.80868   0.00000  Uiso   1.00
C435   C     0.21118   0.80863   0.83635   0.00000  Uiso   1.00
C436   C     0.28670   0.82080   0.86762   0.00000  Uiso   1.00
C437   C     0.31760   0.87963   0.92330   0.00000  Uiso   1.00
H438   H     0.05307   0.86531   0.83635   0.00000  Uiso   1.00
H439   H     0.02286   0.88581   0.72697   0.00000  Uiso   1.00
H440   H     0.95885   0.77546   0.85503   0.00000  Uiso   1.00
H441   H     0.16541   0.94722   0.93366   0.00000  Uiso   1.00
H442   H     0.00836   0.88869   0.59532   0.00000  Uiso   1.00
H443   H     0.87341   0.65600   0.86537   0.00000  Uiso   1.00
H444   H     0.30900   0.01819   0.03117   0.00000  Uiso   1.00
H445   H     0.19968   0.71246   0.75651   0.00000  Uiso   1.00
H446   H     0.17752   0.72458   0.64274   0.00000  Uiso   1.00
H447   H     0.11350   0.61422   0.77080   0.00000  Uiso   1.00
H448   H     0.32007   0.78598   0.84943   0.00000  Uiso   1.00
H449   H     0.13389   0.75783   0.52696   0.00000  Uiso   1.00
H450   H     0.99894   0.52514   0.79701   0.00000  Uiso   1.00
H451   H     0.43452   0.88733   0.96281   0.00000  Uiso   1.00
O452   O     0.05388   0.83397   0.48773   0.00000  Uiso   1.00
O453   O     0.87684   0.52870   0.84203   0.00000  Uiso   1.00
O454   O     0.44831   0.00388   0.05956   0.00000  Uiso   1.00
N455   N     0.04096   0.85624   0.59485   0.00000  Uiso   1.00
N456   N     0.91478   0.63869   0.84732   0.00000  Uiso   1.00
N457   N     0.32201   0.97730   0.00234   0.00000  Uiso   1.00
N458   N     0.10850   0.78582   0.55806   0.00000  Uiso   1.00
N459   N     0.98232   0.56827   0.81053   0.00000  Uiso   1.00
N460   N     0.38956   0.90688   0.96556   0.00000  Uiso   1.00
C461   C     0.98995   0.75890   0.20859   0.00000  Uiso   1.00
C462   C     0.93799   0.69300   0.20095   0.00000  Uiso   1.00
C463   C     0.95910   0.63369   0.19606   0.00000  Uiso   1.00
C464   C     0.90321   0.57893   0.18933   0.00000  Uiso   1.00
C465   C     0.83384   0.47590   0.17770   0.00000  Uiso   1.00
C466   C     0.95451   0.77718   0.15136   0.00000  Uiso   1.00
C467   C     0.98952   0.78865   0.10478   0.00000  Uiso   1.00
C468   C     0.94754   0.80476   0.05631   0.00000  Uiso   1.00
C469   C     0.90383   0.83247   0.96772   0.00000  Uiso   1.00
C470   C     0.98359   0.81218   0.27121   0.00000  Uiso   1.00
C471   C     0.04305   0.85309   0.32541   0.00000  Uiso   1.00
C472   C     0.02555   0.89868   0.37785   0.00000  Uiso   1.00
C473   C     0.02700   0.98074   0.47536   0.00000  Uiso   1.00
C474   C     0.85316   0.76713   0.20532   0.00000  Uiso   1.00
C475   C     0.86370   0.69747   0.19917   0.00000  Uiso   1.00
C476   C     0.80777   0.64279   0.19245   0.00000  Uiso   1.00
C477   C     0.82879   0.58340   0.18755   0.00000  Uiso   1.00
C478   C     0.88022   0.78165   0.14958   0.00000  Uiso   1.00
C479   C     0.83818   0.79775   0.10117   0.00000  Uiso   1.00
C480   C     0.87311   0.80924   0.05453   0.00000  Uiso   1.00
C481   C     0.90930   0.81665   0.26944   0.00000  Uiso   1.00
C482   C     0.89171   0.86219   0.32180   0.00000  Uiso   1.00
C483   C     0.95112   0.90316   0.37607   0.00000  Uiso   1.00
H484   H     0.04779   0.75543   0.20996   0.00000  Uiso   1.00
H485   H     0.01660   0.63024   0.19743   0.00000  Uiso   1.00
H486   H     0.04701   0.78519   0.10617   0.00000  Uiso   1.00
H487   H     0.10053   0.84962   0.32677   0.00000  Uiso   1.00
H488   H     0.94925   0.49342   0.18272   0.00000  Uiso   1.00
H489   H     0.01339   0.82016   0.99031   0.00000  Uiso   1.00
H490   H     0.12625   0.95602   0.45549   0.00000  Uiso   1.00
H491   H     0.79532   0.77061   0.20394   0.00000  Uiso   1.00
H492   H     0.75028   0.64626   0.19108   0.00000  Uiso   1.00
H493   H     0.78069   0.80121   0.09981   0.00000  Uiso   1.00
H494   H     0.83421   0.86563   0.32041   0.00000  Uiso   1.00
H495   H     0.73309   0.50642   0.17756   0.00000  Uiso   1.00
H496   H     0.79723   0.83316   0.98515   0.00000  Uiso   1.00
H497   H     0.91009   0.96901   0.45033   0.00000  Uiso   1.00
O498   O     0.81609   0.41784   0.17176   0.00000  Uiso   1.00
O499   O     0.90025   0.84652   0.91934   0.00000  Uiso   1.00
O500   O     0.04831   0.02475   0.52964   0.00000  Uiso   1.00
N501   N     0.90457   0.51355   0.18329   0.00000  Uiso   1.00
N502   N     0.96453   0.81902   0.00339   0.00000  Uiso   1.00
N503   N     0.07004   0.94605   0.43828   0.00000  Uiso   1.00
N504   N     0.78825   0.52055   0.18051   0.00000  Uiso   1.00
N505   N     0.84821   0.82601   0.00061   0.00000  Uiso   1.00
N506   N     0.95373   0.95304   0.43550   0.00000  Uiso   1.00
C507   C     0.78040   0.11294   0.99356   0.00000  Uiso   1.00
C508   C     0.69761   0.11109   0.97021   0.00000  Uiso   1.00
C509   C     0.64075   0.09259   0.99786   0.00000  Uiso   1.00
C510   C     0.56865   0.09420   0.96933   0.00000  Uiso   1.00
C511   C     0.44231   0.08835   0.94129   0.00000  Uiso   1.00
C512   C     0.80065   0.06775   0.93356   0.00000  Uiso   1.00
C513   C     0.83045   0.01281   0.93042   0.00000  Uiso   1.00
C514   C     0.84510   0.97794   0.87103   0.00000  Uiso   1.00
C515   C     0.87879   0.90482   0.78612   0.00000  Uiso   1.00
C516   C     0.82449   0.18447   0.00848   0.00000  Uiso   1.00
C517   C     0.87434   0.22768   0.06832   0.00000  Uiso   1.00
C518   C     0.90908   0.29108   0.07200   0.00000  Uiso   1.00
C519   C     0.97978   0.39920   0.10341   0.00000  Uiso   1.00
C520   C     0.75347   0.14870   0.89369   0.00000  Uiso   1.00
C521   C     0.68298   0.13052   0.91596   0.00000  Uiso   1.00
C522   C     0.61095   0.13216   0.88737   0.00000  Uiso   1.00
C523   C     0.55400   0.11367   0.91499   0.00000  Uiso   1.00
C524   C     0.78603   0.08717   0.87932   0.00000  Uiso   1.00
C525   C     0.80065   0.05238   0.81992   0.00000  Uiso   1.00
C526   C     0.83045   0.99740   0.81669   0.00000  Uiso   1.00
C527   C     0.80986   0.20390   0.95423   0.00000  Uiso   1.00
C528   C     0.84454   0.26725   0.95783   0.00000  Uiso   1.00
C529   C     0.89443   0.31054   0.01766   0.00000  Uiso   1.00
H530   H     0.79180   0.09781   0.03579   0.00000  Uiso   1.00
H531   H     0.65210   0.07755   0.03984   0.00000  Uiso   1.00
H532   H     0.84177   0.99779   0.97240   0.00000  Uiso   1.00
H533   H     0.88565   0.21262   0.11029   0.00000  Uiso   1.00
H534   H     0.49075   0.06364   0.02039   0.00000  Uiso   1.00
H535   H     0.89071   0.89547   0.87821   0.00000  Uiso   1.00
H536   H     0.98325   0.34849   0.16896   0.00000  Uiso   1.00
H537   H     0.74208   0.16383   0.85146   0.00000  Uiso   1.00
H538   H     0.59965   0.14720   0.84539   0.00000  Uiso   1.00
H539   H     0.78932   0.06743   0.77796   0.00000  Uiso   1.00
H540   H     0.83320   0.28226   0.91584   0.00000  Uiso   1.00
H541   H     0.44818   0.12016   0.86257   0.00000  Uiso   1.00
H542   H     0.84815   0.95199   0.72038   0.00000  Uiso   1.00
H543   H     0.94068   0.40501   0.01114   0.00000  Uiso   1.00
O544   O     0.37667   0.07975   0.94080   0.00000  Uiso   1.00
O545   O     0.90141   0.85912   0.75427   0.00000  Uiso   1.00
O546   O     0.02281   0.45347   0.13573   0.00000  Uiso   1.00
N547   N     0.50028   0.07924   0.98409   0.00000  Uiso   1.00
N548   N     0.87421   0.92200   0.85115   0.00000  Uiso   1.00
N549   N     0.96074   0.34553   0.12297   0.00000  Uiso   1.00
N550   N     0.47738   0.10965   0.89917   0.00000  Uiso   1.00
N551   N     0.85131   0.95241   0.76623   0.00000  Uiso   1.00
N552   N     0.93783   0.37595   0.03805   0.00000  Uiso   1.00
