data_job_06027
_audit_creation_date              2018-12-19
_audit_creation_method            'Materials Studio'
_symmetry_space_group_name_H-M    'P1'
_symmetry_Int_Tables_number       1
_symmetry_cell_setting            triclinic
loop_
_symmetry_equiv_pos_as_xyz
  x,y,z
_cell_length_a                    8.6641
_cell_length_b                    20.7793
_cell_length_c                    21.0934
_cell_angle_alpha                 61.5100
_cell_angle_beta                  81.8402
_cell_angle_gamma                 94.0994
loop_
_atom_site_label
_atom_site_type_symbol
_atom_site_fract_x
_atom_site_fract_y
_atom_site_fract_z
_atom_site_U_iso_or_equiv
_atom_site_adp_type
_atom_site_occupancy
C1     C     0.81048   0.18084   0.19384   0.00000  Uiso   1.00
C2     C     0.93834   0.13552   0.18945   0.00000  Uiso   1.00
C3     C     0.91386   0.06781   0.19140   0.00000  Uiso   1.00
C4     C     0.04624   0.03521   0.18666   0.00000  Uiso   1.00
C5     C     0.22175   0.95967   0.18087   0.00000  Uiso   1.00
C6     C     0.82529   0.19280   0.25878   0.00000  Uiso   1.00
C7     C     0.70574   0.17326   0.31902   0.00000  Uiso   1.00
C8     C     0.74296   0.18888   0.37265   0.00000  Uiso   1.00
C9     C     0.74291   0.20232   0.47447   0.00000  Uiso   1.00
C10    C     0.85876   0.25701   0.12514   0.00000  Uiso   1.00
C11    C     0.76735   0.29147   0.07302   0.00000  Uiso   1.00
C12    C     0.83273   0.36117   0.01414   0.00000  Uiso   1.00
C13    C     0.88466   0.47430   0.90847   0.00000  Uiso   1.00
C14    C     0.08913   0.24334   0.18196   0.00000  Uiso   1.00
C15    C     0.08970   0.16947   0.18300   0.00000  Uiso   1.00
C16    C     0.22215   0.13697   0.17826   0.00000  Uiso   1.00
C17    C     0.19787   0.06922   0.18020   0.00000  Uiso   1.00
C18    C     0.97664   0.22675   0.25234   0.00000  Uiso   1.00
C19    C     0.01404   0.24241   0.30588   0.00000  Uiso   1.00
C20    C     0.89458   0.22289   0.36619   0.00000  Uiso   1.00
C21    C     0.01012   0.29096   0.11869   0.00000  Uiso   1.00
C22    C     0.07565   0.36062   0.05988   0.00000  Uiso   1.00
C23    C     0.98435   0.39518   0.00768   0.00000  Uiso   1.00
H24    H     0.69265   0.15440   0.19886   0.00000  Uiso   1.00
H25    H     0.79671   0.04155   0.19640   0.00000  Uiso   1.00
H26    H     0.58863   0.14699   0.32399   0.00000  Uiso   1.00
H27    H     0.65023   0.26518   0.07803   0.00000  Uiso   1.00
H28    H     0.97882   0.93140   0.19085   0.00000  Uiso   1.00
H29    H     0.54005   0.15374   0.45988   0.00000  Uiso   1.00
H30    H     0.66994   0.40297   0.94123   0.00000  Uiso   1.00
H31    H     0.20697   0.26977   0.17694   0.00000  Uiso   1.00
H32    H     0.33926   0.16325   0.17327   0.00000  Uiso   1.00
H33    H     0.13117   0.26869   0.30087   0.00000  Uiso   1.00
H34    H     0.19277   0.38688   0.05491   0.00000  Uiso   1.00
H35    H     0.41918   0.03017   0.17207   0.00000  Uiso   1.00
H36    H     0.98040   0.25252   0.44111   0.00000  Uiso   1.00
H37    H     0.11030   0.50174   0.92246   0.00000  Uiso   1.00
O38    O     0.27674   0.90862   0.17947   0.00000  Uiso   1.00
O39    O     0.70108   0.20034   0.53242   0.00000  Uiso   1.00
O40    O     0.87150   0.52732   0.85196   0.00000  Uiso   1.00
N41    N     0.06431   0.96927   0.18692   0.00000  Uiso   1.00
N42    N     0.65409   0.17714   0.43846   0.00000  Uiso   1.00
N43    N     0.77551   0.41015   0.95357   0.00000  Uiso   1.00
N44    N     0.30126   0.02242   0.17682   0.00000  Uiso   1.00
N45    N     0.89104   0.23029   0.42835   0.00000  Uiso   1.00
N46    N     0.01246   0.46330   0.94347   0.00000  Uiso   1.00
C47    C     0.63185   0.63263   0.17530   0.00000  Uiso   1.00
C48    C     0.79836   0.67525   0.13659   0.00000  Uiso   1.00
C49    C     0.83809   0.74051   0.06945   0.00000  Uiso   1.00
C50    C     0.99708   0.77087   0.04333   0.00000  Uiso   1.00
C51    C     0.23815   0.84216   0.97717   0.00000  Uiso   1.00
C52    C     0.63629   0.55421   0.18795   0.00000  Uiso   1.00
C53    C     0.53973   0.51769   0.16400   0.00000  Uiso   1.00
C54    C     0.56228   0.44614   0.18113   0.00000  Uiso   1.00
C55    C     0.55165   0.32949   0.19476   0.00000  Uiso   1.00
C56    C     0.60597   0.62586   0.25142   0.00000  Uiso   1.00
C57    C     0.48389   0.64957   0.28083   0.00000  Uiso   1.00
C58    C     0.48088   0.63833   0.35140   0.00000  Uiso   1.00
C59    C     0.42317   0.63293   0.46356   0.00000  Uiso   1.00
C60    C     0.84355   0.57051   0.24834   0.00000  Uiso   1.00
C61    C     0.91335   0.64151   0.17627   0.00000  Uiso   1.00
C62    C     0.07232   0.67178   0.15025   0.00000  Uiso   1.00
C63    C     0.11228   0.73706   0.08308   0.00000  Uiso   1.00
C64    C     0.75128   0.52046   0.22762   0.00000  Uiso   1.00
C65    C     0.77396   0.44896   0.24480   0.00000  Uiso   1.00
C66    C     0.67748   0.41234   0.22088   0.00000  Uiso   1.00
C67    C     0.72096   0.59212   0.29109   0.00000  Uiso   1.00
C68    C     0.71813   0.58084   0.36163   0.00000  Uiso   1.00
C69    C     0.59608   0.60453   0.39115   0.00000  Uiso   1.00
H70    H     0.54232   0.65890   0.14442   0.00000  Uiso   1.00
H71    H     0.74907   0.76660   0.03876   0.00000  Uiso   1.00
H72    H     0.45075   0.54381   0.13331   0.00000  Uiso   1.00
H73    H     0.39493   0.67568   0.25011   0.00000  Uiso   1.00
H74    H     0.02901   0.87111   0.93909   0.00000  Uiso   1.00
H75    H     0.39995   0.40134   0.13847   0.00000  Uiso   1.00
H76    H     0.28222   0.67940   0.38479   0.00000  Uiso   1.00
H77    H     0.93308   0.54424   0.27923   0.00000  Uiso   1.00
H78    H     0.16128   0.64565   0.18096   0.00000  Uiso   1.00
H79    H     0.86295   0.42286   0.27551   0.00000  Uiso   1.00
H80    H     0.80713   0.55472   0.39232   0.00000  Uiso   1.00
H81    H     0.36357   0.77294   0.05451   0.00000  Uiso   1.00
H82    H     0.73450   0.30317   0.25389   0.00000  Uiso   1.00
H83    H     0.61679   0.58123   0.50020   0.00000  Uiso   1.00
O84    O     0.33936   0.89080   0.92971   0.00000  Uiso   1.00
O85    O     0.51403   0.27447   0.19130   0.00000  Uiso   1.00
O86    O     0.35959   0.63928   0.51446   0.00000  Uiso   1.00
N87    N     0.07643   0.83410   0.97975   0.00000  Uiso   1.00
N88    N     0.48831   0.39490   0.16615   0.00000  Uiso   1.00
N89    N     0.37822   0.65484   0.39644   0.00000  Uiso   1.00
N90    N     0.25645   0.78127   0.04185   0.00000  Uiso   1.00
N91    N     0.66833   0.34207   0.22825   0.00000  Uiso   1.00
N92    N     0.55825   0.60202   0.45854   0.00000  Uiso   1.00
C93    C     0.00579   0.19860   0.62573   0.00000  Uiso   1.00
C94    C     0.12674   0.18849   0.67436   0.00000  Uiso   1.00
C95    C     0.10282   0.19121   0.73944   0.00000  Uiso   1.00
C96    C     0.22820   0.18060   0.77584   0.00000  Uiso   1.00
C97    C     0.39412   0.16689   0.85555   0.00000  Uiso   1.00
C98    C     0.08386   0.26206   0.54943   0.00000  Uiso   1.00
C99    C     0.02387   0.32664   0.50947   0.00000  Uiso   1.00
C100   C     0.11315   0.37796   0.44070   0.00000  Uiso   1.00
C101   C     0.21244   0.47845   0.32643   0.00000  Uiso   1.00
C102   C     0.98851   0.12904   0.61838   0.00000  Uiso   1.00
C103   C     0.84836   0.08178   0.63638   0.00000  Uiso   1.00
C104   C     0.85736   0.02111   0.62564   0.00000  Uiso   1.00
C105   C     0.80861   0.91507   0.61843   0.00000  Uiso   1.00
C106   C     0.27099   0.17492   0.57463   0.00000  Uiso   1.00
C107   C     0.27078   0.17563   0.64660   0.00000  Uiso   1.00
C108   C     0.39623   0.16501   0.68291   0.00000  Uiso   1.00
C109   C     0.37251   0.16771   0.74804   0.00000  Uiso   1.00
C110   C     0.22790   0.24920   0.52167   0.00000  Uiso   1.00
C111   C     0.31728   0.30044   0.45294   0.00000  Uiso   1.00
C112   C     0.25746   0.36507   0.41289   0.00000  Uiso   1.00
C113   C     0.13256   0.11618   0.59063   0.00000  Uiso   1.00
C114   C     0.14177   0.05558   0.57985   0.00000  Uiso   1.00
C115   C     0.00166   0.00823   0.59783   0.00000  Uiso   1.00
H116   H     0.89365   0.20862   0.64733   0.00000  Uiso   1.00
H117   H     0.99133   0.20117   0.76090   0.00000  Uiso   1.00
H118   H     0.91239   0.33657   0.53096   0.00000  Uiso   1.00
H119   H     0.73691   0.09175   0.65785   0.00000  Uiso   1.00
H120   H     0.16319   0.18727   0.87456   0.00000  Uiso   1.00
H121   H     0.99671   0.47276   0.38971   0.00000  Uiso   1.00
H122   H     0.62666   0.95650   0.65728   0.00000  Uiso   1.00
H123   H     0.38314   0.16491   0.55302   0.00000  Uiso   1.00
H124   H     0.50769   0.15506   0.66142   0.00000  Uiso   1.00
H125   H     0.42874   0.29046   0.43148   0.00000  Uiso   1.00
H126   H     0.25326   0.04564   0.55837   0.00000  Uiso   1.00
H127   H     0.58228   0.14984   0.79381   0.00000  Uiso   1.00
H128   H     0.41579   0.43533   0.30896   0.00000  Uiso   1.00
H129   H     0.04576   0.91908   0.57653   0.00000  Uiso   1.00
O130   O     0.44585   0.16289   0.90718   0.00000  Uiso   1.00
O131   O     0.22742   0.53743   0.27107   0.00000  Uiso   1.00
O132   O     0.74193   0.86012   0.62213   0.00000  Uiso   1.00
N133   N     0.24472   0.17979   0.84069   0.00000  Uiso   1.00
N134   N     0.08908   0.44672   0.38738   0.00000  Uiso   1.00
N135   N     0.74311   0.96407   0.63753   0.00000  Uiso   1.00
N136   N     0.47023   0.15966   0.79724   0.00000  Uiso   1.00
N137   N     0.31459   0.42658   0.34394   0.00000  Uiso   1.00
N138   N     0.96862   0.94394   0.59408   0.00000  Uiso   1.00
C139   C     0.18952   0.81916   0.80616   0.00000  Uiso   1.00
C140   C     0.06166   0.86448   0.81055   0.00000  Uiso   1.00
C141   C     0.08614   0.93219   0.80860   0.00000  Uiso   1.00
C142   C     0.95376   0.96479   0.81334   0.00000  Uiso   1.00
C143   C     0.77825   0.04033   0.81913   0.00000  Uiso   1.00
C144   C     0.17471   0.80720   0.74122   0.00000  Uiso   1.00
C145   C     0.29426   0.82674   0.68098   0.00000  Uiso   1.00
C146   C     0.25704   0.81112   0.62735   0.00000  Uiso   1.00
C147   C     0.25709   0.79768   0.52553   0.00000  Uiso   1.00
C148   C     0.14124   0.74299   0.87486   0.00000  Uiso   1.00
C149   C     0.23265   0.70853   0.92698   0.00000  Uiso   1.00
C150   C     0.16727   0.63883   0.98586   0.00000  Uiso   1.00
C151   C     0.11534   0.52570   0.09153   0.00000  Uiso   1.00
C152   C     0.91087   0.75666   0.81804   0.00000  Uiso   1.00
C153   C     0.91030   0.83053   0.81700   0.00000  Uiso   1.00
C154   C     0.77785   0.86303   0.82174   0.00000  Uiso   1.00
C155   C     0.80213   0.93078   0.81980   0.00000  Uiso   1.00
C156   C     0.02336   0.77325   0.74767   0.00000  Uiso   1.00
C157   C     0.98596   0.75759   0.69412   0.00000  Uiso   1.00
C158   C     0.10542   0.77711   0.63382   0.00000  Uiso   1.00
C159   C     0.98988   0.70904   0.88131   0.00000  Uiso   1.00
C160   C     0.92435   0.63938   0.94012   0.00000  Uiso   1.00
C161   C     0.01565   0.60482   0.99232   0.00000  Uiso   1.00
H162   H     0.30735   0.84560   0.80114   0.00000  Uiso   1.00
H163   H     0.20329   0.95845   0.80360   0.00000  Uiso   1.00
H164   H     0.41137   0.85301   0.67601   0.00000  Uiso   1.00
H165   H     0.34977   0.73482   0.92197   0.00000  Uiso   1.00
H166   H     0.02118   0.06860   0.80915   0.00000  Uiso   1.00
H167   H     0.45995   0.84626   0.54012   0.00000  Uiso   1.00
H168   H     0.33006   0.59703   0.05877   0.00000  Uiso   1.00
H169   H     0.79303   0.73023   0.82306   0.00000  Uiso   1.00
H170   H     0.66074   0.83675   0.82673   0.00000  Uiso   1.00
H171   H     0.86883   0.73131   0.69913   0.00000  Uiso   1.00
H172   H     0.80723   0.61312   0.94509   0.00000  Uiso   1.00
H173   H     0.58082   0.96983   0.82793   0.00000  Uiso   1.00
H174   H     0.01960   0.74748   0.55889   0.00000  Uiso   1.00
H175   H     0.88970   0.49826   0.07754   0.00000  Uiso   1.00
O176   O     0.72326   0.09138   0.82053   0.00000  Uiso   1.00
O177   O     0.29893   0.79966   0.46758   0.00000  Uiso   1.00
O178   O     0.12850   0.47268   0.14804   0.00000  Uiso   1.00
N179   N     0.93569   0.03073   0.81308   0.00000  Uiso   1.00
N180   N     0.34591   0.82286   0.56155   0.00000  Uiso   1.00
N181   N     0.22449   0.58985   0.04643   0.00000  Uiso   1.00
N182   N     0.69874   0.97758   0.82318   0.00000  Uiso   1.00
N183   N     0.10896   0.76971   0.57165   0.00000  Uiso   1.00
N184   N     0.98754   0.53670   0.05653   0.00000  Uiso   1.00
C185   C     0.36815   0.36737   0.82470   0.00000  Uiso   1.00
C186   C     0.20164   0.32475   0.86341   0.00000  Uiso   1.00
C187   C     0.16191   0.25949   0.93055   0.00000  Uiso   1.00
C188   C     0.00292   0.22913   0.95667   0.00000  Uiso   1.00
C189   C     0.76185   0.15784   0.02283   0.00000  Uiso   1.00
C190   C     0.36371   0.44579   0.81205   0.00000  Uiso   1.00
C191   C     0.46027   0.48231   0.83600   0.00000  Uiso   1.00
C192   C     0.43772   0.55386   0.81887   0.00000  Uiso   1.00
C193   C     0.44835   0.67051   0.80524   0.00000  Uiso   1.00
C194   C     0.39403   0.37414   0.74859   0.00000  Uiso   1.00
C195   C     0.51611   0.35043   0.71917   0.00000  Uiso   1.00
C196   C     0.51912   0.36167   0.64860   0.00000  Uiso   1.00
C197   C     0.57683   0.36707   0.53644   0.00000  Uiso   1.00
C198   C     0.15645   0.42949   0.75166   0.00000  Uiso   1.00
C199   C     0.08665   0.35849   0.82373   0.00000  Uiso   1.00
C200   C     0.92768   0.32822   0.84975   0.00000  Uiso   1.00
C201   C     0.88772   0.26294   0.91692   0.00000  Uiso   1.00
C202   C     0.24872   0.47954   0.77238   0.00000  Uiso   1.00
C203   C     0.22604   0.55104   0.75520   0.00000  Uiso   1.00
C204   C     0.32252   0.58766   0.77912   0.00000  Uiso   1.00
C205   C     0.27904   0.40788   0.70891   0.00000  Uiso   1.00
C206   C     0.28187   0.41916   0.63837   0.00000  Uiso   1.00
C207   C     0.40392   0.39547   0.60885   0.00000  Uiso   1.00
H208   H     0.45768   0.34110   0.85558   0.00000  Uiso   1.00
H209   H     0.25093   0.23340   0.96124   0.00000  Uiso   1.00
H210   H     0.54925   0.45619   0.86669   0.00000  Uiso   1.00
H211   H     0.60507   0.32432   0.74989   0.00000  Uiso   1.00
H212   H     0.97099   0.12889   0.06091   0.00000  Uiso   1.00
H213   H     0.60005   0.59866   0.86153   0.00000  Uiso   1.00
H214   H     0.71778   0.32060   0.61521   0.00000  Uiso   1.00
H215   H     0.06692   0.45576   0.72077   0.00000  Uiso   1.00
H216   H     0.83872   0.35435   0.81904   0.00000  Uiso   1.00
H217   H     0.13705   0.57714   0.72449   0.00000  Uiso   1.00
H218   H     0.19287   0.44528   0.60768   0.00000  Uiso   1.00
H219   H     0.63643   0.22706   0.94549   0.00000  Uiso   1.00
H220   H     0.26550   0.69683   0.74611   0.00000  Uiso   1.00
H221   H     0.38321   0.41877   0.49980   0.00000  Uiso   1.00
O222   O     0.66064   0.10920   0.07029   0.00000  Uiso   1.00
O223   O     0.48597   0.72553   0.80870   0.00000  Uiso   1.00
O224   O     0.64041   0.36072   0.48554   0.00000  Uiso   1.00
N225   N     0.92357   0.16590   0.02025   0.00000  Uiso   1.00
N226   N     0.51169   0.60510   0.83385   0.00000  Uiso   1.00
N227   N     0.62178   0.34516   0.60356   0.00000  Uiso   1.00
N228   N     0.74355   0.21873   0.95815   0.00000  Uiso   1.00
N229   N     0.33167   0.65793   0.77175   0.00000  Uiso   1.00
N230   N     0.44175   0.39798   0.54146   0.00000  Uiso   1.00
C231   C     0.99421   0.80140   0.37427   0.00000  Uiso   1.00
C232   C     0.87326   0.81151   0.32564   0.00000  Uiso   1.00
C233   C     0.89718   0.80879   0.26056   0.00000  Uiso   1.00
C234   C     0.77180   0.81940   0.22416   0.00000  Uiso   1.00
C235   C     0.60588   0.83311   0.14445   0.00000  Uiso   1.00
C236   C     0.91614   0.73794   0.45057   0.00000  Uiso   1.00
C237   C     0.97613   0.67336   0.49053   0.00000  Uiso   1.00
C238   C     0.88685   0.62204   0.55931   0.00000  Uiso   1.00
C239   C     0.78756   0.52155   0.67357   0.00000  Uiso   1.00
C240   C     0.01149   0.87096   0.38162   0.00000  Uiso   1.00
C241   C     0.15164   0.91822   0.36362   0.00000  Uiso   1.00
C242   C     0.14264   0.97889   0.37436   0.00000  Uiso   1.00
C243   C     0.19139   0.08493   0.38157   0.00000  Uiso   1.00
C244   C     0.72901   0.82508   0.42537   0.00000  Uiso   1.00
C245   C     0.72922   0.82437   0.35340   0.00000  Uiso   1.00
C246   C     0.60377   0.83499   0.31709   0.00000  Uiso   1.00
C247   C     0.62749   0.83229   0.25196   0.00000  Uiso   1.00
C248   C     0.77210   0.75080   0.47833   0.00000  Uiso   1.00
C249   C     0.68272   0.69956   0.54706   0.00000  Uiso   1.00
C250   C     0.74254   0.63493   0.58711   0.00000  Uiso   1.00
C251   C     0.86744   0.88382   0.40937   0.00000  Uiso   1.00
C252   C     0.85823   0.94442   0.42015   0.00000  Uiso   1.00
C253   C     0.99834   0.99177   0.40217   0.00000  Uiso   1.00
H254   H     0.10635   0.79138   0.35267   0.00000  Uiso   1.00
H255   H     0.00867   0.79883   0.23910   0.00000  Uiso   1.00
H256   H     0.08761   0.66343   0.46904   0.00000  Uiso   1.00
H257   H     0.26309   0.90825   0.34215   0.00000  Uiso   1.00
H258   H     0.83682   0.81273   0.12544   0.00000  Uiso   1.00
H259   H     0.00330   0.52724   0.61029   0.00000  Uiso   1.00
H260   H     0.37334   0.04350   0.34272   0.00000  Uiso   1.00
H261   H     0.61686   0.83509   0.44698   0.00000  Uiso   1.00
H262   H     0.49231   0.84494   0.33858   0.00000  Uiso   1.00
H263   H     0.57126   0.70954   0.56853   0.00000  Uiso   1.00
H264   H     0.74674   0.95436   0.44163   0.00000  Uiso   1.00
H265   H     0.41772   0.85016   0.20619   0.00000  Uiso   1.00
H266   H     0.58421   0.56467   0.69104   0.00000  Uiso   1.00
H267   H     0.95424   0.08092   0.42347   0.00000  Uiso   1.00
O268   O     0.55415   0.83711   0.09282   0.00000  Uiso   1.00
O269   O     0.77258   0.46257   0.72893   0.00000  Uiso   1.00
O270   O     0.25807   0.13988   0.37788   0.00000  Uiso   1.00
N271   N     0.75528   0.82021   0.15931   0.00000  Uiso   1.00
N272   N     0.91092   0.55328   0.61262   0.00000  Uiso   1.00
N273   N     0.25689   0.03593   0.36247   0.00000  Uiso   1.00
N274   N     0.52977   0.84034   0.20276   0.00000  Uiso   1.00
N275   N     0.68541   0.57342   0.65607   0.00000  Uiso   1.00
N276   N     0.03138   0.05606   0.40592   0.00000  Uiso   1.00
