data_job_06680
_audit_creation_date              2018-12-19
_audit_creation_method            'Materials Studio'
_symmetry_space_group_name_H-M    'P1'
_symmetry_Int_Tables_number       1
_symmetry_cell_setting            triclinic
loop_
_symmetry_equiv_pos_as_xyz
  x,y,z
_cell_length_a                    21.4564
_cell_length_b                    22.5052
_cell_length_c                    24.5553
_cell_angle_alpha                 75.0112
_cell_angle_beta                  101.5401
_cell_angle_gamma                 61.6156
loop_
_atom_site_label
_atom_site_type_symbol
_atom_site_fract_x
_atom_site_fract_y
_atom_site_fract_z
_atom_site_U_iso_or_equiv
_atom_site_adp_type
_atom_site_occupancy
C1     C     0.74816   0.01532   0.38740   0.00000  Uiso   1.00
C2     C     0.76453   0.94849   0.43901   0.00000  Uiso   1.00
C3     C     0.83616   0.89051   0.48274   0.00000  Uiso   1.00
C4     C     0.83910   0.83457   0.52612   0.00000  Uiso   1.00
C5     C     0.87461   0.73047   0.60630   0.00000  Uiso   1.00
C6     C     0.70625   0.01668   0.32861   0.00000  Uiso   1.00
C7     C     0.72887   0.01604   0.27950   0.00000  Uiso   1.00
C8     C     0.68274   0.01752   0.22995   0.00000  Uiso   1.00
C9     C     0.62774   0.01934   0.13870   0.00000  Uiso   1.00
C10    C     0.68999   0.08337   0.39409   0.00000  Uiso   1.00
C11    C     0.69893   0.13883   0.40003   0.00000  Uiso   1.00
C12    C     0.63910   0.19647   0.40559   0.00000  Uiso   1.00
C13    C     0.55885   0.30184   0.41602   0.00000  Uiso   1.00
C14    C     0.62600   0.01909   0.38669   0.00000  Uiso   1.00
C15    C     0.69818   0.95054   0.43862   0.00000  Uiso   1.00
C16    C     0.70100   0.89468   0.48195   0.00000  Uiso   1.00
C17    C     0.77262   0.83662   0.52574   0.00000  Uiso   1.00
C18    C     0.63990   0.01873   0.32822   0.00000  Uiso   1.00
C19    C     0.59371   0.02021   0.27872   0.00000  Uiso   1.00
C20    C     0.61626   0.01957   0.22956   0.00000  Uiso   1.00
C21    C     0.62364   0.08542   0.39371   0.00000  Uiso   1.00
C22    C     0.56377   0.14299   0.39925   0.00000  Uiso   1.00
C23    C     0.57262   0.19852   0.40520   0.00000  Uiso   1.00
H24    H     0.79982   0.01373   0.38770   0.00000  Uiso   1.00
H25    H     0.88750   0.88894   0.48302   0.00000  Uiso   1.00
H26    H     0.78022   0.01447   0.27981   0.00000  Uiso   1.00
H27    H     0.75029   0.13723   0.40033   0.00000  Uiso   1.00
H28    H     0.95545   0.75148   0.58851   0.00000  Uiso   1.00
H29    H     0.72923   0.01618   0.16004   0.00000  Uiso   1.00
H30    H     0.66611   0.27505   0.41416   0.00000  Uiso   1.00
H31    H     0.57434   0.02069   0.38639   0.00000  Uiso   1.00
H32    H     0.64964   0.89628   0.48164   0.00000  Uiso   1.00
H33    H     0.54237   0.02180   0.27844   0.00000  Uiso   1.00
H34    H     0.51243   0.14456   0.39895   0.00000  Uiso   1.00
H35    H     0.76240   0.75743   0.58740   0.00000  Uiso   1.00
H36    H     0.53618   0.02214   0.15892   0.00000  Uiso   1.00
H37    H     0.47306   0.28100   0.41304   0.00000  Uiso   1.00
O38    O     0.91253   0.67247   0.65063   0.00000  Uiso   1.00
O39    O     0.61574   0.01977   0.08848   0.00000  Uiso   1.00
O40    O     0.53293   0.35939   0.42188   0.00000  Uiso   1.00
N41    N     0.89968   0.76996   0.57519   0.00000  Uiso   1.00
N42    N     0.68819   0.01743   0.17459   0.00000  Uiso   1.00
N43    N     0.62916   0.25946   0.41216   0.00000  Uiso   1.00
N44    N     0.79580   0.77316   0.57459   0.00000  Uiso   1.00
N45    N     0.58431   0.02063   0.17399   0.00000  Uiso   1.00
N46    N     0.52528   0.26266   0.41156   0.00000  Uiso   1.00
C47    C     0.13287   0.20219   0.49985   0.00000  Uiso   1.00
C48    C     0.16937   0.14813   0.56653   0.00000  Uiso   1.00
C49    C     0.19101   0.07505   0.58752   0.00000  Uiso   1.00
C50    C     0.22342   0.03472   0.65024   0.00000  Uiso   1.00
C51    C     0.27848   0.94597   0.74766   0.00000  Uiso   1.00
C52    C     0.05782   0.26887   0.49257   0.00000  Uiso   1.00
C53    C     0.98568   0.29732   0.45135   0.00000  Uiso   1.00
C54    C     0.92419   0.35864   0.45180   0.00000  Uiso   1.00
C55    C     0.80608   0.45737   0.43436   0.00000  Uiso   1.00
C56    C     0.18448   0.22954   0.49120   0.00000  Uiso   1.00
C57    C     0.21882   0.22494   0.44883   0.00000  Uiso   1.00
C58    C     0.26396   0.25316   0.44812   0.00000  Uiso   1.00
C59    C     0.34252   0.29083   0.42856   0.00000  Uiso   1.00
C60    C     0.15195   0.26052   0.57392   0.00000  Uiso   1.00
C61    C     0.17973   0.17982   0.60676   0.00000  Uiso   1.00
C62    C     0.21212   0.13959   0.66947   0.00000  Uiso   1.00
C63    C     0.23381   0.06646   0.69054   0.00000  Uiso   1.00
C64    C     0.06819   0.30056   0.53280   0.00000  Uiso   1.00
C65    C     0.00679   0.36185   0.53330   0.00000  Uiso   1.00
C66    C     0.93457   0.39038   0.49211   0.00000  Uiso   1.00
C67    C     0.19485   0.26122   0.53143   0.00000  Uiso   1.00
C68    C     0.23994   0.28947   0.53078   0.00000  Uiso   1.00
C69    C     0.27435   0.28490   0.48842   0.00000  Uiso   1.00
H70    H     0.12479   0.17753   0.46852   0.00000  Uiso   1.00
H71    H     0.18297   0.05055   0.55636   0.00000  Uiso   1.00
H72    H     0.97767   0.27279   0.42022   0.00000  Uiso   1.00
H73    H     0.21078   0.20041   0.41770   0.00000  Uiso   1.00
H74    H     0.25201   0.92376   0.67150   0.00000  Uiso   1.00
H75    H     0.81914   0.39237   0.38441   0.00000  Uiso   1.00
H76    H     0.31070   0.23976   0.37910   0.00000  Uiso   1.00
H77    H     0.16002   0.28519   0.60524   0.00000  Uiso   1.00
H78    H     0.22014   0.16412   0.70059   0.00000  Uiso   1.00
H79    H     0.01484   0.38636   0.56444   0.00000  Uiso   1.00
H80    H     0.24795   0.31398   0.56193   0.00000  Uiso   1.00
H81    H     0.28218   0.01594   0.78856   0.00000  Uiso   1.00
H82    H     0.84930   0.48455   0.50147   0.00000  Uiso   1.00
H83    H     0.34087   0.33194   0.49616   0.00000  Uiso   1.00
O84    O     0.30598   0.88827   0.79029   0.00000  Uiso   1.00
O85    O     0.73807   0.50308   0.41363   0.00000  Uiso   1.00
O86    O     0.38299   0.30285   0.40666   0.00000  Uiso   1.00
N87    N     0.25088   0.96207   0.68596   0.00000  Uiso   1.00
N88    N     0.84616   0.40018   0.41756   0.00000  Uiso   1.00
N89    N     0.30572   0.25752   0.41258   0.00000  Uiso   1.00
N90    N     0.26711   0.01166   0.74895   0.00000  Uiso   1.00
N91    N     0.86240   0.44978   0.48055   0.00000  Uiso   1.00
N92    N     0.32195   0.30712   0.47557   0.00000  Uiso   1.00
C93    C     0.35166   0.60109   0.54906   0.00000  Uiso   1.00
C94    C     0.41830   0.53696   0.60731   0.00000  Uiso   1.00
C95    C     0.41310   0.50987   0.66262   0.00000  Uiso   1.00
C96    C     0.48069   0.45085   0.71048   0.00000  Uiso   1.00
C97    C     0.57350   0.35597   0.80204   0.00000  Uiso   1.00
C98    C     0.37278   0.65699   0.53034   0.00000  Uiso   1.00
C99    C     0.32929   0.73082   0.52092   0.00000  Uiso   1.00
C100   C     0.35856   0.77285   0.50397   0.00000  Uiso   1.00
C101   C     0.38067   0.86433   0.47598   0.00000  Uiso   1.00
C102   C     0.35249   0.57052   0.50038   0.00000  Uiso   1.00
C103   C     0.29194   0.57167   0.46576   0.00000  Uiso   1.00
C104   C     0.30412   0.54092   0.42357   0.00000  Uiso   1.00
C105   C     0.29472   0.49815   0.34906   0.00000  Uiso   1.00
C106   C     0.48095   0.54444   0.53569   0.00000  Uiso   1.00
C107   C     0.48853   0.50619   0.60005   0.00000  Uiso   1.00
C108   C     0.55615   0.44719   0.64783   0.00000  Uiso   1.00
C109   C     0.55104   0.42002   0.70320   0.00000  Uiso   1.00
C110   C     0.44301   0.62622   0.52307   0.00000  Uiso   1.00
C111   C     0.47234   0.66815   0.50613   0.00000  Uiso   1.00
C112   C     0.42891   0.74202   0.49669   0.00000  Uiso   1.00
C113   C     0.42272   0.53975   0.49311   0.00000  Uiso   1.00
C114   C     0.43499   0.50899   0.45097   0.00000  Uiso   1.00
C115   C     0.37447   0.51009   0.41629   0.00000  Uiso   1.00
H116   H     0.29698   0.62505   0.55472   0.00000  Uiso   1.00
H117   H     0.35874   0.53370   0.66823   0.00000  Uiso   1.00
H118   H     0.27495   0.75462   0.52654   0.00000  Uiso   1.00
H119   H     0.23760   0.59549   0.47139   0.00000  Uiso   1.00
H120   H     0.45818   0.41887   0.79088   0.00000  Uiso   1.00
H121   H     0.28149   0.88470   0.49211   0.00000  Uiso   1.00
H122   H     0.20274   0.54914   0.37580   0.00000  Uiso   1.00
H123   H     0.53563   0.52049   0.53003   0.00000  Uiso   1.00
H124   H     0.61048   0.42339   0.64219   0.00000  Uiso   1.00
H125   H     0.52669   0.64432   0.50051   0.00000  Uiso   1.00
H126   H     0.48935   0.48519   0.44536   0.00000  Uiso   1.00
H127   H     0.66251   0.32934   0.76975   0.00000  Uiso   1.00
H128   H     0.48581   0.79517   0.47098   0.00000  Uiso   1.00
H129   H     0.40706   0.45961   0.35468   0.00000  Uiso   1.00
O130   O     0.60529   0.31214   0.85455   0.00000  Uiso   1.00
O131   O     0.37346   0.92329   0.46256   0.00000  Uiso   1.00
O132   O     0.27014   0.48304   0.30998   0.00000  Uiso   1.00
N133   N     0.49600   0.41111   0.77051   0.00000  Uiso   1.00
N134   N     0.33080   0.84663   0.49119   0.00000  Uiso   1.00
N135   N     0.25717   0.53294   0.38244   0.00000  Uiso   1.00
N136   N     0.60594   0.36294   0.75914   0.00000  Uiso   1.00
N137   N     0.44075   0.79846   0.47982   0.00000  Uiso   1.00
N138   N     0.36712   0.48476   0.37107   0.00000  Uiso   1.00
C139   C     0.72968   0.64065   0.03400   0.00000  Uiso   1.00
C140   C     0.73345   0.58199   0.08512   0.00000  Uiso   1.00
C141   C     0.77226   0.55708   0.14700   0.00000  Uiso   1.00
C142   C     0.76874   0.50314   0.18649   0.00000  Uiso   1.00
C143   C     0.78078   0.41635   0.26916   0.00000  Uiso   1.00
C144   C     0.64479   0.70039   0.99731   0.00000  Uiso   1.00
C145   C     0.60907   0.77503   0.98536   0.00000  Uiso   1.00
C146   C     0.53092   0.82075   0.95093   0.00000  Uiso   1.00
C147   C     0.40533   0.91779   0.89724   0.00000  Uiso   1.00
C148   C     0.75920   0.60426   0.99222   0.00000  Uiso   1.00
C149   C     0.81967   0.59809   0.97598   0.00000  Uiso   1.00
C150   C     0.83783   0.56290   0.93725   0.00000  Uiso   1.00
C151   C     0.88988   0.51068   0.87567   0.00000  Uiso   1.00
C152   C     0.65440   0.58914   0.99409   0.00000  Uiso   1.00
C153   C     0.69255   0.55402   0.06344   0.00000  Uiso   1.00
C154   C     0.68897   0.50009   0.10285   0.00000  Uiso   1.00
C155   C     0.72778   0.47511   0.16478   0.00000  Uiso   1.00
C156   C     0.60390   0.67242   0.97564   0.00000  Uiso   1.00
C157   C     0.52578   0.71804   0.94121   0.00000  Uiso   1.00
C158   C     0.48996   0.79273   0.92921   0.00000  Uiso   1.00
C159   C     0.71831   0.57628   0.97055   0.00000  Uiso   1.00
C160   C     0.73638   0.54110   0.93184   0.00000  Uiso   1.00
C161   C     0.79687   0.53487   0.91554   0.00000  Uiso   1.00
H162   H     0.76151   0.66243   0.05087   0.00000  Uiso   1.00
H163   H     0.80390   0.57875   0.16375   0.00000  Uiso   1.00
H164   H     0.64073   0.79666   0.00213   0.00000  Uiso   1.00
H165   H     0.85130   0.61975   0.99276   0.00000  Uiso   1.00
H166   H     0.83283   0.47366   0.27934   0.00000  Uiso   1.00
H167   H     0.48880   0.93314   0.93854   0.00000  Uiso   1.00
H168   H     0.93282   0.56009   0.91878   0.00000  Uiso   1.00
H169   H     0.62256   0.56736   0.97722   0.00000  Uiso   1.00
H170   H     0.65732   0.47845   0.08606   0.00000  Uiso   1.00
H171   H     0.49416   0.69637   0.92444   0.00000  Uiso   1.00
H172   H     0.70472   0.51946   0.91507   0.00000  Uiso   1.00
H173   H     0.71387   0.39226   0.21629   0.00000  Uiso   1.00
H174   H     0.36983   0.85174   0.87549   0.00000  Uiso   1.00
H175   H     0.81385   0.47869   0.85573   0.00000  Uiso   1.00
O176   O     0.79871   0.37621   0.32075   0.00000  Uiso   1.00
O177   O     0.34735   0.97904   0.87362   0.00000  Uiso   1.00
O178   O     0.92989   0.48959   0.84770   0.00000  Uiso   1.00
N179   N     0.80008   0.46669   0.24957   0.00000  Uiso   1.00
N180   N     0.47842   0.89628   0.93095   0.00000  Uiso   1.00
N181   N     0.89353   0.54752   0.91246   0.00000  Uiso   1.00
N182   N     0.73606   0.42289   0.21564   0.00000  Uiso   1.00
N183   N     0.41441   0.85248   0.89702   0.00000  Uiso   1.00
N184   N     0.82952   0.50372   0.87853   0.00000  Uiso   1.00
C185   C     0.85240   0.11859   0.01894   0.00000  Uiso   1.00
C186   C     0.91466   0.09521   0.07797   0.00000  Uiso   1.00
C187   C     0.90503   0.09632   0.13201   0.00000  Uiso   1.00
C188   C     0.96907   0.07273   0.18089   0.00000  Uiso   1.00
C189   C     0.05495   0.04001   0.27334   0.00000  Uiso   1.00
C190   C     0.88219   0.05209   0.00232   0.00000  Uiso   1.00
C191   C     0.84524   0.01697   0.99274   0.00000  Uiso   1.00
C192   C     0.88195   0.95708   0.97793   0.00000  Uiso   1.00
C193   C     0.91738   0.85746   0.95288   0.00000  Uiso   1.00
C194   C     0.85003   0.17839   0.97016   0.00000  Uiso   1.00
C195   C     0.78604   0.24945   0.93352   0.00000  Uiso   1.00
C196   C     0.79566   0.29590   0.89162   0.00000  Uiso   1.00
C197   C     0.78117   0.39238   0.81663   0.00000  Uiso   1.00
C198   C     0.98327   0.07471   0.00966   0.00000  Uiso   1.00
C199   C     0.98575   0.07137   0.07294   0.00000  Uiso   1.00
C200   C     0.04982   0.04777   0.12175   0.00000  Uiso   1.00
C201   C     0.04028   0.04885   0.17584   0.00000  Uiso   1.00
C202   C     0.95327   0.02825   0.99728   0.00000  Uiso   1.00
C203   C     0.99003   0.96841   0.98248   0.00000  Uiso   1.00
C204   C     0.95316   0.93320   0.97288   0.00000  Uiso   1.00
C205   C     0.92111   0.15456   0.96512   0.00000  Uiso   1.00
C206   C     0.93084   0.20090   0.92326   0.00000  Uiso   1.00
C207   C     0.86688   0.27202   0.88657   0.00000  Uiso   1.00
H208   H     0.79706   0.13714   0.02286   0.00000  Uiso   1.00
H209   H     0.85001   0.11477   0.13589   0.00000  Uiso   1.00
H210   H     0.79023   0.03543   0.99663   0.00000  Uiso   1.00
H211   H     0.73104   0.26788   0.93743   0.00000  Uiso   1.00
H212   H     0.94007   0.07942   0.25899   0.00000  Uiso   1.00
H213   H     0.81401   0.91215   0.96535   0.00000  Uiso   1.00
H214   H     0.68920   0.40232   0.84050   0.00000  Uiso   1.00
H215   H     0.03861   0.05615   0.00574   0.00000  Uiso   1.00
H216   H     0.10482   0.02933   0.11784   0.00000  Uiso   1.00
H217   H     0.04504   0.94999   0.97858   0.00000  Uiso   1.00
H218   H     0.98585   0.18244   0.91938   0.00000  Uiso   1.00
H219   H     0.14689   0.01007   0.24434   0.00000  Uiso   1.00
H220   H     0.02082   0.84280   0.95069   0.00000  Uiso   1.00
H221   H     0.89601   0.33297   0.82585   0.00000  Uiso   1.00
O222   O     0.08268   0.02854   0.32572   0.00000  Uiso   1.00
O223   O     0.91729   0.80909   0.94046   0.00000  Uiso   1.00
O224   O     0.75354   0.45218   0.77667   0.00000  Uiso   1.00
N225   N     0.97965   0.06680   0.24016   0.00000  Uiso   1.00
N226   N     0.86180   0.91039   0.96563   0.00000  Uiso   1.00
N227   N     0.74511   0.36866   0.84889   0.00000  Uiso   1.00
N228   N     0.09094   0.02948   0.23227   0.00000  Uiso   1.00
N229   N     0.97309   0.87308   0.95774   0.00000  Uiso   1.00
N230   N     0.85639   0.33134   0.84101   0.00000  Uiso   1.00
C231   C     0.35960   0.14302   0.03279   0.00000  Uiso   1.00
C232   C     0.36191   0.12874   0.09758   0.00000  Uiso   1.00
C233   C     0.40081   0.05968   0.14555   0.00000  Uiso   1.00
C234   C     0.39585   0.05836   0.20132   0.00000  Uiso   1.00
C235   C     0.40592   0.02624   0.30079   0.00000  Uiso   1.00
C236   C     0.38834   0.19330   0.01889   0.00000  Uiso   1.00
C237   C     0.44944   0.17853   0.00069   0.00000  Uiso   1.00
C238   C     0.46671   0.23157   0.99021   0.00000  Uiso   1.00
C239   C     0.51777   0.29971   0.96748   0.00000  Uiso   1.00
C240   C     0.27510   0.18955   0.99132   0.00000  Uiso   1.00
C241   C     0.24100   0.17164   0.94992   0.00000  Uiso   1.00
C242   C     0.16293   0.22152   0.91621   0.00000  Uiso   1.00
C243   C     0.03818   0.28383   0.85066   0.00000  Uiso   1.00
C244   C     0.28161   0.26346   0.04652   0.00000  Uiso   1.00
C245   C     0.31955   0.19416   0.10504   0.00000  Uiso   1.00
C246   C     0.31452   0.19295   0.16074   0.00000  Uiso   1.00
C247   C     0.35341   0.12390   0.20879   0.00000  Uiso   1.00
C248   C     0.34598   0.25872   0.02635   0.00000  Uiso   1.00
C249   C     0.36316   0.31179   0.01589   0.00000  Uiso   1.00
C250   C     0.42428   0.29711   0.99768   0.00000  Uiso   1.00
C251   C     0.23274   0.25497   0.99877   0.00000  Uiso   1.00
C252   C     0.15471   0.30490   0.96512   0.00000  Uiso   1.00
C253   C     0.12050   0.28706   0.92368   0.00000  Uiso   1.00
H254   H     0.39258   0.09208   0.02699   0.00000  Uiso   1.00
H255   H     0.43360   0.00907   0.13976   0.00000  Uiso   1.00
H256   H     0.48221   0.12790   0.99492   0.00000  Uiso   1.00
H257   H     0.27380   0.12100   0.94416   0.00000  Uiso   1.00
H258   H     0.46041   0.94588   0.26809   0.00000  Uiso   1.00
H259   H     0.56290   0.19646   0.96267   0.00000  Uiso   1.00
H260   H     0.12343   0.18192   0.85562   0.00000  Uiso   1.00
H261   H     0.24862   0.31440   0.05233   0.00000  Uiso   1.00
H262   H     0.28174   0.24358   0.16650   0.00000  Uiso   1.00
H263   H     0.33036   0.36242   0.02166   0.00000  Uiso   1.00
H264   H     0.12195   0.35552   0.97090   0.00000  Uiso   1.00
H265   H     0.33716   0.13622   0.28980   0.00000  Uiso   1.00
H266   H     0.43965   0.38681   0.98437   0.00000  Uiso   1.00
H267   H     0.00018   0.37226   0.87732   0.00000  Uiso   1.00
O268   O     0.42319   0.99045   0.35360   0.00000  Uiso   1.00
O269   O     0.55765   0.31921   0.95288   0.00000  Uiso   1.00
O270   O     0.98107   0.30012   0.81244   0.00000  Uiso   1.00
N271   N     0.42685   0.00039   0.25753   0.00000  Uiso   1.00
N272   N     0.52268   0.23467   0.97198   0.00000  Uiso   1.00
N273   N     0.11181   0.22108   0.87189   0.00000  Uiso   1.00
N274   N     0.36053   0.10282   0.26921   0.00000  Uiso   1.00
N275   N     0.45636   0.33709   0.98366   0.00000  Uiso   1.00
N276   N     0.04549   0.32350   0.88357   0.00000  Uiso   1.00
C277   C     0.18145   0.35083   0.74827   0.00000  Uiso   1.00
C278   C     0.18876   0.39061   0.69183   0.00000  Uiso   1.00
C279   C     0.14757   0.40911   0.63202   0.00000  Uiso   1.00
C280   C     0.16260   0.44542   0.58683   0.00000  Uiso   1.00
C281   C     0.16567   0.50461   0.49704   0.00000  Uiso   1.00
C282   C     0.16245   0.40121   0.78211   0.00000  Uiso   1.00
C283   C     0.09914   0.42861   0.79820   0.00000  Uiso   1.00
C284   C     0.09202   0.47383   0.82901   0.00000  Uiso   1.00
C285   C     0.05427   0.54943   0.87941   0.00000  Uiso   1.00
C286   C     0.26161   0.28232   0.78875   0.00000  Uiso   1.00
C287   C     0.28167   0.20976   0.81044   0.00000  Uiso   1.00
C288   C     0.35803   0.15488   0.84685   0.00000  Uiso   1.00
C289   C     0.47423   0.04589   0.90757   0.00000  Uiso   1.00
C290   C     0.28137   0.38242   0.77436   0.00000  Uiso   1.00
C291   C     0.24304   0.40777   0.70601   0.00000  Uiso   1.00
C292   C     0.25813   0.44406   0.66089   0.00000  Uiso   1.00
C293   C     0.21697   0.46260   0.60103   0.00000  Uiso   1.00
C294   C     0.21672   0.41837   0.79628   0.00000  Uiso   1.00
C295   C     0.20970   0.46355   0.82707   0.00000  Uiso   1.00
C296   C     0.14639   0.49102   0.84320   0.00000  Uiso   1.00
C297   C     0.31588   0.29948   0.80292   0.00000  Uiso   1.00
C298   C     0.39222   0.24470   0.83931   0.00000  Uiso   1.00
C299   C     0.41240   0.17207   0.86105   0.00000  Uiso   1.00
H300   H     0.13919   0.33748   0.73724   0.00000  Uiso   1.00
H301   H     0.10557   0.39583   0.62108   0.00000  Uiso   1.00
H302   H     0.05715   0.41532   0.78723   0.00000  Uiso   1.00
H303   H     0.23965   0.19650   0.79947   0.00000  Uiso   1.00
H304   H     0.09221   0.46811   0.49854   0.00000  Uiso   1.00
H305   H     0.99013   0.50918   0.84891   0.00000  Uiso   1.00
H306   H     0.37497   0.04777   0.87471   0.00000  Uiso   1.00
H307   H     0.32363   0.39578   0.78540   0.00000  Uiso   1.00
H308   H     0.30013   0.45733   0.67187   0.00000  Uiso   1.00
H309   H     0.25171   0.47682   0.83803   0.00000  Uiso   1.00
H310   H     0.43421   0.25800   0.85026   0.00000  Uiso   1.00
H311   H     0.25012   0.51803   0.53976   0.00000  Uiso   1.00
H312   H     0.14804   0.55910   0.89014   0.00000  Uiso   1.00
H313   H     0.53288   0.09768   0.91594   0.00000  Uiso   1.00
O314   O     0.15236   0.53253   0.44360   0.00000  Uiso   1.00
O315   O     0.01845   0.58640   0.90329   0.00000  Uiso   1.00
O316   O     0.52334   0.98104   0.93713   0.00000  Uiso   1.00
N317   N     0.13261   0.47140   0.52382   0.00000  Uiso   1.00
N318   N     0.03717   0.50981   0.85139   0.00000  Uiso   1.00
N319   N     0.39695   0.07842   0.87552   0.00000  Uiso   1.00
N320   N     0.21758   0.49826   0.54600   0.00000  Uiso   1.00
N321   N     0.12214   0.53667   0.87357   0.00000  Uiso   1.00
N322   N     0.48192   0.10528   0.89771   0.00000  Uiso   1.00
C323   C     0.86642   0.14784   0.78149   0.00000  Uiso   1.00
C324   C     0.84278   0.15979   0.71475   0.00000  Uiso   1.00
C325   C     0.82033   0.22264   0.66561   0.00000  Uiso   1.00
C326   C     0.80092   0.22280   0.60811   0.00000  Uiso   1.00
C327   C     0.76380   0.25055   0.50569   0.00000  Uiso   1.00
C328   C     0.94641   0.07670   0.81445   0.00000  Uiso   1.00
C329   C     0.01109   0.06970   0.84914   0.00000  Uiso   1.00
C330   C     0.07892   0.99990   0.87558   0.00000  Uiso   1.00
C331   C     0.20268   0.89865   0.92799   0.00000  Uiso   1.00
C332   C     0.81381   0.13062   0.80519   0.00000  Uiso   1.00
C333   C     0.76701   0.16893   0.83212   0.00000  Uiso   1.00
C334   C     0.72321   0.14452   0.85078   0.00000  Uiso   1.00
C335   C     0.64109   0.12698   0.88881   0.00000  Uiso   1.00
C336   C     0.87186   0.03635   0.76677   0.00000  Uiso   1.00
C337   C     0.84574   0.09923   0.70676   0.00000  Uiso   1.00
C338   C     0.82635   0.09929   0.64932   0.00000  Uiso   1.00
C339   C     0.80388   0.16214   0.60010   0.00000  Uiso   1.00
C340   C     0.94937   0.01614   0.80646   0.00000  Uiso   1.00
C341   C     0.01712   0.94634   0.83285   0.00000  Uiso   1.00
C342   C     0.08189   0.93923   0.86757   0.00000  Uiso   1.00
C343   C     0.81676   0.07006   0.79720   0.00000  Uiso   1.00
C344   C     0.77304   0.04558   0.81582   0.00000  Uiso   1.00
C345   C     0.72618   0.08385   0.84277   0.00000  Uiso   1.00
H346   H     0.86412   0.19498   0.78772   0.00000  Uiso   1.00
H347   H     0.81806   0.26950   0.67181   0.00000  Uiso   1.00
H348   H     0.00879   0.11657   0.85533   0.00000  Uiso   1.00
H349   H     0.76474   0.21579   0.83830   0.00000  Uiso   1.00
H350   H     0.76831   0.32539   0.53978   0.00000  Uiso   1.00
H351   H     0.17048   0.00293   0.92675   0.00000  Uiso   1.00
H352   H     0.65586   0.21216   0.89084   0.00000  Uiso   1.00
H353   H     0.87417   0.98920   0.76055   0.00000  Uiso   1.00
H354   H     0.82865   0.05242   0.64314   0.00000  Uiso   1.00
H355   H     0.01938   0.89949   0.82666   0.00000  Uiso   1.00
H356   H     0.77534   0.99872   0.80963   0.00000  Uiso   1.00
H357   H     0.77692   0.14920   0.51651   0.00000  Uiso   1.00
H358   H     0.17908   0.82674   0.90348   0.00000  Uiso   1.00
H359   H     0.66446   0.03597   0.86757   0.00000  Uiso   1.00
O360   O     0.74251   0.28259   0.45141   0.00000  Uiso   1.00
O361   O     0.27013   0.85953   0.95910   0.00000  Uiso   1.00
O362   O     0.59496   0.13404   0.91199   0.00000  Uiso   1.00
N363   N     0.77657   0.27525   0.55042   0.00000  Uiso   1.00
N364   N     0.15257   0.97377   0.91220   0.00000  Uiso   1.00
N365   N     0.67146   0.16938   0.87865   0.00000  Uiso   1.00
N366   N     0.78120   0.18045   0.53789   0.00000  Uiso   1.00
N367   N     0.15720   0.87897   0.89968   0.00000  Uiso   1.00
N368   N     0.67609   0.07457   0.86612   0.00000  Uiso   1.00
C369   C     0.62913   0.80052   0.72097   0.00000  Uiso   1.00
C370   C     0.56126   0.86701   0.66461   0.00000  Uiso   1.00
C371   C     0.56324   0.89416   0.60785   0.00000  Uiso   1.00
C372   C     0.49503   0.95551   0.56217   0.00000  Uiso   1.00
C373   C     0.39993   0.05372   0.47302   0.00000  Uiso   1.00
C374   C     0.60505   0.74741   0.74123   0.00000  Uiso   1.00
C375   C     0.64386   0.67401   0.74889   0.00000  Uiso   1.00
C376   C     0.61251   0.63469   0.76771   0.00000  Uiso   1.00
C377   C     0.58543   0.54721   0.79756   0.00000  Uiso   1.00
C378   C     0.63564   0.82871   0.77062   0.00000  Uiso   1.00
C379   C     0.70019   0.82365   0.80302   0.00000  Uiso   1.00
C380   C     0.69460   0.85277   0.84659   0.00000  Uiso   1.00
C381   C     0.71503   0.89151   0.92208   0.00000  Uiso   1.00
C382   C     0.50445   0.86119   0.74077   0.00000  Uiso   1.00
C383   C     0.49354   0.89996   0.67537   0.00000  Uiso   1.00
C384   C     0.42530   0.96129   0.62976   0.00000  Uiso   1.00
C385   C     0.42719   0.98853   0.57294   0.00000  Uiso   1.00
C386   C     0.53733   0.78036   0.75198   0.00000  Uiso   1.00
C387   C     0.50592   0.74114   0.77080   0.00000  Uiso   1.00
C388   C     0.54467   0.66770   0.77849   0.00000  Uiso   1.00
C389   C     0.56792   0.86167   0.78138   0.00000  Uiso   1.00
C390   C     0.56224   0.89079   0.82492   0.00000  Uiso   1.00
C391   C     0.62676   0.88578   0.85737   0.00000  Uiso   1.00
H392   H     0.68185   0.77486   0.71260   0.00000  Uiso   1.00
H393   H     0.61566   0.86864   0.59955   0.00000  Uiso   1.00
H394   H     0.69626   0.64853   0.74057   0.00000  Uiso   1.00
H395   H     0.75258   0.79815   0.79468   0.00000  Uiso   1.00
H396   H     0.51240   0.98713   0.47895   0.00000  Uiso   1.00
H397   H     0.68238   0.52300   0.77633   0.00000  Uiso   1.00
H398   H     0.80113   0.83851   0.89043   0.00000  Uiso   1.00
H399   H     0.45173   0.88685   0.74914   0.00000  Uiso   1.00
H400   H     0.37291   0.98678   0.63810   0.00000  Uiso   1.00
H401   H     0.45352   0.76666   0.77912   0.00000  Uiso   1.00
H402   H     0.50983   0.91628   0.83323   0.00000  Uiso   1.00
H403   H     0.31538   0.08301   0.51023   0.00000  Uiso   1.00
H404   H     0.48536   0.61888   0.80762   0.00000  Uiso   1.00
H405   H     0.60411   0.93439   0.92172   0.00000  Uiso   1.00
O406   O     0.36618   0.09877   0.42088   0.00000  Uiso   1.00
O407   O     0.58920   0.48985   0.81104   0.00000  Uiso   1.00
O408   O     0.74500   0.90379   0.96074   0.00000  Uiso   1.00
N409   N     0.47685   0.99599   0.50155   0.00000  Uiso   1.00
N410   N     0.63577   0.56206   0.77958   0.00000  Uiso   1.00
N411   N     0.74680   0.85701   0.88627   0.00000  Uiso   1.00
N412   N     0.37083   0.04758   0.51839   0.00000  Uiso   1.00
N413   N     0.52975   0.61365   0.79641   0.00000  Uiso   1.00
N414   N     0.64078   0.90861   0.90310   0.00000  Uiso   1.00
C415   C     0.37273   0.76708   0.27757   0.00000  Uiso   1.00
C416   C     0.34009   0.83423   0.21864   0.00000  Uiso   1.00
C417   C     0.32400   0.83599   0.16040   0.00000  Uiso   1.00
C418   C     0.29442   0.90277   0.11241   0.00000  Uiso   1.00
C419   C     0.24576   0.99748   0.01939   0.00000  Uiso   1.00
C420   C     0.44554   0.75492   0.31771   0.00000  Uiso   1.00
C421   C     0.51811   0.69001   0.34278   0.00000  Uiso   1.00
C422   C     0.57729   0.69003   0.37820   0.00000  Uiso   1.00
C423   C     0.69233   0.66161   0.43903   0.00000  Uiso   1.00
C424   C     0.31615   0.79121   0.30893   0.00000  Uiso   1.00
C425   C     0.27994   0.75679   0.32664   0.00000  Uiso   1.00
C426   C     0.23019   0.78735   0.35469   0.00000  Uiso   1.00
C427   C     0.14434   0.81526   0.40189   0.00000  Uiso   1.00
C428   C     0.34880   0.88254   0.29591   0.00000  Uiso   1.00
C429   C     0.32710   0.89694   0.22860   0.00000  Uiso   1.00
C430   C     0.29753   0.96373   0.18069   0.00000  Uiso   1.00
C431   C     0.28139   0.96559   0.12239   0.00000  Uiso   1.00
C432   C     0.43255   0.81763   0.32767   0.00000  Uiso   1.00
C433   C     0.49163   0.81775   0.36307   0.00000  Uiso   1.00
C434   C     0.56427   0.75285   0.38818   0.00000  Uiso   1.00
C435   C     0.30315   0.85392   0.31890   0.00000  Uiso   1.00
C436   C     0.25346   0.88453   0.34693   0.00000  Uiso   1.00
C437   C     0.21717   0.85017   0.36467   0.00000  Uiso   1.00
H438   H     0.38285   0.71825   0.26982   0.00000  Uiso   1.00
H439   H     0.33408   0.78744   0.15271   0.00000  Uiso   1.00
H440   H     0.52815   0.64149   0.33506   0.00000  Uiso   1.00
H441   H     0.29001   0.70826   0.31892   0.00000  Uiso   1.00
H442   H     0.27429   0.89180   0.02727   0.00000  Uiso   1.00
H443   H     0.68350   0.58403   0.41179   0.00000  Uiso   1.00
H444   H     0.18134   0.72484   0.37776   0.00000  Uiso   1.00
H445   H     0.33868   0.93136   0.30367   0.00000  Uiso   1.00
H446   H     0.28747   0.01225   0.18842   0.00000  Uiso   1.00
H447   H     0.48155   0.86629   0.37077   0.00000  Uiso   1.00
H448   H     0.24341   0.93306   0.35463   0.00000  Uiso   1.00
H449   H     0.23647   0.07426   0.05625   0.00000  Uiso   1.00
H450   H     0.64569   0.76649   0.44078   0.00000  Uiso   1.00
H451   H     0.14352   0.90730   0.40674   0.00000  Uiso   1.00
O452   O     0.22252   0.03239   0.96533   0.00000  Uiso   1.00
O453   O     0.75938   0.62861   0.46982   0.00000  Uiso   1.00
O454   O     0.10056   0.81334   0.42517   0.00000  Uiso   1.00
N455   N     0.27241   0.92365   0.04990   0.00000  Uiso   1.00
N456   N     0.65499   0.63591   0.40940   0.00000  Uiso   1.00
N457   N     0.18553   0.76753   0.37760   0.00000  Uiso   1.00
N458   N     0.25205   0.02183   0.06550   0.00000  Uiso   1.00
N459   N     0.63464   0.73409   0.42500   0.00000  Uiso   1.00
N460   N     0.16518   0.86571   0.39320   0.00000  Uiso   1.00
C461   C     0.14330   0.27012   0.24837   0.00000  Uiso   1.00
C462   C     0.08347   0.29299   0.18801   0.00000  Uiso   1.00
C463   C     0.09748   0.28558   0.13658   0.00000  Uiso   1.00
C464   C     0.03506   0.30984   0.08589   0.00000  Uiso   1.00
C465   C     0.95337   0.34075   0.99204   0.00000  Uiso   1.00
C466   C     0.11529   0.33936   0.26113   0.00000  Uiso   1.00
C467   C     0.15606   0.37093   0.27120   0.00000  Uiso   1.00
C468   C     0.12043   0.43423   0.28207   0.00000  Uiso   1.00
C469   C     0.08817   0.53709   0.30178   0.00000  Uiso   1.00
C470   C     0.13809   0.21657   0.29694   0.00000  Uiso   1.00
C471   C     0.19802   0.14490   0.33712   0.00000  Uiso   1.00
C472   C     0.18158   0.10482   0.37815   0.00000  Uiso   1.00
C473   C     0.18471   0.01703   0.45346   0.00000  Uiso   1.00
C474   C     0.00753   0.32639   0.24979   0.00000  Uiso   1.00
C475   C     0.00973   0.32356   0.18878   0.00000  Uiso   1.00
C476   C     0.94726   0.34784   0.13815   0.00000  Uiso   1.00
C477   C     0.96118   0.34046   0.08666   0.00000  Uiso   1.00
C478   C     0.04155   0.36993   0.26190   0.00000  Uiso   1.00
C479   C     0.00585   0.43319   0.27277   0.00000  Uiso   1.00
C480   C     0.04655   0.46485   0.28284   0.00000  Uiso   1.00
C481   C     0.06434   0.24714   0.29771   0.00000  Uiso   1.00
C482   C     0.04780   0.20716   0.33869   0.00000  Uiso   1.00
C483   C     0.10770   0.13544   0.37892   0.00000  Uiso   1.00
H484   H     0.20071   0.24633   0.24777   0.00000  Uiso   1.00
H485   H     0.15456   0.26193   0.13600   0.00000  Uiso   1.00
H486   H     0.21313   0.34726   0.27060   0.00000  Uiso   1.00
H487   H     0.25508   0.12127   0.33651   0.00000  Uiso   1.00
H488   H     0.07086   0.29273   0.01242   0.00000  Uiso   1.00
H489   H     0.19438   0.47264   0.29625   0.00000  Uiso   1.00
H490   H     0.28284   0.99609   0.43524   0.00000  Uiso   1.00
H491   H     0.95011   0.35019   0.25039   0.00000  Uiso   1.00
H492   H     0.89020   0.37149   0.13876   0.00000  Uiso   1.00
H493   H     0.94878   0.45682   0.27336   0.00000  Uiso   1.00
H494   H     0.99073   0.23083   0.33927   0.00000  Uiso   1.00
H495   H     0.85630   0.38166   0.01466   0.00000  Uiso   1.00
H496   H     0.97982   0.56157   0.29849   0.00000  Uiso   1.00
H497   H     0.06828   0.08502   0.43748   0.00000  Uiso   1.00
O498   O     0.92869   0.34936   0.94006   0.00000  Uiso   1.00
O499   O     0.09075   0.58538   0.31244   0.00000  Uiso   1.00
O500   O     0.20681   0.96016   0.49478   0.00000  Uiso   1.00
N501   N     0.02859   0.31072   0.02827   0.00000  Uiso   1.00
N502   N     0.14407   0.47894   0.29362   0.00000  Uiso   1.00
N503   N     0.22678   0.03340   0.42358   0.00000  Uiso   1.00
N504   N     0.91313   0.35857   0.02948   0.00000  Uiso   1.00
N505   N     0.02861   0.52679   0.29483   0.00000  Uiso   1.00
N506   N     0.11132   0.08126   0.42478   0.00000  Uiso   1.00
C507   C     0.57815   0.35928   0.22979   0.00000  Uiso   1.00
C508   C     0.56848   0.38367   0.16299   0.00000  Uiso   1.00
C509   C     0.53749   0.45551   0.12252   0.00000  Uiso   1.00
C510   C     0.53363   0.46642   0.06333   0.00000  Uiso   1.00
C511   C     0.51461   0.51325   0.96233   0.00000  Uiso   1.00
C512   C     0.53606   0.32085   0.23748   0.00000  Uiso   1.00
C513   C     0.47781   0.33987   0.25965   0.00000  Uiso   1.00
C514   C     0.44666   0.29789   0.26318   0.00000  Uiso   1.00
C515   C     0.37733   0.24716   0.27787   0.00000  Uiso   1.00
C516   C     0.66296   0.29905   0.26619   0.00000  Uiso   1.00
C517   C     0.71141   0.29973   0.31252   0.00000  Uiso   1.00
C518   C     0.78711   0.23939   0.34022   0.00000  Uiso   1.00
C519   C     0.91482   0.15482   0.39949   0.00000  Uiso   1.00
C520   C     0.62641   0.25091   0.19663   0.00000  Uiso   1.00
C521   C     0.59470   0.32480   0.14497   0.00000  Uiso   1.00
C522   C     0.59089   0.33561   0.08583   0.00000  Uiso   1.00
C523   C     0.55990   0.40745   0.04528   0.00000  Uiso   1.00
C524   C     0.56227   0.26199   0.21947   0.00000  Uiso   1.00
C525   C     0.53121   0.21997   0.22296   0.00000  Uiso   1.00
C526   C     0.47292   0.23892   0.24513   0.00000  Uiso   1.00
C527   C     0.68918   0.24019   0.24817   0.00000  Uiso   1.00
C528   C     0.76482   0.17983   0.27582   0.00000  Uiso   1.00
C529   C     0.81337   0.18042   0.32218   0.00000  Uiso   1.00
H530   H     0.55773   0.40511   0.24382   0.00000  Uiso   1.00
H531   H     0.51720   0.50105   0.13648   0.00000  Uiso   1.00
H532   H     0.45753   0.38542   0.27360   0.00000  Uiso   1.00
H533   H     0.69111   0.34529   0.32644   0.00000  Uiso   1.00
H534   H     0.48380   0.58147   0.00952   0.00000  Uiso   1.00
H535   H     0.35801   0.33765   0.29866   0.00000  Uiso   1.00
H536   H     0.85054   0.25302   0.41010   0.00000  Uiso   1.00
H537   H     0.64682   0.20508   0.18260   0.00000  Uiso   1.00
H538   H     0.61118   0.29004   0.07190   0.00000  Uiso   1.00
H539   H     0.55151   0.17442   0.20902   0.00000  Uiso   1.00
H540   H     0.78508   0.13429   0.26187   0.00000  Uiso   1.00
H541   H     0.56007   0.41021   0.95711   0.00000  Uiso   1.00
H542   H     0.43428   0.16638   0.24625   0.00000  Uiso   1.00
H543   H     0.92681   0.08176   0.35769   0.00000  Uiso   1.00
O544   O     0.49686   0.55535   0.91159   0.00000  Uiso   1.00
O545   O     0.33184   0.23545   0.29094   0.00000  Uiso   1.00
O546   O     0.97803   0.12444   0.43715   0.00000  Uiso   1.00
N547   N     0.50666   0.52950   0.01238   0.00000  Uiso   1.00
N548   N     0.38904   0.30155   0.28270   0.00000  Uiso   1.00
N549   N     0.84951   0.22242   0.38690   0.00000  Uiso   1.00
N550   N     0.54770   0.43734   0.98418   0.00000  Uiso   1.00
N551   N     0.43008   0.20939   0.25450   0.00000  Uiso   1.00
N552   N     0.89056   0.13027   0.35870   0.00000  Uiso   1.00
