data_job_01960
_audit_creation_date              2018-12-19
_audit_creation_method            'Materials Studio'
_symmetry_space_group_name_H-M    'P1'
_symmetry_Int_Tables_number       1
_symmetry_cell_setting            triclinic
loop_
_symmetry_equiv_pos_as_xyz
  x,y,z
_cell_length_a                    29.1272
_cell_length_b                    17.4764
_cell_length_c                    12.0579
_cell_angle_alpha                 90.0000
_cell_angle_beta                  80.4376
_cell_angle_gamma                 90.0000
loop_
_atom_site_label
_atom_site_type_symbol
_atom_site_fract_x
_atom_site_fract_y
_atom_site_fract_z
_atom_site_U_iso_or_equiv
_atom_site_adp_type
_atom_site_occupancy
C1     C     0.81454   0.80809   0.72651   0.00000  Uiso   1.00
C2     C     0.85147   0.84598   0.78406   0.00000  Uiso   1.00
C3     C     0.84294   0.89123   0.87985   0.00000  Uiso   1.00
C4     C     0.88146   0.92064   0.91941   0.00000  Uiso   1.00
C5     C     0.93190   0.98185   0.01701   0.00000  Uiso   1.00
C6     C     0.82352   0.83608   0.60505   0.00000  Uiso   1.00
C7     C     0.79149   0.87300   0.55033   0.00000  Uiso   1.00
C8     C     0.80648   0.89406   0.43919   0.00000  Uiso   1.00
C9     C     0.81352   0.93985   0.25885   0.00000  Uiso   1.00
C10    C     0.82588   0.72285   0.72180   0.00000  Uiso   1.00
C11    C     0.79584   0.66454   0.76523   0.00000  Uiso   1.00
C12    C     0.81281   0.59027   0.75236   0.00000  Uiso   1.00
C13    C     0.82351   0.46024   0.75330   0.00000  Uiso   1.00
C14    C     0.89810   0.77985   0.62640   0.00000  Uiso   1.00
C15    C     0.89686   0.83065   0.72968   0.00000  Uiso   1.00
C16    C     0.93539   0.85999   0.76910   0.00000  Uiso   1.00
C17    C     0.92693   0.90528   0.86494   0.00000  Uiso   1.00
C18    C     0.86891   0.82075   0.55067   0.00000  Uiso   1.00
C19    C     0.88395   0.84176   0.43958   0.00000  Uiso   1.00
C20    C     0.85195   0.87870   0.38472   0.00000  Uiso   1.00
C21    C     0.87127   0.70751   0.66743   0.00000  Uiso   1.00
C22    C     0.88829   0.63331   0.65448   0.00000  Uiso   1.00
C23    C     0.85828   0.57491   0.69788   0.00000  Uiso   1.00
H24    H     0.77920   0.82003   0.76883   0.00000  Uiso   1.00
H25    H     0.80781   0.90309   0.92190   0.00000  Uiso   1.00
H26    H     0.75637   0.88485   0.59243   0.00000  Uiso   1.00
H27    H     0.76072   0.67643   0.80730   0.00000  Uiso   1.00
H28    H     0.85955   0.98844   0.06761   0.00000  Uiso   1.00
H29    H     0.75108   0.94996   0.37289   0.00000  Uiso   1.00
H30    H     0.76024   0.51047   0.82598   0.00000  Uiso   1.00
H31    H     0.93344   0.76791   0.58406   0.00000  Uiso   1.00
H32    H     0.97051   0.84812   0.72700   0.00000  Uiso   1.00
H33    H     0.91907   0.82988   0.39753   0.00000  Uiso   1.00
H34    H     0.92341   0.62147   0.61240   0.00000  Uiso   1.00
H35    H     0.99160   0.94383   0.90942   0.00000  Uiso   1.00
H36    H     0.88313   0.90534   0.21470   0.00000  Uiso   1.00
H37    H     0.89229   0.46586   0.66779   0.00000  Uiso   1.00
O38    O     0.94718   0.01986   0.08586   0.00000  Uiso   1.00
O39    O     0.80487   0.96936   0.17441   0.00000  Uiso   1.00
O40    O     0.81688   0.39276   0.76885   0.00000  Uiso   1.00
N41    N     0.88554   0.96692   0.01078   0.00000  Uiso   1.00
N42    N     0.78413   0.93096   0.36126   0.00000  Uiso   1.00
N43    N     0.79269   0.52007   0.78483   0.00000  Uiso   1.00
N44    N     0.95660   0.94292   0.92566   0.00000  Uiso   1.00
N45    N     0.85518   0.90695   0.27614   0.00000  Uiso   1.00
N46    N     0.86374   0.49606   0.69971   0.00000  Uiso   1.00
C47    C     0.31454   0.30809   0.72651   0.00000  Uiso   1.00
C48    C     0.35147   0.34598   0.78406   0.00000  Uiso   1.00
C49    C     0.34294   0.39123   0.87985   0.00000  Uiso   1.00
C50    C     0.38146   0.42064   0.91941   0.00000  Uiso   1.00
C51    C     0.43190   0.48185   0.01701   0.00000  Uiso   1.00
C52    C     0.32352   0.33608   0.60505   0.00000  Uiso   1.00
C53    C     0.29149   0.37300   0.55033   0.00000  Uiso   1.00
C54    C     0.30648   0.39406   0.43919   0.00000  Uiso   1.00
C55    C     0.31352   0.43985   0.25885   0.00000  Uiso   1.00
C56    C     0.32588   0.22285   0.72180   0.00000  Uiso   1.00
C57    C     0.29584   0.16454   0.76523   0.00000  Uiso   1.00
C58    C     0.31281   0.09027   0.75236   0.00000  Uiso   1.00
C59    C     0.32351   0.96024   0.75330   0.00000  Uiso   1.00
C60    C     0.39810   0.27985   0.62640   0.00000  Uiso   1.00
C61    C     0.39686   0.33065   0.72968   0.00000  Uiso   1.00
C62    C     0.43539   0.35999   0.76910   0.00000  Uiso   1.00
C63    C     0.42693   0.40528   0.86494   0.00000  Uiso   1.00
C64    C     0.36891   0.32075   0.55067   0.00000  Uiso   1.00
C65    C     0.38395   0.34176   0.43958   0.00000  Uiso   1.00
C66    C     0.35195   0.37870   0.38472   0.00000  Uiso   1.00
C67    C     0.37127   0.20751   0.66743   0.00000  Uiso   1.00
C68    C     0.38829   0.13331   0.65448   0.00000  Uiso   1.00
C69    C     0.35828   0.07491   0.69788   0.00000  Uiso   1.00
H70    H     0.27920   0.32003   0.76883   0.00000  Uiso   1.00
H71    H     0.30781   0.40309   0.92190   0.00000  Uiso   1.00
H72    H     0.25637   0.38485   0.59243   0.00000  Uiso   1.00
H73    H     0.26072   0.17643   0.80730   0.00000  Uiso   1.00
H74    H     0.35955   0.48844   0.06761   0.00000  Uiso   1.00
H75    H     0.25108   0.44996   0.37289   0.00000  Uiso   1.00
H76    H     0.26024   0.01047   0.82598   0.00000  Uiso   1.00
H77    H     0.43344   0.26791   0.58406   0.00000  Uiso   1.00
H78    H     0.47051   0.34812   0.72700   0.00000  Uiso   1.00
H79    H     0.41907   0.32988   0.39753   0.00000  Uiso   1.00
H80    H     0.42341   0.12147   0.61240   0.00000  Uiso   1.00
H81    H     0.49160   0.44383   0.90942   0.00000  Uiso   1.00
H82    H     0.38313   0.40534   0.21470   0.00000  Uiso   1.00
H83    H     0.39229   0.96586   0.66779   0.00000  Uiso   1.00
O84    O     0.44718   0.51986   0.08586   0.00000  Uiso   1.00
O85    O     0.30487   0.46936   0.17441   0.00000  Uiso   1.00
O86    O     0.31688   0.89276   0.76885   0.00000  Uiso   1.00
N87    N     0.38554   0.46692   0.01078   0.00000  Uiso   1.00
N88    N     0.28413   0.43096   0.36126   0.00000  Uiso   1.00
N89    N     0.29269   0.02007   0.78483   0.00000  Uiso   1.00
N90    N     0.45660   0.44292   0.92566   0.00000  Uiso   1.00
N91    N     0.35518   0.40695   0.27614   0.00000  Uiso   1.00
N92    N     0.36374   0.99606   0.69971   0.00000  Uiso   1.00
C93    C     0.18546   0.80809   0.77349   0.00000  Uiso   1.00
C94    C     0.14853   0.84598   0.71594   0.00000  Uiso   1.00
C95    C     0.15706   0.89123   0.62015   0.00000  Uiso   1.00
C96    C     0.11854   0.92064   0.58059   0.00000  Uiso   1.00
C97    C     0.06810   0.98185   0.48299   0.00000  Uiso   1.00
C98    C     0.17648   0.83608   0.89495   0.00000  Uiso   1.00
C99    C     0.20851   0.87300   0.94967   0.00000  Uiso   1.00
C100   C     0.19352   0.89406   0.06081   0.00000  Uiso   1.00
C101   C     0.18648   0.93985   0.24115   0.00000  Uiso   1.00
C102   C     0.17412   0.72285   0.77820   0.00000  Uiso   1.00
C103   C     0.20416   0.66454   0.73477   0.00000  Uiso   1.00
C104   C     0.18719   0.59027   0.74764   0.00000  Uiso   1.00
C105   C     0.17649   0.46024   0.74670   0.00000  Uiso   1.00
C106   C     0.10190   0.77985   0.87360   0.00000  Uiso   1.00
C107   C     0.10314   0.83065   0.77032   0.00000  Uiso   1.00
C108   C     0.06461   0.85999   0.73090   0.00000  Uiso   1.00
C109   C     0.07307   0.90528   0.63506   0.00000  Uiso   1.00
C110   C     0.13109   0.82075   0.94933   0.00000  Uiso   1.00
C111   C     0.11605   0.84176   0.06042   0.00000  Uiso   1.00
C112   C     0.14805   0.87870   0.11528   0.00000  Uiso   1.00
C113   C     0.12873   0.70751   0.83257   0.00000  Uiso   1.00
C114   C     0.11171   0.63331   0.84552   0.00000  Uiso   1.00
C115   C     0.14172   0.57491   0.80212   0.00000  Uiso   1.00
H116   H     0.22080   0.82003   0.73117   0.00000  Uiso   1.00
H117   H     0.19219   0.90309   0.57810   0.00000  Uiso   1.00
H118   H     0.24363   0.88485   0.90757   0.00000  Uiso   1.00
H119   H     0.23928   0.67643   0.69270   0.00000  Uiso   1.00
H120   H     0.14045   0.98844   0.43239   0.00000  Uiso   1.00
H121   H     0.24892   0.94996   0.12711   0.00000  Uiso   1.00
H122   H     0.23976   0.51047   0.67402   0.00000  Uiso   1.00
H123   H     0.06656   0.76791   0.91594   0.00000  Uiso   1.00
H124   H     0.02949   0.84812   0.77300   0.00000  Uiso   1.00
H125   H     0.08093   0.82988   0.10247   0.00000  Uiso   1.00
H126   H     0.07659   0.62147   0.88760   0.00000  Uiso   1.00
H127   H     0.00840   0.94383   0.59058   0.00000  Uiso   1.00
H128   H     0.11687   0.90534   0.28530   0.00000  Uiso   1.00
H129   H     0.10771   0.46586   0.83221   0.00000  Uiso   1.00
O130   O     0.05282   0.01986   0.41414   0.00000  Uiso   1.00
O131   O     0.19513   0.96936   0.32559   0.00000  Uiso   1.00
O132   O     0.18312   0.39276   0.73115   0.00000  Uiso   1.00
N133   N     0.11446   0.96692   0.48922   0.00000  Uiso   1.00
N134   N     0.21587   0.93096   0.13874   0.00000  Uiso   1.00
N135   N     0.20731   0.52007   0.71517   0.00000  Uiso   1.00
N136   N     0.04340   0.94292   0.57434   0.00000  Uiso   1.00
N137   N     0.14482   0.90695   0.22386   0.00000  Uiso   1.00
N138   N     0.13626   0.49606   0.80029   0.00000  Uiso   1.00
C139   C     0.68546   0.30809   0.77349   0.00000  Uiso   1.00
C140   C     0.64853   0.34598   0.71594   0.00000  Uiso   1.00
C141   C     0.65706   0.39123   0.62015   0.00000  Uiso   1.00
C142   C     0.61854   0.42064   0.58059   0.00000  Uiso   1.00
C143   C     0.56810   0.48185   0.48299   0.00000  Uiso   1.00
C144   C     0.67648   0.33608   0.89495   0.00000  Uiso   1.00
C145   C     0.70851   0.37300   0.94967   0.00000  Uiso   1.00
C146   C     0.69352   0.39406   0.06081   0.00000  Uiso   1.00
C147   C     0.68648   0.43985   0.24115   0.00000  Uiso   1.00
C148   C     0.67412   0.22285   0.77820   0.00000  Uiso   1.00
C149   C     0.70416   0.16454   0.73477   0.00000  Uiso   1.00
C150   C     0.68719   0.09027   0.74764   0.00000  Uiso   1.00
C151   C     0.67649   0.96024   0.74670   0.00000  Uiso   1.00
C152   C     0.60190   0.27985   0.87360   0.00000  Uiso   1.00
C153   C     0.60314   0.33065   0.77032   0.00000  Uiso   1.00
C154   C     0.56461   0.35999   0.73090   0.00000  Uiso   1.00
C155   C     0.57307   0.40528   0.63506   0.00000  Uiso   1.00
C156   C     0.63109   0.32075   0.94933   0.00000  Uiso   1.00
C157   C     0.61605   0.34176   0.06042   0.00000  Uiso   1.00
C158   C     0.64805   0.37870   0.11528   0.00000  Uiso   1.00
C159   C     0.62873   0.20751   0.83257   0.00000  Uiso   1.00
C160   C     0.61171   0.13331   0.84552   0.00000  Uiso   1.00
C161   C     0.64172   0.07491   0.80212   0.00000  Uiso   1.00
H162   H     0.72080   0.32003   0.73117   0.00000  Uiso   1.00
H163   H     0.69219   0.40309   0.57810   0.00000  Uiso   1.00
H164   H     0.74363   0.38485   0.90757   0.00000  Uiso   1.00
H165   H     0.73928   0.17643   0.69270   0.00000  Uiso   1.00
H166   H     0.64045   0.48844   0.43239   0.00000  Uiso   1.00
H167   H     0.74892   0.44996   0.12711   0.00000  Uiso   1.00
H168   H     0.73976   0.01047   0.67402   0.00000  Uiso   1.00
H169   H     0.56656   0.26791   0.91594   0.00000  Uiso   1.00
H170   H     0.52949   0.34812   0.77300   0.00000  Uiso   1.00
H171   H     0.58093   0.32988   0.10247   0.00000  Uiso   1.00
H172   H     0.57659   0.12147   0.88760   0.00000  Uiso   1.00
H173   H     0.50840   0.44383   0.59058   0.00000  Uiso   1.00
H174   H     0.61687   0.40534   0.28530   0.00000  Uiso   1.00
H175   H     0.60771   0.96586   0.83221   0.00000  Uiso   1.00
O176   O     0.55282   0.51986   0.41414   0.00000  Uiso   1.00
O177   O     0.69513   0.46936   0.32559   0.00000  Uiso   1.00
O178   O     0.68312   0.89276   0.73115   0.00000  Uiso   1.00
N179   N     0.61446   0.46692   0.48922   0.00000  Uiso   1.00
N180   N     0.71587   0.43096   0.13874   0.00000  Uiso   1.00
N181   N     0.70731   0.02007   0.71517   0.00000  Uiso   1.00
N182   N     0.54340   0.44292   0.57434   0.00000  Uiso   1.00
N183   N     0.64482   0.40695   0.22386   0.00000  Uiso   1.00
N184   N     0.63626   0.99606   0.80029   0.00000  Uiso   1.00
C185   C     0.18546   0.19191   0.27349   0.00000  Uiso   1.00
C186   C     0.14853   0.15402   0.21594   0.00000  Uiso   1.00
C187   C     0.15706   0.10877   0.12015   0.00000  Uiso   1.00
C188   C     0.11854   0.07936   0.08059   0.00000  Uiso   1.00
C189   C     0.06810   0.01815   0.98299   0.00000  Uiso   1.00
C190   C     0.17648   0.16392   0.39495   0.00000  Uiso   1.00
C191   C     0.20851   0.12700   0.44967   0.00000  Uiso   1.00
C192   C     0.19352   0.10594   0.56081   0.00000  Uiso   1.00
C193   C     0.18648   0.06015   0.74115   0.00000  Uiso   1.00
C194   C     0.17412   0.27715   0.27820   0.00000  Uiso   1.00
C195   C     0.20416   0.33546   0.23477   0.00000  Uiso   1.00
C196   C     0.18719   0.40973   0.24764   0.00000  Uiso   1.00
C197   C     0.17649   0.53976   0.24670   0.00000  Uiso   1.00
C198   C     0.10190   0.22015   0.37360   0.00000  Uiso   1.00
C199   C     0.10314   0.16935   0.27032   0.00000  Uiso   1.00
C200   C     0.06461   0.14001   0.23090   0.00000  Uiso   1.00
C201   C     0.07307   0.09472   0.13506   0.00000  Uiso   1.00
C202   C     0.13109   0.17925   0.44933   0.00000  Uiso   1.00
C203   C     0.11605   0.15824   0.56042   0.00000  Uiso   1.00
C204   C     0.14805   0.12130   0.61528   0.00000  Uiso   1.00
C205   C     0.12873   0.29249   0.33257   0.00000  Uiso   1.00
C206   C     0.11171   0.36669   0.34552   0.00000  Uiso   1.00
C207   C     0.14172   0.42509   0.30212   0.00000  Uiso   1.00
H208   H     0.22080   0.17997   0.23117   0.00000  Uiso   1.00
H209   H     0.19219   0.09691   0.07810   0.00000  Uiso   1.00
H210   H     0.24363   0.11515   0.40757   0.00000  Uiso   1.00
H211   H     0.23928   0.32357   0.19270   0.00000  Uiso   1.00
H212   H     0.14045   0.01156   0.93239   0.00000  Uiso   1.00
H213   H     0.24892   0.05004   0.62711   0.00000  Uiso   1.00
H214   H     0.23976   0.48953   0.17402   0.00000  Uiso   1.00
H215   H     0.06656   0.23209   0.41594   0.00000  Uiso   1.00
H216   H     0.02949   0.15188   0.27300   0.00000  Uiso   1.00
H217   H     0.08093   0.17012   0.60247   0.00000  Uiso   1.00
H218   H     0.07659   0.37853   0.38760   0.00000  Uiso   1.00
H219   H     0.00840   0.05617   0.09058   0.00000  Uiso   1.00
H220   H     0.11687   0.09466   0.78530   0.00000  Uiso   1.00
H221   H     0.10771   0.53414   0.33221   0.00000  Uiso   1.00
O222   O     0.05282   0.98014   0.91414   0.00000  Uiso   1.00
O223   O     0.19513   0.03064   0.82559   0.00000  Uiso   1.00
O224   O     0.18312   0.60724   0.23115   0.00000  Uiso   1.00
N225   N     0.11446   0.03308   0.98922   0.00000  Uiso   1.00
N226   N     0.21587   0.06904   0.63874   0.00000  Uiso   1.00
N227   N     0.20731   0.47993   0.21517   0.00000  Uiso   1.00
N228   N     0.04340   0.05708   0.07434   0.00000  Uiso   1.00
N229   N     0.14482   0.09305   0.72386   0.00000  Uiso   1.00
N230   N     0.13626   0.50394   0.30029   0.00000  Uiso   1.00
C231   C     0.68546   0.69191   0.27349   0.00000  Uiso   1.00
C232   C     0.64853   0.65402   0.21594   0.00000  Uiso   1.00
C233   C     0.65706   0.60877   0.12015   0.00000  Uiso   1.00
C234   C     0.61854   0.57936   0.08059   0.00000  Uiso   1.00
C235   C     0.56810   0.51815   0.98299   0.00000  Uiso   1.00
C236   C     0.67648   0.66392   0.39495   0.00000  Uiso   1.00
C237   C     0.70851   0.62700   0.44967   0.00000  Uiso   1.00
C238   C     0.69352   0.60594   0.56081   0.00000  Uiso   1.00
C239   C     0.68648   0.56015   0.74115   0.00000  Uiso   1.00
C240   C     0.67412   0.77715   0.27820   0.00000  Uiso   1.00
C241   C     0.70416   0.83546   0.23477   0.00000  Uiso   1.00
C242   C     0.68719   0.90973   0.24764   0.00000  Uiso   1.00
C243   C     0.67649   0.03976   0.24670   0.00000  Uiso   1.00
C244   C     0.60190   0.72015   0.37360   0.00000  Uiso   1.00
C245   C     0.60314   0.66935   0.27032   0.00000  Uiso   1.00
C246   C     0.56461   0.64001   0.23090   0.00000  Uiso   1.00
C247   C     0.57307   0.59472   0.13506   0.00000  Uiso   1.00
C248   C     0.63109   0.67925   0.44933   0.00000  Uiso   1.00
C249   C     0.61605   0.65824   0.56042   0.00000  Uiso   1.00
C250   C     0.64805   0.62130   0.61528   0.00000  Uiso   1.00
C251   C     0.62873   0.79249   0.33257   0.00000  Uiso   1.00
C252   C     0.61171   0.86669   0.34552   0.00000  Uiso   1.00
C253   C     0.64172   0.92509   0.30212   0.00000  Uiso   1.00
H254   H     0.72080   0.67997   0.23117   0.00000  Uiso   1.00
H255   H     0.69219   0.59691   0.07810   0.00000  Uiso   1.00
H256   H     0.74363   0.61515   0.40757   0.00000  Uiso   1.00
H257   H     0.73928   0.82357   0.19270   0.00000  Uiso   1.00
H258   H     0.64045   0.51156   0.93239   0.00000  Uiso   1.00
H259   H     0.74892   0.55004   0.62711   0.00000  Uiso   1.00
H260   H     0.73976   0.98953   0.17402   0.00000  Uiso   1.00
H261   H     0.56656   0.73209   0.41594   0.00000  Uiso   1.00
H262   H     0.52949   0.65188   0.27300   0.00000  Uiso   1.00
H263   H     0.58093   0.67012   0.60247   0.00000  Uiso   1.00
H264   H     0.57659   0.87853   0.38760   0.00000  Uiso   1.00
H265   H     0.50840   0.55617   0.09058   0.00000  Uiso   1.00
H266   H     0.61687   0.59466   0.78530   0.00000  Uiso   1.00
H267   H     0.60771   0.03414   0.33221   0.00000  Uiso   1.00
O268   O     0.55282   0.48014   0.91414   0.00000  Uiso   1.00
O269   O     0.69513   0.53064   0.82559   0.00000  Uiso   1.00
O270   O     0.68312   0.10724   0.23115   0.00000  Uiso   1.00
N271   N     0.61446   0.53308   0.98922   0.00000  Uiso   1.00
N272   N     0.71587   0.56904   0.63874   0.00000  Uiso   1.00
N273   N     0.70731   0.97993   0.21517   0.00000  Uiso   1.00
N274   N     0.54340   0.55708   0.07434   0.00000  Uiso   1.00
N275   N     0.64482   0.59305   0.72386   0.00000  Uiso   1.00
N276   N     0.63626   0.00394   0.30029   0.00000  Uiso   1.00
C277   C     0.81454   0.19191   0.22651   0.00000  Uiso   1.00
C278   C     0.85147   0.15402   0.28406   0.00000  Uiso   1.00
C279   C     0.84294   0.10877   0.37985   0.00000  Uiso   1.00
C280   C     0.88146   0.07936   0.41941   0.00000  Uiso   1.00
C281   C     0.93190   0.01815   0.51701   0.00000  Uiso   1.00
C282   C     0.82352   0.16392   0.10505   0.00000  Uiso   1.00
C283   C     0.79149   0.12700   0.05033   0.00000  Uiso   1.00
C284   C     0.80648   0.10594   0.93919   0.00000  Uiso   1.00
C285   C     0.81352   0.06015   0.75885   0.00000  Uiso   1.00
C286   C     0.82588   0.27715   0.22180   0.00000  Uiso   1.00
C287   C     0.79584   0.33546   0.26523   0.00000  Uiso   1.00
C288   C     0.81281   0.40973   0.25236   0.00000  Uiso   1.00
C289   C     0.82351   0.53976   0.25330   0.00000  Uiso   1.00
C290   C     0.89810   0.22015   0.12640   0.00000  Uiso   1.00
C291   C     0.89686   0.16935   0.22968   0.00000  Uiso   1.00
C292   C     0.93539   0.14001   0.26910   0.00000  Uiso   1.00
C293   C     0.92693   0.09472   0.36494   0.00000  Uiso   1.00
C294   C     0.86891   0.17925   0.05067   0.00000  Uiso   1.00
C295   C     0.88395   0.15824   0.93958   0.00000  Uiso   1.00
C296   C     0.85195   0.12130   0.88472   0.00000  Uiso   1.00
C297   C     0.87127   0.29249   0.16743   0.00000  Uiso   1.00
C298   C     0.88829   0.36669   0.15448   0.00000  Uiso   1.00
C299   C     0.85828   0.42509   0.19788   0.00000  Uiso   1.00
H300   H     0.77920   0.17997   0.26883   0.00000  Uiso   1.00
H301   H     0.80781   0.09691   0.42190   0.00000  Uiso   1.00
H302   H     0.75637   0.11515   0.09243   0.00000  Uiso   1.00
H303   H     0.76072   0.32357   0.30730   0.00000  Uiso   1.00
H304   H     0.85955   0.01156   0.56761   0.00000  Uiso   1.00
H305   H     0.75108   0.05004   0.87289   0.00000  Uiso   1.00
H306   H     0.76024   0.48953   0.32598   0.00000  Uiso   1.00
H307   H     0.93344   0.23209   0.08406   0.00000  Uiso   1.00
H308   H     0.97051   0.15188   0.22700   0.00000  Uiso   1.00
H309   H     0.91907   0.17012   0.89753   0.00000  Uiso   1.00
H310   H     0.92341   0.37853   0.11240   0.00000  Uiso   1.00
H311   H     0.99160   0.05617   0.40942   0.00000  Uiso   1.00
H312   H     0.88313   0.09466   0.71470   0.00000  Uiso   1.00
H313   H     0.89229   0.53414   0.16779   0.00000  Uiso   1.00
O314   O     0.94718   0.98014   0.58586   0.00000  Uiso   1.00
O315   O     0.80487   0.03064   0.67441   0.00000  Uiso   1.00
O316   O     0.81688   0.60724   0.26885   0.00000  Uiso   1.00
N317   N     0.88554   0.03308   0.51078   0.00000  Uiso   1.00
N318   N     0.78413   0.06904   0.86126   0.00000  Uiso   1.00
N319   N     0.79269   0.47993   0.28483   0.00000  Uiso   1.00
N320   N     0.95660   0.05708   0.42566   0.00000  Uiso   1.00
N321   N     0.85518   0.09305   0.77614   0.00000  Uiso   1.00
N322   N     0.86374   0.50394   0.19971   0.00000  Uiso   1.00
C323   C     0.31454   0.69191   0.22651   0.00000  Uiso   1.00
C324   C     0.35147   0.65402   0.28406   0.00000  Uiso   1.00
C325   C     0.34294   0.60877   0.37985   0.00000  Uiso   1.00
C326   C     0.38146   0.57936   0.41941   0.00000  Uiso   1.00
C327   C     0.43190   0.51815   0.51701   0.00000  Uiso   1.00
C328   C     0.32352   0.66392   0.10505   0.00000  Uiso   1.00
C329   C     0.29149   0.62700   0.05033   0.00000  Uiso   1.00
C330   C     0.30648   0.60594   0.93919   0.00000  Uiso   1.00
C331   C     0.31352   0.56015   0.75885   0.00000  Uiso   1.00
C332   C     0.32588   0.77715   0.22180   0.00000  Uiso   1.00
C333   C     0.29584   0.83546   0.26523   0.00000  Uiso   1.00
C334   C     0.31281   0.90973   0.25236   0.00000  Uiso   1.00
C335   C     0.32351   0.03976   0.25330   0.00000  Uiso   1.00
C336   C     0.39810   0.72015   0.12640   0.00000  Uiso   1.00
C337   C     0.39686   0.66935   0.22968   0.00000  Uiso   1.00
C338   C     0.43539   0.64001   0.26910   0.00000  Uiso   1.00
C339   C     0.42693   0.59472   0.36494   0.00000  Uiso   1.00
C340   C     0.36891   0.67925   0.05067   0.00000  Uiso   1.00
C341   C     0.38395   0.65824   0.93958   0.00000  Uiso   1.00
C342   C     0.35195   0.62130   0.88472   0.00000  Uiso   1.00
C343   C     0.37127   0.79249   0.16743   0.00000  Uiso   1.00
C344   C     0.38829   0.86669   0.15448   0.00000  Uiso   1.00
C345   C     0.35828   0.92509   0.19788   0.00000  Uiso   1.00
H346   H     0.27920   0.67997   0.26883   0.00000  Uiso   1.00
H347   H     0.30781   0.59691   0.42190   0.00000  Uiso   1.00
H348   H     0.25637   0.61515   0.09243   0.00000  Uiso   1.00
H349   H     0.26072   0.82357   0.30730   0.00000  Uiso   1.00
H350   H     0.35955   0.51156   0.56761   0.00000  Uiso   1.00
H351   H     0.25108   0.55004   0.87289   0.00000  Uiso   1.00
H352   H     0.26024   0.98953   0.32598   0.00000  Uiso   1.00
H353   H     0.43344   0.73209   0.08406   0.00000  Uiso   1.00
H354   H     0.47051   0.65188   0.22700   0.00000  Uiso   1.00
H355   H     0.41907   0.67012   0.89753   0.00000  Uiso   1.00
H356   H     0.42341   0.87853   0.11240   0.00000  Uiso   1.00
H357   H     0.49160   0.55617   0.40942   0.00000  Uiso   1.00
H358   H     0.38313   0.59466   0.71470   0.00000  Uiso   1.00
H359   H     0.39229   0.03414   0.16779   0.00000  Uiso   1.00
O360   O     0.44718   0.48014   0.58586   0.00000  Uiso   1.00
O361   O     0.30487   0.53064   0.67441   0.00000  Uiso   1.00
O362   O     0.31688   0.10724   0.26885   0.00000  Uiso   1.00
N363   N     0.38554   0.53308   0.51078   0.00000  Uiso   1.00
N364   N     0.28413   0.56904   0.86126   0.00000  Uiso   1.00
N365   N     0.29269   0.97993   0.28483   0.00000  Uiso   1.00
N366   N     0.45660   0.55708   0.42566   0.00000  Uiso   1.00
N367   N     0.35518   0.59305   0.77614   0.00000  Uiso   1.00
N368   N     0.36374   0.00394   0.19971   0.00000  Uiso   1.00
