data_job_06890
_audit_creation_date              2018-12-19
_audit_creation_method            'Materials Studio'
_symmetry_space_group_name_H-M    'P1'
_symmetry_Int_Tables_number       1
_symmetry_cell_setting            triclinic
loop_
_symmetry_equiv_pos_as_xyz
  x,y,z
_cell_length_a                    22.9043
_cell_length_b                    23.8891
_cell_length_c                    26.9014
_cell_angle_alpha                 67.2065
_cell_angle_beta                  80.5792
_cell_angle_gamma                 106.4354
loop_
_atom_site_label
_atom_site_type_symbol
_atom_site_fract_x
_atom_site_fract_y
_atom_site_fract_z
_atom_site_U_iso_or_equiv
_atom_site_adp_type
_atom_site_occupancy
C1     C     0.55675   0.37414   0.27785   0.00000  Uiso   1.00
C2     C     0.54390   0.40194   0.22117   0.00000  Uiso   1.00
C3     C     0.49018   0.41557   0.21314   0.00000  Uiso   1.00
C4     C     0.48740   0.44080   0.15800   0.00000  Uiso   1.00
C5     C     0.45994   0.48224   0.07691   0.00000  Uiso   1.00
C6     C     0.56732   0.31175   0.28439   0.00000  Uiso   1.00
C7     C     0.53329   0.24955   0.32951   0.00000  Uiso   1.00
C8     C     0.55023   0.19886   0.32759   0.00000  Uiso   1.00
C9     C     0.55917   0.10029   0.34466   0.00000  Uiso   1.00
C10    C     0.62111   0.42280   0.27068   0.00000  Uiso   1.00
C11    C     0.63233   0.45396   0.30427   0.00000  Uiso   1.00
C12    C     0.69457   0.49675   0.29081   0.00000  Uiso   1.00
C13    C     0.78703   0.57061   0.28659   0.00000  Uiso   1.00
C14    C     0.64734   0.39471   0.19421   0.00000  Uiso   1.00
C15    C     0.59311   0.41311   0.17575   0.00000  Uiso   1.00
C16    C     0.59041   0.43833   0.12060   0.00000  Uiso   1.00
C17    C     0.53669   0.45199   0.11249   0.00000  Uiso   1.00
C18    C     0.61652   0.32292   0.23896   0.00000  Uiso   1.00
C19    C     0.63352   0.27231   0.23697   0.00000  Uiso   1.00
C20    C     0.59953   0.21005   0.28208   0.00000  Uiso   1.00
C21    C     0.67032   0.43398   0.22525   0.00000  Uiso   1.00
C22    C     0.73256   0.47672   0.21173   0.00000  Uiso   1.00
C23    C     0.74386   0.50794   0.24530   0.00000  Uiso   1.00
H24    H     0.51844   0.36543   0.31322   0.00000  Uiso   1.00
H25    H     0.45210   0.40691   0.24831   0.00000  Uiso   1.00
H26    H     0.49522   0.24092   0.36466   0.00000  Uiso   1.00
H27    H     0.59424   0.44530   0.33942   0.00000  Uiso   1.00
H28    H     0.40025   0.45780   0.15631   0.00000  Uiso   1.00
H29    H     0.49117   0.10781   0.40166   0.00000  Uiso   1.00
H30    H     0.69997   0.53878   0.34844   0.00000  Uiso   1.00
H31    H     0.68566   0.40340   0.15884   0.00000  Uiso   1.00
H32    H     0.62850   0.44697   0.08545   0.00000  Uiso   1.00
H33    H     0.67161   0.28098   0.20181   0.00000  Uiso   1.00
H34    H     0.77062   0.48536   0.17657   0.00000  Uiso   1.00
H35    H     0.54341   0.49031   0.02413   0.00000  Uiso   1.00
H36    H     0.63434   0.14032   0.26948   0.00000  Uiso   1.00
H37    H     0.84313   0.57129   0.21626   0.00000  Uiso   1.00
O38    O     0.43120   0.50201   0.04473   0.00000  Uiso   1.00
O39    O     0.55050   0.04284   0.36663   0.00000  Uiso   1.00
O40    O     0.82443   0.60826   0.29680   0.00000  Uiso   1.00
N41    N     0.44179   0.45949   0.13527   0.00000  Uiso   1.00
N42    N     0.52679   0.13226   0.36465   0.00000  Uiso   1.00
N43    N     0.72200   0.53517   0.31491   0.00000  Uiso   1.00
N44    N     0.51883   0.47698   0.06415   0.00000  Uiso   1.00
N45    N     0.60383   0.14976   0.29353   0.00000  Uiso   1.00
N46    N     0.79904   0.55267   0.24379   0.00000  Uiso   1.00
C47    C     0.26029   0.67559   0.09623   0.00000  Uiso   1.00
C48    C     0.20750   0.64504   0.15240   0.00000  Uiso   1.00
C49    C     0.21632   0.64249   0.20293   0.00000  Uiso   1.00
C50    C     0.16191   0.61242   0.24960   0.00000  Uiso   1.00
C51    C     0.08922   0.56899   0.33739   0.00000  Uiso   1.00
C52    C     0.25375   0.62155   0.07817   0.00000  Uiso   1.00
C53    C     0.30147   0.59927   0.06630   0.00000  Uiso   1.00
C54    C     0.28598   0.54943   0.05048   0.00000  Uiso   1.00
C55    C     0.28512   0.46957   0.02299   0.00000  Uiso   1.00
C56    C     0.24265   0.72668   0.05333   0.00000  Uiso   1.00
C57    C     0.28103   0.79279   0.02056   0.00000  Uiso   1.00
C58    C     0.25620   0.83146   0.98381   0.00000  Uiso   1.00
C59    C     0.23809   0.91482   0.91776   0.00000  Uiso   1.00
C60    C     0.14797   0.62671   0.08923   0.00000  Uiso   1.00
C61    C     0.14649   0.61848   0.14859   0.00000  Uiso   1.00
C62    C     0.09205   0.58841   0.19518   0.00000  Uiso   1.00
C63    C     0.10079   0.58582   0.24578   0.00000  Uiso   1.00
C64    C     0.19274   0.59500   0.07437   0.00000  Uiso   1.00
C65    C     0.17719   0.54519   0.05855   0.00000  Uiso   1.00
C66    C     0.22486   0.52283   0.04666   0.00000  Uiso   1.00
C67    C     0.18163   0.70013   0.04953   0.00000  Uiso   1.00
C68    C     0.15675   0.73870   0.01281   0.00000  Uiso   1.00
C69    C     0.19508   0.80486   0.98000   0.00000  Uiso   1.00
H70    H     0.30779   0.69626   0.09919   0.00000  Uiso   1.00
H71    H     0.26355   0.66304   0.20586   0.00000  Uiso   1.00
H72    H     0.34868   0.61983   0.06925   0.00000  Uiso   1.00
H73    H     0.32824   0.81332   0.02352   0.00000  Uiso   1.00
H74    H     0.18759   0.61448   0.32245   0.00000  Uiso   1.00
H75    H     0.36709   0.52339   0.03437   0.00000  Uiso   1.00
H76    H     0.32400   0.93139   0.93794   0.00000  Uiso   1.00
H77    H     0.10046   0.60604   0.08626   0.00000  Uiso   1.00
H78    H     0.04484   0.56787   0.19223   0.00000  Uiso   1.00
H79    H     0.12997   0.52465   0.05561   0.00000  Uiso   1.00
H80    H     0.10953   0.71814   0.00988   0.00000  Uiso   1.00
H81    H     0.01008   0.53723   0.31139   0.00000  Uiso   1.00
H82    H     0.18958   0.44614   0.02330   0.00000  Uiso   1.00
H83    H     0.14649   0.85414   0.92687   0.00000  Uiso   1.00
O84    O     0.06599   0.55236   0.38686   0.00000  Uiso   1.00
O85    O     0.30149   0.43285   0.00889   0.00000  Uiso   1.00
O86    O     0.24495   0.96814   0.88239   0.00000  Uiso   1.00
N87    N     0.15345   0.60155   0.30530   0.00000  Uiso   1.00
N88    N     0.32127   0.51637   0.03597   0.00000  Uiso   1.00
N89    N     0.28098   0.89782   0.94581   0.00000  Uiso   1.00
N90    N     0.05793   0.55998   0.29935   0.00000  Uiso   1.00
N91    N     0.22575   0.47481   0.03001   0.00000  Uiso   1.00
N92    N     0.18547   0.85625   0.93985   0.00000  Uiso   1.00
C93    C     0.11045   0.82225   0.63820   0.00000  Uiso   1.00
C94    C     0.18099   0.86757   0.61330   0.00000  Uiso   1.00
C95    C     0.21099   0.91701   0.55798   0.00000  Uiso   1.00
C96    C     0.27588   0.95304   0.54345   0.00000  Uiso   1.00
C97    C     0.38031   0.02537   0.49878   0.00000  Uiso   1.00
C98    C     0.10897   0.75246   0.66134   0.00000  Uiso   1.00
C99    C     0.07841   0.70510   0.64643   0.00000  Uiso   1.00
C100   C     0.08266   0.64422   0.67236   0.00000  Uiso   1.00
C101   C     0.07524   0.53782   0.70231   0.00000  Uiso   1.00
C102   C     0.08379   0.83031   0.68969   0.00000  Uiso   1.00
C103   C     0.03205   0.84840   0.69862   0.00000  Uiso   1.00
C104   C     0.01509   0.85304   0.74843   0.00000  Uiso   1.00
C105   C     0.96857   0.86752   0.82240   0.00000  Uiso   1.00
C106   C     0.17233   0.79831   0.71078   0.00000  Uiso   1.00
C107   C     0.21460   0.85457   0.65272   0.00000  Uiso   1.00
C108   C     0.27946   0.89053   0.63828   0.00000  Uiso   1.00
C109   C     0.30955   0.94002   0.58295   0.00000  Uiso   1.00
C110   C     0.14258   0.73945   0.70077   0.00000  Uiso   1.00
C111   C     0.14687   0.67862   0.72673   0.00000  Uiso   1.00
C112   C     0.11633   0.63120   0.71185   0.00000  Uiso   1.00
C113   C     0.11740   0.81731   0.72912   0.00000  Uiso   1.00
C114   C     0.10052   0.82192   0.77893   0.00000  Uiso   1.00
C115   C     0.04876   0.84002   0.78793   0.00000  Uiso   1.00
H116   H     0.08428   0.83236   0.60751   0.00000  Uiso   1.00
H117   H     0.18497   0.92705   0.52748   0.00000  Uiso   1.00
H118   H     0.05240   0.71518   0.61592   0.00000  Uiso   1.00
H119   H     0.00605   0.85845   0.66811   0.00000  Uiso   1.00
H120   H     0.31143   0.02629   0.45613   0.00000  Uiso   1.00
H121   H     0.03188   0.57953   0.64263   0.00000  Uiso   1.00
H122   H     0.93414   0.88165   0.75268   0.00000  Uiso   1.00
H123   H     0.19850   0.78819   0.74148   0.00000  Uiso   1.00
H124   H     0.30545   0.88046   0.66880   0.00000  Uiso   1.00
H125   H     0.17289   0.66858   0.75724   0.00000  Uiso   1.00
H126   H     0.12654   0.81186   0.80942   0.00000  Uiso   1.00
H127   H     0.40922   0.98847   0.57083   0.00000  Uiso   1.00
H128   H     0.12967   0.54170   0.75733   0.00000  Uiso   1.00
H129   H     0.03193   0.84383   0.86738   0.00000  Uiso   1.00
O130   O     0.42863   0.06886   0.46325   0.00000  Uiso   1.00
O131   O     0.06186   0.48272   0.70793   0.00000  Uiso   1.00
O132   O     0.93363   0.87910   0.85231   0.00000  Uiso   1.00
N133   N     0.31976   0.00473   0.49310   0.00000  Uiso   1.00
N134   N     0.05841   0.58704   0.66746   0.00000  Uiso   1.00
N135   N     0.96702   0.86948   0.77035   0.00000  Uiso   1.00
N136   N     0.37238   0.98438   0.55482   0.00000  Uiso   1.00
N137   N     0.11103   0.56669   0.72918   0.00000  Uiso   1.00
N138   N     0.01964   0.84913   0.83207   0.00000  Uiso   1.00
C139   C     0.75865   0.87138   0.40840   0.00000  Uiso   1.00
C140   C     0.82820   0.90729   0.40198   0.00000  Uiso   1.00
C141   C     0.85021   0.92028   0.44299   0.00000  Uiso   1.00
C142   C     0.91560   0.95373   0.42889   0.00000  Uiso   1.00
C143   C     0.01724   0.00647   0.42702   0.00000  Uiso   1.00
C144   C     0.75741   0.81378   0.39635   0.00000  Uiso   1.00
C145   C     0.71989   0.74816   0.43261   0.00000  Uiso   1.00
C146   C     0.72568   0.70290   0.41376   0.00000  Uiso   1.00
C147   C     0.71738   0.61047   0.40312   0.00000  Uiso   1.00
C148   C     0.74310   0.91793   0.35976   0.00000  Uiso   1.00
C149   C     0.69354   0.93985   0.36525   0.00000  Uiso   1.00
C150   C     0.68728   0.98226   0.31559   0.00000  Uiso   1.00
C151   C     0.65676   0.05153   0.24814   0.00000  Uiso   1.00
C152   C     0.83564   0.90769   0.31045   0.00000  Uiso   1.00
C153   C     0.87002   0.92701   0.34878   0.00000  Uiso   1.00
C154   C     0.93539   0.96046   0.33461   0.00000  Uiso   1.00
C155   C     0.95750   0.97349   0.37559   0.00000  Uiso   1.00
C156   C     0.79922   0.83350   0.34314   0.00000  Uiso   1.00
C157   C     0.80507   0.78833   0.32423   0.00000  Uiso   1.00
C158   C     0.76757   0.72265   0.36046   0.00000  Uiso   1.00
C159   C     0.78492   0.93765   0.30655   0.00000  Uiso   1.00
C160   C     0.77872   0.98003   0.25687   0.00000  Uiso   1.00
C161   C     0.72917   0.00202   0.26229   0.00000  Uiso   1.00
H162   H     0.72609   0.85602   0.44982   0.00000  Uiso   1.00
H163   H     0.81784   0.90500   0.48416   0.00000  Uiso   1.00
H164   H     0.68753   0.73291   0.47377   0.00000  Uiso   1.00
H165   H     0.66119   0.92458   0.40642   0.00000  Uiso   1.00
H166   H     0.93800   0.96799   0.49876   0.00000  Uiso   1.00
H167   H     0.66322   0.60513   0.47686   0.00000  Uiso   1.00
H168   H     0.60768   0.00929   0.33485   0.00000  Uiso   1.00
H169   H     0.86819   0.92304   0.26903   0.00000  Uiso   1.00
H170   H     0.96774   0.97571   0.29344   0.00000  Uiso   1.00
H171   H     0.83743   0.80361   0.28306   0.00000  Uiso   1.00
H172   H     0.81109   0.99528   0.21571   0.00000  Uiso   1.00
H173   H     0.05966   0.02538   0.34397   0.00000  Uiso   1.00
H174   H     0.78488   0.66251   0.32207   0.00000  Uiso   1.00
H175   H     0.72934   0.06667   0.18006   0.00000  Uiso   1.00
O176   O     0.06175   0.03010   0.44070   0.00000  Uiso   1.00
O177   O     0.70125   0.55404   0.41196   0.00000  Uiso   1.00
O178   O     0.62838   0.08429   0.22564   0.00000  Uiso   1.00
N179   N     0.95297   0.97428   0.45898   0.00000  Uiso   1.00
N180   N     0.69608   0.63502   0.43851   0.00000  Uiso   1.00
N181   N     0.64414   0.01287   0.30573   0.00000  Uiso   1.00
N182   N     0.01844   0.00516   0.37569   0.00000  Uiso   1.00
N183   N     0.76154   0.66590   0.35522   0.00000  Uiso   1.00
N184   N     0.70961   0.04375   0.22244   0.00000  Uiso   1.00
C185   C     0.83386   0.17917   0.79316   0.00000  Uiso   1.00
C186   C     0.76962   0.15246   0.83817   0.00000  Uiso   1.00
C187   C     0.71774   0.16970   0.82971   0.00000  Uiso   1.00
C188   C     0.66325   0.13976   0.87628   0.00000  Uiso   1.00
C189   C     0.56385   0.10519   0.93809   0.00000  Uiso   1.00
C190   C     0.84448   0.11945   0.79195   0.00000  Uiso   1.00
C191   C     0.85556   0.10893   0.74463   0.00000  Uiso   1.00
C192   C     0.86410   0.05121   0.75230   0.00000  Uiso   1.00
C193   C     0.88098   0.96540   0.74234   0.00000  Uiso   1.00
C194   C     0.88439   0.20817   0.81634   0.00000  Uiso   1.00
C195   C     0.92903   0.27224   0.78952   0.00000  Uiso   1.00
C196   C     0.97118   0.28921   0.81771   0.00000  Uiso   1.00
C197   C     0.05003   0.34115   0.84561   0.00000  Uiso   1.00
C198   C     0.82935   0.09537   0.89090   0.00000  Uiso   1.00
C199   C     0.76717   0.10695   0.89126   0.00000  Uiso   1.00
C200   C     0.71274   0.07698   0.93786   0.00000  Uiso   1.00
C201   C     0.66079   0.09417   0.92947   0.00000  Uiso   1.00
C202   C     0.84203   0.07393   0.84504   0.00000  Uiso   1.00
C203   C     0.85056   0.01621   0.85278   0.00000  Uiso   1.00
C204   C     0.86164   0.00561   0.80548   0.00000  Uiso   1.00
C205   C     0.88194   0.16265   0.86943   0.00000  Uiso   1.00
C206   C     0.92403   0.17952   0.89766   0.00000  Uiso   1.00
C207   C     0.96873   0.24361   0.87089   0.00000  Uiso   1.00
H208   H     0.83578   0.21461   0.75182   0.00000  Uiso   1.00
H209   H     0.71965   0.20492   0.78862   0.00000  Uiso   1.00
H210   H     0.85746   0.14416   0.70355   0.00000  Uiso   1.00
H211   H     0.93092   0.30745   0.74843   0.00000  Uiso   1.00
H212   H     0.58982   0.17409   0.85282   0.00000  Uiso   1.00
H213   H     0.88041   0.04599   0.67345   0.00000  Uiso   1.00
H214   H     0.03532   0.39031   0.76808   0.00000  Uiso   1.00
H215   H     0.82744   0.05993   0.93224   0.00000  Uiso   1.00
H216   H     0.71085   0.04176   0.97894   0.00000  Uiso   1.00
H217   H     0.84866   0.98100   0.89387   0.00000  Uiso   1.00
H218   H     0.92212   0.14429   0.93875   0.00000  Uiso   1.00
H219   H     0.58268   0.04166   0.00729   0.00000  Uiso   1.00
H220   H     0.87327   0.91357   0.82791   0.00000  Uiso   1.00
H221   H     0.02818   0.25788   0.92255   0.00000  Uiso   1.00
O222   O     0.50970   0.09869   0.95752   0.00000  Uiso   1.00
O223   O     0.89096   0.93065   0.72218   0.00000  Uiso   1.00
O224   O     0.09419   0.38238   0.84634   0.00000  Uiso   1.00
N225   N     0.60414   0.14542   0.88277   0.00000  Uiso   1.00
N226   N     0.87582   0.02566   0.71507   0.00000  Uiso   1.00
N227   N     0.02066   0.34756   0.80354   0.00000  Uiso   1.00
N228   N     0.60030   0.07416   0.96589   0.00000  Uiso   1.00
N229   N     0.87198   0.95440   0.79819   0.00000  Uiso   1.00
N230   N     0.01681   0.27630   0.88666   0.00000  Uiso   1.00
C231   C     0.42159   0.34100   0.81750   0.00000  Uiso   1.00
C232   C     0.43880   0.37578   0.75307   0.00000  Uiso   1.00
C233   C     0.49670   0.42568   0.71597   0.00000  Uiso   1.00
C234   C     0.50306   0.45108   0.65852   0.00000  Uiso   1.00
C235   C     0.53737   0.50866   0.56145   0.00000  Uiso   1.00
C236   C     0.40237   0.26802   0.83444   0.00000  Uiso   1.00
C237   C     0.42962   0.22732   0.86578   0.00000  Uiso   1.00
C238   C     0.40530   0.16201   0.87684   0.00000  Uiso   1.00
C239   C     0.38301   0.05228   0.90615   0.00000  Uiso   1.00
C240   C     0.36078   0.34930   0.84028   0.00000  Uiso   1.00
C241   C     0.35307   0.37692   0.87653   0.00000  Uiso   1.00
C242   C     0.29373   0.38002   0.89252   0.00000  Uiso   1.00
C243   C     0.20688   0.39649   0.93088   0.00000  Uiso   1.00
C244   C     0.32993   0.29736   0.78144   0.00000  Uiso   1.00
C245   C     0.38902   0.35207   0.73348   0.00000  Uiso   1.00
C246   C     0.39528   0.37740   0.67607   0.00000  Uiso   1.00
C247   C     0.45318   0.42733   0.63890   0.00000  Uiso   1.00
C248   C     0.35258   0.24432   0.81486   0.00000  Uiso   1.00
C249   C     0.32821   0.17904   0.82588   0.00000  Uiso   1.00
C250   C     0.35542   0.13826   0.85722   0.00000  Uiso   1.00
C251   C     0.31100   0.32560   0.82069   0.00000  Uiso   1.00
C252   C     0.25165   0.32864   0.83663   0.00000  Uiso   1.00
C253   C     0.24385   0.35627   0.87289   0.00000  Uiso   1.00
H254   H     0.46035   0.35945   0.83275   0.00000  Uiso   1.00
H255   H     0.53522   0.44401   0.73115   0.00000  Uiso   1.00
H256   H     0.46814   0.24568   0.88094   0.00000  Uiso   1.00
H257   H     0.39161   0.39526   0.89168   0.00000  Uiso   1.00
H258   H     0.59628   0.52728   0.60986   0.00000  Uiso   1.00
H259   H     0.45483   0.10909   0.92571   0.00000  Uiso   1.00
H260   H     0.29343   0.42451   0.94837   0.00000  Uiso   1.00
H261   H     0.29116   0.27891   0.76619   0.00000  Uiso   1.00
H262   H     0.35675   0.35905   0.66093   0.00000  Uiso   1.00
H263   H     0.28968   0.16072   0.81072   0.00000  Uiso   1.00
H264   H     0.21314   0.31030   0.82146   0.00000  Uiso   1.00
H265   H     0.45143   0.45832   0.55286   0.00000  Uiso   1.00
H266   H     0.30998   0.04013   0.86872   0.00000  Uiso   1.00
H267   H     0.14858   0.35555   0.89138   0.00000  Uiso   1.00
O268   O     0.57006   0.54696   0.51331   0.00000  Uiso   1.00
O269   O     0.38448   0.99831   0.92772   0.00000  Uiso   1.00
O270   O     0.17273   0.41213   0.95744   0.00000  Uiso   1.00
N271   N     0.55318   0.50006   0.61089   0.00000  Uiso   1.00
N272   N     0.42095   0.10908   0.90619   0.00000  Uiso   1.00
N273   N     0.27005   0.40395   0.92739   0.00000  Uiso   1.00
N274   N     0.47524   0.46296   0.58022   0.00000  Uiso   1.00
N275   N     0.34300   0.07198   0.87552   0.00000  Uiso   1.00
N276   N     0.19210   0.36685   0.89672   0.00000  Uiso   1.00
C277   C     0.44325   0.62586   0.72215   0.00000  Uiso   1.00
C278   C     0.45610   0.59806   0.77883   0.00000  Uiso   1.00
C279   C     0.50982   0.58443   0.78686   0.00000  Uiso   1.00
C280   C     0.51260   0.55920   0.84200   0.00000  Uiso   1.00
C281   C     0.54006   0.51776   0.92309   0.00000  Uiso   1.00
C282   C     0.43268   0.68825   0.71561   0.00000  Uiso   1.00
C283   C     0.46671   0.75045   0.67049   0.00000  Uiso   1.00
C284   C     0.44977   0.80114   0.67241   0.00000  Uiso   1.00
C285   C     0.44083   0.89971   0.65534   0.00000  Uiso   1.00
C286   C     0.37889   0.57720   0.72932   0.00000  Uiso   1.00
C287   C     0.36767   0.54604   0.69573   0.00000  Uiso   1.00
C288   C     0.30543   0.50325   0.70919   0.00000  Uiso   1.00
C289   C     0.21297   0.42939   0.71341   0.00000  Uiso   1.00
C290   C     0.35266   0.60529   0.80579   0.00000  Uiso   1.00
C291   C     0.40689   0.58689   0.82425   0.00000  Uiso   1.00
C292   C     0.40959   0.56167   0.87940   0.00000  Uiso   1.00
C293   C     0.46331   0.54801   0.88751   0.00000  Uiso   1.00
C294   C     0.38348   0.67708   0.76104   0.00000  Uiso   1.00
C295   C     0.36648   0.72769   0.76303   0.00000  Uiso   1.00
C296   C     0.40047   0.78995   0.71792   0.00000  Uiso   1.00
C297   C     0.32968   0.56602   0.77475   0.00000  Uiso   1.00
C298   C     0.26744   0.52328   0.78827   0.00000  Uiso   1.00
C299   C     0.25614   0.49206   0.75470   0.00000  Uiso   1.00
H300   H     0.48156   0.63457   0.68678   0.00000  Uiso   1.00
H301   H     0.54790   0.59309   0.75169   0.00000  Uiso   1.00
H302   H     0.50478   0.75908   0.63534   0.00000  Uiso   1.00
H303   H     0.40576   0.55470   0.66058   0.00000  Uiso   1.00
H304   H     0.59975   0.54220   0.84369   0.00000  Uiso   1.00
H305   H     0.50883   0.89219   0.59834   0.00000  Uiso   1.00
H306   H     0.30003   0.46122   0.65156   0.00000  Uiso   1.00
H307   H     0.31434   0.59660   0.84116   0.00000  Uiso   1.00
H308   H     0.37150   0.55303   0.91455   0.00000  Uiso   1.00
H309   H     0.32839   0.71902   0.79819   0.00000  Uiso   1.00
H310   H     0.22938   0.51464   0.82343   0.00000  Uiso   1.00
H311   H     0.45659   0.50969   0.97587   0.00000  Uiso   1.00
H312   H     0.36566   0.85968   0.73052   0.00000  Uiso   1.00
H313   H     0.15687   0.42871   0.78374   0.00000  Uiso   1.00
O314   O     0.56880   0.49799   0.95527   0.00000  Uiso   1.00
O315   O     0.44950   0.95716   0.63337   0.00000  Uiso   1.00
O316   O     0.17557   0.39174   0.70320   0.00000  Uiso   1.00
N317   N     0.55821   0.54051   0.86473   0.00000  Uiso   1.00
N318   N     0.47321   0.86774   0.63535   0.00000  Uiso   1.00
N319   N     0.27800   0.46483   0.68509   0.00000  Uiso   1.00
N320   N     0.48117   0.52302   0.93585   0.00000  Uiso   1.00
N321   N     0.39617   0.85024   0.70647   0.00000  Uiso   1.00
N322   N     0.20096   0.44733   0.75621   0.00000  Uiso   1.00
C323   C     0.73971   0.32441   0.90377   0.00000  Uiso   1.00
C324   C     0.79250   0.35496   0.84760   0.00000  Uiso   1.00
C325   C     0.78368   0.35751   0.79707   0.00000  Uiso   1.00
C326   C     0.83809   0.38758   0.75040   0.00000  Uiso   1.00
C327   C     0.91078   0.43101   0.66261   0.00000  Uiso   1.00
C328   C     0.74625   0.37845   0.92183   0.00000  Uiso   1.00
C329   C     0.69853   0.40073   0.93370   0.00000  Uiso   1.00
C330   C     0.71402   0.45057   0.94952   0.00000  Uiso   1.00
C331   C     0.71488   0.53043   0.97701   0.00000  Uiso   1.00
C332   C     0.75735   0.27332   0.94667   0.00000  Uiso   1.00
C333   C     0.71897   0.20721   0.97944   0.00000  Uiso   1.00
C334   C     0.74380   0.16854   0.01619   0.00000  Uiso   1.00
C335   C     0.76191   0.08518   0.08224   0.00000  Uiso   1.00
C336   C     0.85203   0.37329   0.91077   0.00000  Uiso   1.00
C337   C     0.85351   0.38152   0.85141   0.00000  Uiso   1.00
C338   C     0.90795   0.41159   0.80482   0.00000  Uiso   1.00
C339   C     0.89921   0.41418   0.75422   0.00000  Uiso   1.00
C340   C     0.80726   0.40500   0.92563   0.00000  Uiso   1.00
C341   C     0.82281   0.45481   0.94145   0.00000  Uiso   1.00
C342   C     0.77514   0.47717   0.95334   0.00000  Uiso   1.00
C343   C     0.81837   0.29987   0.95047   0.00000  Uiso   1.00
C344   C     0.84325   0.26130   0.98719   0.00000  Uiso   1.00
C345   C     0.80492   0.19514   0.02000   0.00000  Uiso   1.00
H346   H     0.69221   0.30374   0.90081   0.00000  Uiso   1.00
H347   H     0.73645   0.33696   0.79414   0.00000  Uiso   1.00
H348   H     0.65132   0.38017   0.93075   0.00000  Uiso   1.00
H349   H     0.67176   0.18668   0.97648   0.00000  Uiso   1.00
H350   H     0.81241   0.38552   0.67755   0.00000  Uiso   1.00
H351   H     0.63291   0.47661   0.96563   0.00000  Uiso   1.00
H352   H     0.67600   0.06861   0.06206   0.00000  Uiso   1.00
H353   H     0.89954   0.39396   0.91374   0.00000  Uiso   1.00
H354   H     0.95516   0.43213   0.80777   0.00000  Uiso   1.00
H355   H     0.87003   0.47535   0.94439   0.00000  Uiso   1.00
H356   H     0.89047   0.28186   0.99012   0.00000  Uiso   1.00
H357   H     0.98992   0.46277   0.68861   0.00000  Uiso   1.00
H358   H     0.81042   0.55386   0.97670   0.00000  Uiso   1.00
H359   H     0.85351   0.14586   0.07313   0.00000  Uiso   1.00
O360   O     0.93401   0.44764   0.61314   0.00000  Uiso   1.00
O361   O     0.69851   0.56715   0.99111   0.00000  Uiso   1.00
O362   O     0.75505   0.03186   0.11761   0.00000  Uiso   1.00
N363   N     0.84655   0.39845   0.69470   0.00000  Uiso   1.00
N364   N     0.67873   0.48363   0.96403   0.00000  Uiso   1.00
N365   N     0.71902   0.10218   0.05419   0.00000  Uiso   1.00
N366   N     0.94207   0.44002   0.70065   0.00000  Uiso   1.00
N367   N     0.77425   0.52519   0.96999   0.00000  Uiso   1.00
N368   N     0.81453   0.14375   0.06015   0.00000  Uiso   1.00
C369   C     0.88955   0.17775   0.36180   0.00000  Uiso   1.00
C370   C     0.81901   0.13243   0.38670   0.00000  Uiso   1.00
C371   C     0.78901   0.08299   0.44202   0.00000  Uiso   1.00
C372   C     0.72412   0.04696   0.45655   0.00000  Uiso   1.00
C373   C     0.61969   0.97463   0.50122   0.00000  Uiso   1.00
C374   C     0.89103   0.24754   0.33866   0.00000  Uiso   1.00
C375   C     0.92159   0.29490   0.35357   0.00000  Uiso   1.00
C376   C     0.91734   0.35578   0.32764   0.00000  Uiso   1.00
C377   C     0.92476   0.46218   0.29769   0.00000  Uiso   1.00
C378   C     0.91621   0.16969   0.31031   0.00000  Uiso   1.00
C379   C     0.96795   0.15160   0.30138   0.00000  Uiso   1.00
C380   C     0.98491   0.14696   0.25157   0.00000  Uiso   1.00
C381   C     0.03143   0.13248   0.17760   0.00000  Uiso   1.00
C382   C     0.82767   0.20169   0.28922   0.00000  Uiso   1.00
C383   C     0.78540   0.14543   0.34728   0.00000  Uiso   1.00
C384   C     0.72054   0.10947   0.36172   0.00000  Uiso   1.00
C385   C     0.69045   0.05998   0.41705   0.00000  Uiso   1.00
C386   C     0.85742   0.26055   0.29923   0.00000  Uiso   1.00
C387   C     0.85313   0.32138   0.27327   0.00000  Uiso   1.00
C388   C     0.88367   0.36880   0.28815   0.00000  Uiso   1.00
C389   C     0.88260   0.18269   0.27088   0.00000  Uiso   1.00
C390   C     0.89948   0.17808   0.22107   0.00000  Uiso   1.00
C391   C     0.95124   0.15998   0.21207   0.00000  Uiso   1.00
H392   H     0.91572   0.16764   0.39249   0.00000  Uiso   1.00
H393   H     0.81503   0.07295   0.47252   0.00000  Uiso   1.00
H394   H     0.94760   0.28482   0.38408   0.00000  Uiso   1.00
H395   H     0.99395   0.14155   0.33189   0.00000  Uiso   1.00
H396   H     0.68857   0.97371   0.54387   0.00000  Uiso   1.00
H397   H     0.96812   0.42047   0.35737   0.00000  Uiso   1.00
H398   H     0.06586   0.11835   0.24732   0.00000  Uiso   1.00
H399   H     0.80150   0.21181   0.25852   0.00000  Uiso   1.00
H400   H     0.69455   0.11954   0.33120   0.00000  Uiso   1.00
H401   H     0.82711   0.33142   0.24276   0.00000  Uiso   1.00
H402   H     0.87346   0.18814   0.19058   0.00000  Uiso   1.00
H403   H     0.59078   0.01153   0.42917   0.00000  Uiso   1.00
H404   H     0.87033   0.45830   0.24267   0.00000  Uiso   1.00
H405   H     0.96807   0.15617   0.13262   0.00000  Uiso   1.00
O406   O     0.57137   0.93114   0.53675   0.00000  Uiso   1.00
O407   O     0.93814   0.51728   0.29207   0.00000  Uiso   1.00
O408   O     0.06637   0.12090   0.14769   0.00000  Uiso   1.00
N409   N     0.68024   0.99527   0.50690   0.00000  Uiso   1.00
N410   N     0.94159   0.41296   0.33254   0.00000  Uiso   1.00
N411   N     0.03298   0.13052   0.22965   0.00000  Uiso   1.00
N412   N     0.62762   0.01562   0.44518   0.00000  Uiso   1.00
N413   N     0.88897   0.43331   0.27082   0.00000  Uiso   1.00
N414   N     0.98036   0.15087   0.16793   0.00000  Uiso   1.00
C415   C     0.24135   0.12862   0.59160   0.00000  Uiso   1.00
C416   C     0.17180   0.09271   0.59802   0.00000  Uiso   1.00
C417   C     0.14979   0.07972   0.55701   0.00000  Uiso   1.00
C418   C     0.08440   0.04627   0.57111   0.00000  Uiso   1.00
C419   C     0.98276   0.99353   0.57298   0.00000  Uiso   1.00
C420   C     0.24259   0.18622   0.60365   0.00000  Uiso   1.00
C421   C     0.28011   0.25184   0.56739   0.00000  Uiso   1.00
C422   C     0.27432   0.29710   0.58624   0.00000  Uiso   1.00
C423   C     0.28262   0.38953   0.59688   0.00000  Uiso   1.00
C424   C     0.25690   0.08207   0.64024   0.00000  Uiso   1.00
C425   C     0.30646   0.06015   0.63475   0.00000  Uiso   1.00
C426   C     0.31272   0.01774   0.68441   0.00000  Uiso   1.00
C427   C     0.34324   0.94847   0.75186   0.00000  Uiso   1.00
C428   C     0.16436   0.09231   0.68955   0.00000  Uiso   1.00
C429   C     0.12998   0.07299   0.65122   0.00000  Uiso   1.00
C430   C     0.06461   0.03954   0.66539   0.00000  Uiso   1.00
C431   C     0.04250   0.02651   0.62441   0.00000  Uiso   1.00
C432   C     0.20078   0.16650   0.65686   0.00000  Uiso   1.00
C433   C     0.19493   0.21167   0.67577   0.00000  Uiso   1.00
C434   C     0.23243   0.27735   0.63954   0.00000  Uiso   1.00
C435   C     0.21508   0.06235   0.69345   0.00000  Uiso   1.00
C436   C     0.22128   0.01997   0.74313   0.00000  Uiso   1.00
C437   C     0.27083   0.99798   0.73771   0.00000  Uiso   1.00
H438   H     0.27391   0.14398   0.55018   0.00000  Uiso   1.00
H439   H     0.18216   0.09500   0.51584   0.00000  Uiso   1.00
H440   H     0.31247   0.26709   0.52623   0.00000  Uiso   1.00
H441   H     0.33881   0.07542   0.59358   0.00000  Uiso   1.00
H442   H     0.06200   0.03201   0.50124   0.00000  Uiso   1.00
H443   H     0.33678   0.39487   0.52314   0.00000  Uiso   1.00
H444   H     0.39232   0.99071   0.66515   0.00000  Uiso   1.00
H445   H     0.13181   0.07696   0.73097   0.00000  Uiso   1.00
H446   H     0.03226   0.02429   0.70656   0.00000  Uiso   1.00
H447   H     0.16257   0.19639   0.71694   0.00000  Uiso   1.00
H448   H     0.18891   0.00472   0.78429   0.00000  Uiso   1.00
H449   H     0.94034   0.97462   0.65603   0.00000  Uiso   1.00
H450   H     0.21512   0.33749   0.67793   0.00000  Uiso   1.00
H451   H     0.27066   0.93333   0.81994   0.00000  Uiso   1.00
O452   O     0.93825   0.96990   0.55930   0.00000  Uiso   1.00
O453   O     0.29875   0.44596   0.58804   0.00000  Uiso   1.00
O454   O     0.37162   0.91571   0.77436   0.00000  Uiso   1.00
N455   N     0.04703   0.02572   0.54102   0.00000  Uiso   1.00
N456   N     0.30392   0.36498   0.56149   0.00000  Uiso   1.00
N457   N     0.35586   0.98713   0.69427   0.00000  Uiso   1.00
N458   N     0.98156   0.99484   0.62431   0.00000  Uiso   1.00
N459   N     0.23846   0.33410   0.64478   0.00000  Uiso   1.00
N460   N     0.29039   0.95625   0.77756   0.00000  Uiso   1.00
C461   C     0.16614   0.82083   0.20684   0.00000  Uiso   1.00
C462   C     0.23038   0.84754   0.16183   0.00000  Uiso   1.00
C463   C     0.28226   0.83030   0.17029   0.00000  Uiso   1.00
C464   C     0.33675   0.86024   0.12372   0.00000  Uiso   1.00
C465   C     0.43615   0.89481   0.06191   0.00000  Uiso   1.00
C466   C     0.15552   0.88055   0.20805   0.00000  Uiso   1.00
C467   C     0.14444   0.89107   0.25537   0.00000  Uiso   1.00
C468   C     0.13590   0.94879   0.24770   0.00000  Uiso   1.00
C469   C     0.11902   0.03460   0.25766   0.00000  Uiso   1.00
C470   C     0.11561   0.79183   0.18366   0.00000  Uiso   1.00
C471   C     0.07097   0.72776   0.21048   0.00000  Uiso   1.00
C472   C     0.02882   0.71079   0.18229   0.00000  Uiso   1.00
C473   C     0.94997   0.65885   0.15439   0.00000  Uiso   1.00
C474   C     0.17065   0.90463   0.10910   0.00000  Uiso   1.00
C475   C     0.23283   0.89305   0.10874   0.00000  Uiso   1.00
C476   C     0.28726   0.92302   0.06214   0.00000  Uiso   1.00
C477   C     0.33921   0.90583   0.07053   0.00000  Uiso   1.00
C478   C     0.15797   0.92607   0.15496   0.00000  Uiso   1.00
C479   C     0.14944   0.98379   0.14722   0.00000  Uiso   1.00
C480   C     0.13836   0.99439   0.19452   0.00000  Uiso   1.00
C481   C     0.11806   0.83735   0.13057   0.00000  Uiso   1.00
C482   C     0.07597   0.82048   0.10234   0.00000  Uiso   1.00
C483   C     0.03127   0.75639   0.12911   0.00000  Uiso   1.00
H484   H     0.16422   0.78539   0.24818   0.00000  Uiso   1.00
H485   H     0.28035   0.79508   0.21138   0.00000  Uiso   1.00
H486   H     0.14254   0.85584   0.29645   0.00000  Uiso   1.00
H487   H     0.06908   0.69255   0.25157   0.00000  Uiso   1.00
H488   H     0.41018   0.82591   0.14718   0.00000  Uiso   1.00
H489   H     0.11959   0.95401   0.32655   0.00000  Uiso   1.00
H490   H     0.96468   0.60969   0.23192   0.00000  Uiso   1.00
H491   H     0.17256   0.94007   0.06776   0.00000  Uiso   1.00
H492   H     0.28915   0.95824   0.02106   0.00000  Uiso   1.00
H493   H     0.15134   0.01900   0.10613   0.00000  Uiso   1.00
H494   H     0.07788   0.85571   0.06125   0.00000  Uiso   1.00
H495   H     0.41732   0.95834   0.99271   0.00000  Uiso   1.00
H496   H     0.12673   0.08643   0.17209   0.00000  Uiso   1.00
H497   H     0.97182   0.74212   0.07745   0.00000  Uiso   1.00
O498   O     0.49030   0.90131   0.04248   0.00000  Uiso   1.00
O499   O     0.10904   0.06935   0.27782   0.00000  Uiso   1.00
O500   O     0.90581   0.61762   0.15366   0.00000  Uiso   1.00
N501   N     0.39586   0.85458   0.11723   0.00000  Uiso   1.00
N502   N     0.12418   0.97434   0.28493   0.00000  Uiso   1.00
N503   N     0.97934   0.65244   0.19646   0.00000  Uiso   1.00
N504   N     0.39970   0.92584   0.03411   0.00000  Uiso   1.00
N505   N     0.12802   0.04560   0.20181   0.00000  Uiso   1.00
N506   N     0.98319   0.72370   0.11334   0.00000  Uiso   1.00
C507   C     0.57841   0.65900   0.18250   0.00000  Uiso   1.00
C508   C     0.56120   0.62422   0.24693   0.00000  Uiso   1.00
C509   C     0.50330   0.57432   0.28403   0.00000  Uiso   1.00
C510   C     0.49694   0.54892   0.34148   0.00000  Uiso   1.00
C511   C     0.46263   0.49134   0.43855   0.00000  Uiso   1.00
C512   C     0.59763   0.73198   0.16556   0.00000  Uiso   1.00
C513   C     0.57038   0.77268   0.13422   0.00000  Uiso   1.00
C514   C     0.59470   0.83799   0.12316   0.00000  Uiso   1.00
C515   C     0.61699   0.94772   0.09385   0.00000  Uiso   1.00
C516   C     0.63922   0.65070   0.15972   0.00000  Uiso   1.00
C517   C     0.64693   0.62308   0.12347   0.00000  Uiso   1.00
C518   C     0.70627   0.61998   0.10748   0.00000  Uiso   1.00
C519   C     0.79312   0.60351   0.06912   0.00000  Uiso   1.00
C520   C     0.67007   0.70264   0.21856   0.00000  Uiso   1.00
C521   C     0.61098   0.64793   0.26652   0.00000  Uiso   1.00
C522   C     0.60472   0.62260   0.32393   0.00000  Uiso   1.00
C523   C     0.54682   0.57267   0.36110   0.00000  Uiso   1.00
C524   C     0.64742   0.75568   0.18514   0.00000  Uiso   1.00
C525   C     0.67179   0.82096   0.17412   0.00000  Uiso   1.00
C526   C     0.64458   0.86174   0.14278   0.00000  Uiso   1.00
C527   C     0.68900   0.67440   0.17931   0.00000  Uiso   1.00
C528   C     0.74835   0.67136   0.16337   0.00000  Uiso   1.00
C529   C     0.75615   0.64373   0.12711   0.00000  Uiso   1.00
H530   H     0.53965   0.64055   0.16725   0.00000  Uiso   1.00
H531   H     0.46478   0.55599   0.26885   0.00000  Uiso   1.00
H532   H     0.53186   0.75432   0.11906   0.00000  Uiso   1.00
H533   H     0.60839   0.60474   0.10832   0.00000  Uiso   1.00
H534   H     0.40372   0.47272   0.39014   0.00000  Uiso   1.00
H535   H     0.54517   0.89091   0.07429   0.00000  Uiso   1.00
H536   H     0.70657   0.57549   0.05163   0.00000  Uiso   1.00
H537   H     0.70884   0.72109   0.23381   0.00000  Uiso   1.00
H538   H     0.64325   0.64095   0.33907   0.00000  Uiso   1.00
H539   H     0.71032   0.83928   0.18928   0.00000  Uiso   1.00
H540   H     0.78686   0.68970   0.17854   0.00000  Uiso   1.00
H541   H     0.54857   0.54168   0.44714   0.00000  Uiso   1.00
H542   H     0.69002   0.95987   0.13128   0.00000  Uiso   1.00
H543   H     0.85142   0.64445   0.10862   0.00000  Uiso   1.00
O544   O     0.42994   0.45304   0.48669   0.00000  Uiso   1.00
O545   O     0.61552   0.00169   0.07228   0.00000  Uiso   1.00
O546   O     0.82727   0.58787   0.04256   0.00000  Uiso   1.00
N547   N     0.44682   0.49994   0.38911   0.00000  Uiso   1.00
N548   N     0.57905   0.89092   0.09381   0.00000  Uiso   1.00
N549   N     0.72995   0.59605   0.07261   0.00000  Uiso   1.00
N550   N     0.52476   0.53704   0.41978   0.00000  Uiso   1.00
N551   N     0.65700   0.92802   0.12448   0.00000  Uiso   1.00
N552   N     0.80790   0.63315   0.10328   0.00000  Uiso   1.00
