data_job_01490
_audit_creation_date              2018-12-19
_audit_creation_method            'Materials Studio'
_symmetry_space_group_name_H-M    'P1'
_symmetry_Int_Tables_number       1
_symmetry_cell_setting            triclinic
loop_
_symmetry_equiv_pos_as_xyz
  x,y,z
_cell_length_a                    16.2699
_cell_length_b                    20.7313
_cell_length_c                    14.7809
_cell_angle_alpha                 90.0000
_cell_angle_beta                  90.0000
_cell_angle_gamma                 90.0000
loop_
_atom_site_label
_atom_site_type_symbol
_atom_site_fract_x
_atom_site_fract_y
_atom_site_fract_z
_atom_site_U_iso_or_equiv
_atom_site_adp_type
_atom_site_occupancy
C1     C     0.16547   0.20815   0.76418   0.00000  Uiso   1.00
C2     C     0.23564   0.17596   0.71279   0.00000  Uiso   1.00
C3     C     0.31125   0.15879   0.74897   0.00000  Uiso   1.00
C4     C     0.36722   0.12985   0.69082   0.00000  Uiso   1.00
C5     C     0.47908   0.08162   0.62488   0.00000  Uiso   1.00
C6     C     0.14572   0.26993   0.71258   0.00000  Uiso   1.00
C7     C     0.14571   0.33176   0.74858   0.00000  Uiso   1.00
C8     C     0.12598   0.38193   0.69026   0.00000  Uiso   1.00
C9     C     0.09818   0.47958   0.62400   0.00000  Uiso   1.00
C10    C     0.09103   0.16427   0.75231   0.00000  Uiso   1.00
C11    C     0.04502   0.13727   0.82172   0.00000  Uiso   1.00
C12    C     0.97922   0.09848   0.79684   0.00000  Uiso   1.00
C13    C     0.86650   0.03208   0.79227   0.00000  Uiso   1.00
C14    C     0.13041   0.18730   0.59660   0.00000  Uiso   1.00
C15    C     0.21660   0.16464   0.62177   0.00000  Uiso   1.00
C16    C     0.27246   0.13572   0.56356   0.00000  Uiso   1.00
C17    C     0.34814   0.11850   0.59964   0.00000  Uiso   1.00
C18    C     0.12668   0.25861   0.62156   0.00000  Uiso   1.00
C19    C     0.10693   0.30869   0.56317   0.00000  Uiso   1.00
C20    C     0.10690   0.37058   0.59907   0.00000  Uiso   1.00
C21    C     0.07198   0.15294   0.66129   0.00000  Uiso   1.00
C22    C     0.00624   0.11420   0.63631   0.00000  Uiso   1.00
C23    C     0.96014   0.08714   0.70566   0.00000  Uiso   1.00
H24    H     0.18029   0.21697   0.83504   0.00000  Uiso   1.00
H25    H     0.32597   0.16757   0.81941   0.00000  Uiso   1.00
H26    H     0.16045   0.34051   0.81902   0.00000  Uiso   1.00
H27    H     0.05977   0.14604   0.89214   0.00000  Uiso   1.00
H28    H     0.47908   0.10782   0.76193   0.00000  Uiso   1.00
H29    H     0.13005   0.47248   0.76112   0.00000  Uiso   1.00
H30    H     0.91775   0.06241   0.91532   0.00000  Uiso   1.00
H31    H     0.11558   0.17848   0.52573   0.00000  Uiso   1.00
H32    H     0.25771   0.12696   0.49312   0.00000  Uiso   1.00
H33    H     0.09219   0.29991   0.49274   0.00000  Uiso   1.00
H34    H     0.99152   0.10544   0.56586   0.00000  Uiso   1.00
H35    H     0.42368   0.07486   0.49710   0.00000  Uiso   1.00
H36    H     0.07465   0.43953   0.49630   0.00000  Uiso   1.00
H37    H     0.86236   0.02946   0.65049   0.00000  Uiso   1.00
O38    O     0.54605   0.05816   0.61364   0.00000  Uiso   1.00
O39    O     0.08812   0.53658   0.61259   0.00000  Uiso   1.00
O40    O     0.80960   0.99858   0.81489   0.00000  Uiso   1.00
N41    N     0.44653   0.10712   0.70408   0.00000  Uiso   1.00
N42    N     0.12022   0.44806   0.70333   0.00000  Uiso   1.00
N43    N     0.92173   0.06469   0.84748   0.00000  Uiso   1.00
N44    N     0.41672   0.08939   0.56158   0.00000  Uiso   1.00
N45    N     0.09041   0.43033   0.56083   0.00000  Uiso   1.00
N46    N     0.89192   0.04696   0.70498   0.00000  Uiso   1.00
C47    C     0.66547   0.70815   0.26418   0.00000  Uiso   1.00
C48    C     0.73564   0.67596   0.21279   0.00000  Uiso   1.00
C49    C     0.81125   0.65879   0.24897   0.00000  Uiso   1.00
C50    C     0.86722   0.62985   0.19082   0.00000  Uiso   1.00
C51    C     0.97908   0.58162   0.12488   0.00000  Uiso   1.00
C52    C     0.64572   0.76993   0.21258   0.00000  Uiso   1.00
C53    C     0.64571   0.83176   0.24858   0.00000  Uiso   1.00
C54    C     0.62598   0.88193   0.19026   0.00000  Uiso   1.00
C55    C     0.59818   0.97958   0.12400   0.00000  Uiso   1.00
C56    C     0.59103   0.66427   0.25231   0.00000  Uiso   1.00
C57    C     0.54502   0.63727   0.32172   0.00000  Uiso   1.00
C58    C     0.47922   0.59848   0.29684   0.00000  Uiso   1.00
C59    C     0.36650   0.53208   0.29227   0.00000  Uiso   1.00
C60    C     0.63041   0.68730   0.09660   0.00000  Uiso   1.00
C61    C     0.71660   0.66464   0.12177   0.00000  Uiso   1.00
C62    C     0.77246   0.63572   0.06356   0.00000  Uiso   1.00
C63    C     0.84814   0.61850   0.09964   0.00000  Uiso   1.00
C64    C     0.62668   0.75861   0.12156   0.00000  Uiso   1.00
C65    C     0.60693   0.80869   0.06317   0.00000  Uiso   1.00
C66    C     0.60690   0.87058   0.09907   0.00000  Uiso   1.00
C67    C     0.57198   0.65294   0.16129   0.00000  Uiso   1.00
C68    C     0.50624   0.61420   0.13631   0.00000  Uiso   1.00
C69    C     0.46014   0.58714   0.20566   0.00000  Uiso   1.00
H70    H     0.68029   0.71697   0.33504   0.00000  Uiso   1.00
H71    H     0.82597   0.66757   0.31941   0.00000  Uiso   1.00
H72    H     0.66045   0.84051   0.31902   0.00000  Uiso   1.00
H73    H     0.55977   0.64604   0.39214   0.00000  Uiso   1.00
H74    H     0.97908   0.60782   0.26193   0.00000  Uiso   1.00
H75    H     0.63005   0.97248   0.26112   0.00000  Uiso   1.00
H76    H     0.41775   0.56241   0.41532   0.00000  Uiso   1.00
H77    H     0.61558   0.67848   0.02573   0.00000  Uiso   1.00
H78    H     0.75771   0.62696   0.99312   0.00000  Uiso   1.00
H79    H     0.59219   0.79991   0.99274   0.00000  Uiso   1.00
H80    H     0.49152   0.60544   0.06586   0.00000  Uiso   1.00
H81    H     0.92368   0.57486   0.99710   0.00000  Uiso   1.00
H82    H     0.57465   0.93953   0.99630   0.00000  Uiso   1.00
H83    H     0.36236   0.52946   0.15049   0.00000  Uiso   1.00
O84    O     0.04605   0.55816   0.11364   0.00000  Uiso   1.00
O85    O     0.58812   0.03658   0.11259   0.00000  Uiso   1.00
O86    O     0.30960   0.49858   0.31489   0.00000  Uiso   1.00
N87    N     0.94653   0.60712   0.20408   0.00000  Uiso   1.00
N88    N     0.62022   0.94806   0.20333   0.00000  Uiso   1.00
N89    N     0.42173   0.56469   0.34748   0.00000  Uiso   1.00
N90    N     0.91672   0.58939   0.06158   0.00000  Uiso   1.00
N91    N     0.59041   0.93033   0.06083   0.00000  Uiso   1.00
N92    N     0.39192   0.54696   0.20498   0.00000  Uiso   1.00
C93    C     0.83453   0.79185   0.76418   0.00000  Uiso   1.00
C94    C     0.76436   0.82404   0.71279   0.00000  Uiso   1.00
C95    C     0.68875   0.84121   0.74897   0.00000  Uiso   1.00
C96    C     0.63278   0.87015   0.69082   0.00000  Uiso   1.00
C97    C     0.52092   0.91838   0.62488   0.00000  Uiso   1.00
C98    C     0.85428   0.73007   0.71258   0.00000  Uiso   1.00
C99    C     0.85429   0.66824   0.74858   0.00000  Uiso   1.00
C100   C     0.87402   0.61807   0.69026   0.00000  Uiso   1.00
C101   C     0.90182   0.52042   0.62400   0.00000  Uiso   1.00
C102   C     0.90897   0.83573   0.75231   0.00000  Uiso   1.00
C103   C     0.95498   0.86273   0.82172   0.00000  Uiso   1.00
C104   C     0.02078   0.90152   0.79684   0.00000  Uiso   1.00
C105   C     0.13350   0.96792   0.79227   0.00000  Uiso   1.00
C106   C     0.86959   0.81270   0.59660   0.00000  Uiso   1.00
C107   C     0.78340   0.83536   0.62177   0.00000  Uiso   1.00
C108   C     0.72754   0.86428   0.56356   0.00000  Uiso   1.00
C109   C     0.65186   0.88150   0.59964   0.00000  Uiso   1.00
C110   C     0.87332   0.74139   0.62156   0.00000  Uiso   1.00
C111   C     0.89307   0.69131   0.56317   0.00000  Uiso   1.00
C112   C     0.89310   0.62942   0.59907   0.00000  Uiso   1.00
C113   C     0.92802   0.84706   0.66129   0.00000  Uiso   1.00
C114   C     0.99376   0.88580   0.63631   0.00000  Uiso   1.00
C115   C     0.03986   0.91286   0.70566   0.00000  Uiso   1.00
H116   H     0.81971   0.78303   0.83504   0.00000  Uiso   1.00
H117   H     0.67403   0.83243   0.81941   0.00000  Uiso   1.00
H118   H     0.83955   0.65949   0.81902   0.00000  Uiso   1.00
H119   H     0.94023   0.85396   0.89214   0.00000  Uiso   1.00
H120   H     0.52092   0.89218   0.76193   0.00000  Uiso   1.00
H121   H     0.86995   0.52752   0.76112   0.00000  Uiso   1.00
H122   H     0.08225   0.93759   0.91532   0.00000  Uiso   1.00
H123   H     0.88442   0.82152   0.52573   0.00000  Uiso   1.00
H124   H     0.74229   0.87304   0.49312   0.00000  Uiso   1.00
H125   H     0.90781   0.70009   0.49274   0.00000  Uiso   1.00
H126   H     0.00848   0.89456   0.56586   0.00000  Uiso   1.00
H127   H     0.57632   0.92514   0.49710   0.00000  Uiso   1.00
H128   H     0.92535   0.56047   0.49630   0.00000  Uiso   1.00
H129   H     0.13764   0.97054   0.65049   0.00000  Uiso   1.00
O130   O     0.45395   0.94184   0.61364   0.00000  Uiso   1.00
O131   O     0.91188   0.46342   0.61259   0.00000  Uiso   1.00
O132   O     0.19040   0.00142   0.81489   0.00000  Uiso   1.00
N133   N     0.55347   0.89288   0.70408   0.00000  Uiso   1.00
N134   N     0.87978   0.55194   0.70333   0.00000  Uiso   1.00
N135   N     0.07827   0.93531   0.84748   0.00000  Uiso   1.00
N136   N     0.58328   0.91061   0.56158   0.00000  Uiso   1.00
N137   N     0.90959   0.56967   0.56083   0.00000  Uiso   1.00
N138   N     0.10808   0.95304   0.70498   0.00000  Uiso   1.00
C139   C     0.33453   0.29185   0.26418   0.00000  Uiso   1.00
C140   C     0.26436   0.32404   0.21279   0.00000  Uiso   1.00
C141   C     0.18875   0.34121   0.24897   0.00000  Uiso   1.00
C142   C     0.13278   0.37015   0.19082   0.00000  Uiso   1.00
C143   C     0.02092   0.41838   0.12488   0.00000  Uiso   1.00
C144   C     0.35428   0.23007   0.21258   0.00000  Uiso   1.00
C145   C     0.35429   0.16824   0.24858   0.00000  Uiso   1.00
C146   C     0.37402   0.11807   0.19026   0.00000  Uiso   1.00
C147   C     0.40182   0.02042   0.12400   0.00000  Uiso   1.00
C148   C     0.40897   0.33573   0.25231   0.00000  Uiso   1.00
C149   C     0.45498   0.36273   0.32172   0.00000  Uiso   1.00
C150   C     0.52078   0.40152   0.29684   0.00000  Uiso   1.00
C151   C     0.63350   0.46792   0.29227   0.00000  Uiso   1.00
C152   C     0.36959   0.31270   0.09660   0.00000  Uiso   1.00
C153   C     0.28340   0.33536   0.12177   0.00000  Uiso   1.00
C154   C     0.22754   0.36428   0.06356   0.00000  Uiso   1.00
C155   C     0.15186   0.38150   0.09964   0.00000  Uiso   1.00
C156   C     0.37332   0.24139   0.12156   0.00000  Uiso   1.00
C157   C     0.39307   0.19131   0.06317   0.00000  Uiso   1.00
C158   C     0.39310   0.12942   0.09907   0.00000  Uiso   1.00
C159   C     0.42802   0.34706   0.16129   0.00000  Uiso   1.00
C160   C     0.49376   0.38580   0.13631   0.00000  Uiso   1.00
C161   C     0.53986   0.41286   0.20566   0.00000  Uiso   1.00
H162   H     0.31971   0.28303   0.33504   0.00000  Uiso   1.00
H163   H     0.17403   0.33243   0.31941   0.00000  Uiso   1.00
H164   H     0.33955   0.15949   0.31902   0.00000  Uiso   1.00
H165   H     0.44023   0.35396   0.39214   0.00000  Uiso   1.00
H166   H     0.02092   0.39218   0.26193   0.00000  Uiso   1.00
H167   H     0.36995   0.02752   0.26112   0.00000  Uiso   1.00
H168   H     0.58225   0.43759   0.41532   0.00000  Uiso   1.00
H169   H     0.38442   0.32152   0.02573   0.00000  Uiso   1.00
H170   H     0.24229   0.37304   0.99312   0.00000  Uiso   1.00
H171   H     0.40781   0.20009   0.99274   0.00000  Uiso   1.00
H172   H     0.50848   0.39456   0.06586   0.00000  Uiso   1.00
H173   H     0.07632   0.42514   0.99710   0.00000  Uiso   1.00
H174   H     0.42535   0.06047   0.99630   0.00000  Uiso   1.00
H175   H     0.63764   0.47054   0.15049   0.00000  Uiso   1.00
O176   O     0.95395   0.44184   0.11364   0.00000  Uiso   1.00
O177   O     0.41188   0.96342   0.11259   0.00000  Uiso   1.00
O178   O     0.69040   0.50142   0.31489   0.00000  Uiso   1.00
N179   N     0.05347   0.39288   0.20408   0.00000  Uiso   1.00
N180   N     0.37978   0.05194   0.20333   0.00000  Uiso   1.00
N181   N     0.57827   0.43531   0.34748   0.00000  Uiso   1.00
N182   N     0.08328   0.41061   0.06158   0.00000  Uiso   1.00
N183   N     0.40959   0.06967   0.06083   0.00000  Uiso   1.00
N184   N     0.60808   0.45304   0.20498   0.00000  Uiso   1.00
C185   C     0.83453   0.20815   0.23582   0.00000  Uiso   1.00
C186   C     0.76436   0.17596   0.28721   0.00000  Uiso   1.00
C187   C     0.68875   0.15879   0.25103   0.00000  Uiso   1.00
C188   C     0.63278   0.12985   0.30918   0.00000  Uiso   1.00
C189   C     0.52092   0.08162   0.37512   0.00000  Uiso   1.00
C190   C     0.85428   0.26993   0.28742   0.00000  Uiso   1.00
C191   C     0.85429   0.33176   0.25142   0.00000  Uiso   1.00
C192   C     0.87402   0.38193   0.30974   0.00000  Uiso   1.00
C193   C     0.90182   0.47958   0.37600   0.00000  Uiso   1.00
C194   C     0.90897   0.16427   0.24769   0.00000  Uiso   1.00
C195   C     0.95498   0.13727   0.17828   0.00000  Uiso   1.00
C196   C     0.02078   0.09848   0.20316   0.00000  Uiso   1.00
C197   C     0.13350   0.03208   0.20773   0.00000  Uiso   1.00
C198   C     0.86959   0.18730   0.40340   0.00000  Uiso   1.00
C199   C     0.78340   0.16464   0.37823   0.00000  Uiso   1.00
C200   C     0.72754   0.13572   0.43644   0.00000  Uiso   1.00
C201   C     0.65186   0.11850   0.40036   0.00000  Uiso   1.00
C202   C     0.87332   0.25861   0.37844   0.00000  Uiso   1.00
C203   C     0.89307   0.30869   0.43683   0.00000  Uiso   1.00
C204   C     0.89310   0.37058   0.40093   0.00000  Uiso   1.00
C205   C     0.92802   0.15294   0.33871   0.00000  Uiso   1.00
C206   C     0.99376   0.11420   0.36369   0.00000  Uiso   1.00
C207   C     0.03986   0.08714   0.29434   0.00000  Uiso   1.00
H208   H     0.81971   0.21697   0.16496   0.00000  Uiso   1.00
H209   H     0.67403   0.16757   0.18059   0.00000  Uiso   1.00
H210   H     0.83955   0.34051   0.18098   0.00000  Uiso   1.00
H211   H     0.94023   0.14604   0.10786   0.00000  Uiso   1.00
H212   H     0.52092   0.10782   0.23807   0.00000  Uiso   1.00
H213   H     0.86995   0.47248   0.23888   0.00000  Uiso   1.00
H214   H     0.08225   0.06241   0.08468   0.00000  Uiso   1.00
H215   H     0.88442   0.17848   0.47427   0.00000  Uiso   1.00
H216   H     0.74229   0.12696   0.50688   0.00000  Uiso   1.00
H217   H     0.90781   0.29991   0.50726   0.00000  Uiso   1.00
H218   H     0.00848   0.10544   0.43414   0.00000  Uiso   1.00
H219   H     0.57632   0.07486   0.50290   0.00000  Uiso   1.00
H220   H     0.92535   0.43953   0.50370   0.00000  Uiso   1.00
H221   H     0.13764   0.02946   0.34951   0.00000  Uiso   1.00
O222   O     0.45395   0.05816   0.38636   0.00000  Uiso   1.00
O223   O     0.91188   0.53658   0.38741   0.00000  Uiso   1.00
O224   O     0.19040   0.99858   0.18511   0.00000  Uiso   1.00
N225   N     0.55347   0.10712   0.29592   0.00000  Uiso   1.00
N226   N     0.87978   0.44806   0.29667   0.00000  Uiso   1.00
N227   N     0.07827   0.06469   0.15252   0.00000  Uiso   1.00
N228   N     0.58328   0.08939   0.43842   0.00000  Uiso   1.00
N229   N     0.90959   0.43033   0.43917   0.00000  Uiso   1.00
N230   N     0.10808   0.04696   0.29502   0.00000  Uiso   1.00
C231   C     0.33453   0.70815   0.73582   0.00000  Uiso   1.00
C232   C     0.26436   0.67596   0.78721   0.00000  Uiso   1.00
C233   C     0.18875   0.65879   0.75103   0.00000  Uiso   1.00
C234   C     0.13278   0.62985   0.80918   0.00000  Uiso   1.00
C235   C     0.02092   0.58162   0.87512   0.00000  Uiso   1.00
C236   C     0.35428   0.76993   0.78742   0.00000  Uiso   1.00
C237   C     0.35429   0.83176   0.75142   0.00000  Uiso   1.00
C238   C     0.37402   0.88193   0.80974   0.00000  Uiso   1.00
C239   C     0.40182   0.97958   0.87600   0.00000  Uiso   1.00
C240   C     0.40897   0.66427   0.74769   0.00000  Uiso   1.00
C241   C     0.45498   0.63727   0.67828   0.00000  Uiso   1.00
C242   C     0.52078   0.59848   0.70316   0.00000  Uiso   1.00
C243   C     0.63350   0.53208   0.70773   0.00000  Uiso   1.00
C244   C     0.36959   0.68730   0.90340   0.00000  Uiso   1.00
C245   C     0.28340   0.66464   0.87823   0.00000  Uiso   1.00
C246   C     0.22754   0.63572   0.93644   0.00000  Uiso   1.00
C247   C     0.15186   0.61850   0.90036   0.00000  Uiso   1.00
C248   C     0.37332   0.75861   0.87844   0.00000  Uiso   1.00
C249   C     0.39307   0.80869   0.93683   0.00000  Uiso   1.00
C250   C     0.39310   0.87058   0.90093   0.00000  Uiso   1.00
C251   C     0.42802   0.65294   0.83871   0.00000  Uiso   1.00
C252   C     0.49376   0.61420   0.86369   0.00000  Uiso   1.00
C253   C     0.53986   0.58714   0.79434   0.00000  Uiso   1.00
H254   H     0.31971   0.71697   0.66496   0.00000  Uiso   1.00
H255   H     0.17403   0.66757   0.68059   0.00000  Uiso   1.00
H256   H     0.33955   0.84051   0.68098   0.00000  Uiso   1.00
H257   H     0.44023   0.64604   0.60786   0.00000  Uiso   1.00
H258   H     0.02092   0.60782   0.73807   0.00000  Uiso   1.00
H259   H     0.36995   0.97248   0.73888   0.00000  Uiso   1.00
H260   H     0.58225   0.56241   0.58468   0.00000  Uiso   1.00
H261   H     0.38442   0.67848   0.97427   0.00000  Uiso   1.00
H262   H     0.24229   0.62696   0.00688   0.00000  Uiso   1.00
H263   H     0.40781   0.79991   0.00726   0.00000  Uiso   1.00
H264   H     0.50848   0.60544   0.93414   0.00000  Uiso   1.00
H265   H     0.07632   0.57486   0.00290   0.00000  Uiso   1.00
H266   H     0.42535   0.93953   0.00370   0.00000  Uiso   1.00
H267   H     0.63764   0.52946   0.84951   0.00000  Uiso   1.00
O268   O     0.95395   0.55816   0.88636   0.00000  Uiso   1.00
O269   O     0.41188   0.03658   0.88741   0.00000  Uiso   1.00
O270   O     0.69040   0.49858   0.68511   0.00000  Uiso   1.00
N271   N     0.05347   0.60712   0.79592   0.00000  Uiso   1.00
N272   N     0.37978   0.94806   0.79667   0.00000  Uiso   1.00
N273   N     0.57827   0.56469   0.65252   0.00000  Uiso   1.00
N274   N     0.08328   0.58939   0.93842   0.00000  Uiso   1.00
N275   N     0.40959   0.93033   0.93917   0.00000  Uiso   1.00
N276   N     0.60808   0.54696   0.79502   0.00000  Uiso   1.00
C277   C     0.16547   0.79185   0.23582   0.00000  Uiso   1.00
C278   C     0.23564   0.82404   0.28721   0.00000  Uiso   1.00
C279   C     0.31125   0.84121   0.25103   0.00000  Uiso   1.00
C280   C     0.36722   0.87015   0.30918   0.00000  Uiso   1.00
C281   C     0.47908   0.91838   0.37512   0.00000  Uiso   1.00
C282   C     0.14572   0.73007   0.28742   0.00000  Uiso   1.00
C283   C     0.14571   0.66824   0.25142   0.00000  Uiso   1.00
C284   C     0.12598   0.61807   0.30974   0.00000  Uiso   1.00
C285   C     0.09818   0.52042   0.37600   0.00000  Uiso   1.00
C286   C     0.09103   0.83573   0.24769   0.00000  Uiso   1.00
C287   C     0.04502   0.86273   0.17828   0.00000  Uiso   1.00
C288   C     0.97922   0.90152   0.20316   0.00000  Uiso   1.00
C289   C     0.86650   0.96792   0.20773   0.00000  Uiso   1.00
C290   C     0.13041   0.81270   0.40340   0.00000  Uiso   1.00
C291   C     0.21660   0.83536   0.37823   0.00000  Uiso   1.00
C292   C     0.27246   0.86428   0.43644   0.00000  Uiso   1.00
C293   C     0.34814   0.88150   0.40036   0.00000  Uiso   1.00
C294   C     0.12668   0.74139   0.37844   0.00000  Uiso   1.00
C295   C     0.10693   0.69131   0.43683   0.00000  Uiso   1.00
C296   C     0.10690   0.62942   0.40093   0.00000  Uiso   1.00
C297   C     0.07198   0.84706   0.33871   0.00000  Uiso   1.00
C298   C     0.00624   0.88580   0.36369   0.00000  Uiso   1.00
C299   C     0.96014   0.91286   0.29434   0.00000  Uiso   1.00
H300   H     0.18029   0.78303   0.16496   0.00000  Uiso   1.00
H301   H     0.32597   0.83243   0.18059   0.00000  Uiso   1.00
H302   H     0.16045   0.65949   0.18098   0.00000  Uiso   1.00
H303   H     0.05977   0.85396   0.10786   0.00000  Uiso   1.00
H304   H     0.47908   0.89218   0.23807   0.00000  Uiso   1.00
H305   H     0.13005   0.52752   0.23888   0.00000  Uiso   1.00
H306   H     0.91775   0.93759   0.08468   0.00000  Uiso   1.00
H307   H     0.11558   0.82152   0.47427   0.00000  Uiso   1.00
H308   H     0.25771   0.87304   0.50688   0.00000  Uiso   1.00
H309   H     0.09219   0.70009   0.50726   0.00000  Uiso   1.00
H310   H     0.99152   0.89456   0.43414   0.00000  Uiso   1.00
H311   H     0.42368   0.92514   0.50290   0.00000  Uiso   1.00
H312   H     0.07465   0.56047   0.50370   0.00000  Uiso   1.00
H313   H     0.86236   0.97054   0.34951   0.00000  Uiso   1.00
O314   O     0.54605   0.94184   0.38636   0.00000  Uiso   1.00
O315   O     0.08812   0.46342   0.38741   0.00000  Uiso   1.00
O316   O     0.80960   0.00142   0.18511   0.00000  Uiso   1.00
N317   N     0.44653   0.89288   0.29592   0.00000  Uiso   1.00
N318   N     0.12022   0.55194   0.29667   0.00000  Uiso   1.00
N319   N     0.92173   0.93531   0.15252   0.00000  Uiso   1.00
N320   N     0.41672   0.91061   0.43842   0.00000  Uiso   1.00
N321   N     0.09041   0.56967   0.43917   0.00000  Uiso   1.00
N322   N     0.89192   0.95304   0.29502   0.00000  Uiso   1.00
C323   C     0.66547   0.29185   0.73582   0.00000  Uiso   1.00
C324   C     0.73564   0.32404   0.78721   0.00000  Uiso   1.00
C325   C     0.81125   0.34121   0.75103   0.00000  Uiso   1.00
C326   C     0.86722   0.37015   0.80918   0.00000  Uiso   1.00
C327   C     0.97908   0.41838   0.87512   0.00000  Uiso   1.00
C328   C     0.64572   0.23007   0.78742   0.00000  Uiso   1.00
C329   C     0.64571   0.16824   0.75142   0.00000  Uiso   1.00
C330   C     0.62598   0.11807   0.80974   0.00000  Uiso   1.00
C331   C     0.59818   0.02042   0.87600   0.00000  Uiso   1.00
C332   C     0.59103   0.33573   0.74769   0.00000  Uiso   1.00
C333   C     0.54502   0.36273   0.67828   0.00000  Uiso   1.00
C334   C     0.47922   0.40152   0.70316   0.00000  Uiso   1.00
C335   C     0.36650   0.46792   0.70773   0.00000  Uiso   1.00
C336   C     0.63041   0.31270   0.90340   0.00000  Uiso   1.00
C337   C     0.71660   0.33536   0.87823   0.00000  Uiso   1.00
C338   C     0.77246   0.36428   0.93644   0.00000  Uiso   1.00
C339   C     0.84814   0.38150   0.90036   0.00000  Uiso   1.00
C340   C     0.62668   0.24139   0.87844   0.00000  Uiso   1.00
C341   C     0.60693   0.19131   0.93683   0.00000  Uiso   1.00
C342   C     0.60690   0.12942   0.90093   0.00000  Uiso   1.00
C343   C     0.57198   0.34706   0.83871   0.00000  Uiso   1.00
C344   C     0.50624   0.38580   0.86369   0.00000  Uiso   1.00
C345   C     0.46014   0.41286   0.79434   0.00000  Uiso   1.00
H346   H     0.68029   0.28303   0.66496   0.00000  Uiso   1.00
H347   H     0.82597   0.33243   0.68059   0.00000  Uiso   1.00
H348   H     0.66045   0.15949   0.68098   0.00000  Uiso   1.00
H349   H     0.55977   0.35396   0.60786   0.00000  Uiso   1.00
H350   H     0.97908   0.39218   0.73807   0.00000  Uiso   1.00
H351   H     0.63005   0.02752   0.73888   0.00000  Uiso   1.00
H352   H     0.41775   0.43759   0.58468   0.00000  Uiso   1.00
H353   H     0.61558   0.32152   0.97427   0.00000  Uiso   1.00
H354   H     0.75771   0.37304   0.00688   0.00000  Uiso   1.00
H355   H     0.59219   0.20009   0.00726   0.00000  Uiso   1.00
H356   H     0.49152   0.39456   0.93414   0.00000  Uiso   1.00
H357   H     0.92368   0.42514   0.00290   0.00000  Uiso   1.00
H358   H     0.57465   0.06047   0.00370   0.00000  Uiso   1.00
H359   H     0.36236   0.47054   0.84951   0.00000  Uiso   1.00
O360   O     0.04605   0.44184   0.88636   0.00000  Uiso   1.00
O361   O     0.58812   0.96342   0.88741   0.00000  Uiso   1.00
O362   O     0.30960   0.50142   0.68511   0.00000  Uiso   1.00
N363   N     0.94653   0.39288   0.79592   0.00000  Uiso   1.00
N364   N     0.62022   0.05194   0.79667   0.00000  Uiso   1.00
N365   N     0.42173   0.43531   0.65252   0.00000  Uiso   1.00
N366   N     0.91672   0.41061   0.93842   0.00000  Uiso   1.00
N367   N     0.59041   0.06967   0.93917   0.00000  Uiso   1.00
N368   N     0.39192   0.45304   0.79502   0.00000  Uiso   1.00
