data_job_02333
_audit_creation_date              2018-12-19
_audit_creation_method            'Materials Studio'
_symmetry_space_group_name_H-M    'P1'
_symmetry_Int_Tables_number       1
_symmetry_cell_setting            triclinic
loop_
_symmetry_equiv_pos_as_xyz
  x,y,z
_cell_length_a                    12.2446
_cell_length_b                    12.2446
_cell_length_c                    68.3186
_cell_angle_alpha                 90.0000
_cell_angle_beta                  90.0000
_cell_angle_gamma                 120.0000
loop_
_atom_site_label
_atom_site_type_symbol
_atom_site_fract_x
_atom_site_fract_y
_atom_site_fract_z
_atom_site_U_iso_or_equiv
_atom_site_adp_type
_atom_site_occupancy
C1     C     0.39628   0.35120   0.16978   0.00000  Uiso   1.00
C2     C     0.46483   0.33210   0.15265   0.00000  Uiso   1.00
C3     C     0.59356   0.40143   0.14910   0.00000  Uiso   1.00
C4     C     0.63795   0.36936   0.13264   0.00000  Uiso   1.00
C5     C     0.75678   0.35464   0.10793   0.00000  Uiso   1.00
C6     C     0.29525   0.37367   0.16077   0.00000  Uiso   1.00
C7     C     0.28140   0.47795   0.16405   0.00000  Uiso   1.00
C8     C     0.18301   0.48086   0.15443   0.00000  Uiso   1.00
C9     C     0.03852   0.53064   0.14234   0.00000  Uiso   1.00
C10    C     0.32588   0.22431   0.18020   0.00000  Uiso   1.00
C11    C     0.33776   0.20300   0.19984   0.00000  Uiso   1.00
C12    C     0.26514   0.08016   0.20658   0.00000  Uiso   1.00
C13    C     0.16821   0.89803   0.22467   0.00000  Uiso   1.00
C14    C     0.24617   0.17094   0.14685   0.00000  Uiso   1.00
C15    C     0.38329   0.23419   0.14019   0.00000  Uiso   1.00
C16    C     0.42749   0.20200   0.12373   0.00000  Uiso   1.00
C17    C     0.55627   0.27127   0.12016   0.00000  Uiso   1.00
C18    C     0.21372   0.27577   0.14831   0.00000  Uiso   1.00
C19    C     0.11532   0.27852   0.13868   0.00000  Uiso   1.00
C20    C     0.10133   0.38278   0.14195   0.00000  Uiso   1.00
C21    C     0.24435   0.12640   0.16775   0.00000  Uiso   1.00
C22    C     0.17169   0.00357   0.17446   0.00000  Uiso   1.00
C23    C     0.18346   0.98208   0.19410   0.00000  Uiso   1.00
H24    H     0.45975   0.42743   0.17947   0.00000  Uiso   1.00
H25    H     0.65663   0.47721   0.15874   0.00000  Uiso   1.00
H26    H     0.34450   0.55370   0.17369   0.00000  Uiso   1.00
H27    H     0.40086   0.27879   0.20947   0.00000  Uiso   1.00
H28    H     0.83895   0.48925   0.13026   0.00000  Uiso   1.00
H29    H     0.18078   0.65052   0.16179   0.00000  Uiso   1.00
H30    H     0.29963   0.07083   0.23723   0.00000  Uiso   1.00
H31    H     0.18268   0.09471   0.13715   0.00000  Uiso   1.00
H32    H     0.36437   0.12623   0.11409   0.00000  Uiso   1.00
H33    H     0.05224   0.20273   0.12904   0.00000  Uiso   1.00
H34    H     0.10860   0.92783   0.16482   0.00000  Uiso   1.00
H35    H     0.60174   0.20439   0.09402   0.00000  Uiso   1.00
H36    H     0.94357   0.36566   0.12555   0.00000  Uiso   1.00
H37    H     0.06242   0.78597   0.20099   0.00000  Uiso   1.00
O38    O     0.84485   0.37358   0.09774   0.00000  Uiso   1.00
O39    O     0.98135   0.58515   0.13910   0.00000  Uiso   1.00
O40    O     0.13729   0.82461   0.23808   0.00000  Uiso   1.00
N41    N     0.75819   0.41786   0.12490   0.00000  Uiso   1.00
N42    N     0.14286   0.56865   0.15437   0.00000  Uiso   1.00
N43    N     0.25395   0.02670   0.22491   0.00000  Uiso   1.00
N44    N     0.63055   0.26458   0.10540   0.00000  Uiso   1.00
N45    N     0.01522   0.41537   0.13487   0.00000  Uiso   1.00
N46    N     0.12630   0.87341   0.20541   0.00000  Uiso   1.00
C47    C     0.64880   0.04508   0.83644   0.00000  Uiso   1.00
C48    C     0.66790   0.13273   0.81931   0.00000  Uiso   1.00
C49    C     0.59857   0.19213   0.81577   0.00000  Uiso   1.00
C50    C     0.63064   0.26858   0.79931   0.00000  Uiso   1.00
C51    C     0.64536   0.40214   0.77460   0.00000  Uiso   1.00
C52    C     0.62633   0.92158   0.82743   0.00000  Uiso   1.00
C53    C     0.52205   0.80344   0.83072   0.00000  Uiso   1.00
C54    C     0.51914   0.70215   0.82110   0.00000  Uiso   1.00
C55    C     0.46936   0.50788   0.80900   0.00000  Uiso   1.00
C56    C     0.77569   0.10157   0.84687   0.00000  Uiso   1.00
C57    C     0.79700   0.13476   0.86650   0.00000  Uiso   1.00
C58    C     0.91984   0.18498   0.87325   0.00000  Uiso   1.00
C59    C     0.10197   0.27018   0.89133   0.00000  Uiso   1.00
C60    C     0.82906   0.07522   0.81351   0.00000  Uiso   1.00
C61    C     0.76581   0.14910   0.80686   0.00000  Uiso   1.00
C62    C     0.79800   0.22549   0.79040   0.00000  Uiso   1.00
C63    C     0.72873   0.28499   0.78683   0.00000  Uiso   1.00
C64    C     0.72423   0.93795   0.81498   0.00000  Uiso   1.00
C65    C     0.72148   0.83680   0.80535   0.00000  Uiso   1.00
C66    C     0.61722   0.71855   0.80862   0.00000  Uiso   1.00
C67    C     0.87360   0.11795   0.83441   0.00000  Uiso   1.00
C68    C     0.99643   0.16812   0.84113   0.00000  Uiso   1.00
C69    C     0.01792   0.20138   0.86077   0.00000  Uiso   1.00
H70    H     0.57257   0.03232   0.84614   0.00000  Uiso   1.00
H71    H     0.52279   0.17942   0.82541   0.00000  Uiso   1.00
H72    H     0.44630   0.79080   0.84036   0.00000  Uiso   1.00
H73    H     0.72121   0.12207   0.87614   0.00000  Uiso   1.00
H74    H     0.51075   0.34970   0.79693   0.00000  Uiso   1.00
H75    H     0.34948   0.53026   0.82846   0.00000  Uiso   1.00
H76    H     0.92917   0.22880   0.90390   0.00000  Uiso   1.00
H77    H     0.90529   0.08797   0.80381   0.00000  Uiso   1.00
H78    H     0.87377   0.23814   0.78076   0.00000  Uiso   1.00
H79    H     0.79727   0.84951   0.79571   0.00000  Uiso   1.00
H80    H     0.07217   0.18078   0.83149   0.00000  Uiso   1.00
H81    H     0.79561   0.39735   0.76069   0.00000  Uiso   1.00
H82    H     0.63434   0.57791   0.79222   0.00000  Uiso   1.00
H83    H     0.21403   0.27645   0.86766   0.00000  Uiso   1.00
O84    O     0.62642   0.47127   0.76440   0.00000  Uiso   1.00
O85    O     0.41485   0.39620   0.80577   0.00000  Uiso   1.00
O86    O     0.17539   0.31267   0.90475   0.00000  Uiso   1.00
N87    N     0.58214   0.34033   0.79157   0.00000  Uiso   1.00
N88    N     0.43135   0.57420   0.82104   0.00000  Uiso   1.00
N89    N     0.97330   0.22725   0.89158   0.00000  Uiso   1.00
N90    N     0.73542   0.36597   0.77207   0.00000  Uiso   1.00
N91    N     0.58463   0.59984   0.80154   0.00000  Uiso   1.00
N92    N     0.12659   0.25289   0.87207   0.00000  Uiso   1.00
C93    C     0.95492   0.60372   0.50311   0.00000  Uiso   1.00
C94    C     0.86727   0.53517   0.48598   0.00000  Uiso   1.00
C95    C     0.80787   0.40644   0.48244   0.00000  Uiso   1.00
C96    C     0.73142   0.36205   0.46597   0.00000  Uiso   1.00
C97    C     0.59786   0.24322   0.44126   0.00000  Uiso   1.00
C98    C     0.07842   0.70475   0.49410   0.00000  Uiso   1.00
C99    C     0.19656   0.71860   0.49739   0.00000  Uiso   1.00
C100   C     0.29785   0.81699   0.48776   0.00000  Uiso   1.00
C101   C     0.49212   0.96148   0.47567   0.00000  Uiso   1.00
C102   C     0.89843   0.67412   0.51354   0.00000  Uiso   1.00
C103   C     0.86524   0.66224   0.53317   0.00000  Uiso   1.00
C104   C     0.81502   0.73486   0.53991   0.00000  Uiso   1.00
C105   C     0.72982   0.83179   0.55800   0.00000  Uiso   1.00
C106   C     0.92478   0.75383   0.48018   0.00000  Uiso   1.00
C107   C     0.85090   0.61671   0.47352   0.00000  Uiso   1.00
C108   C     0.77451   0.57251   0.45706   0.00000  Uiso   1.00
C109   C     0.71501   0.44373   0.45350   0.00000  Uiso   1.00
C110   C     0.06205   0.78628   0.48164   0.00000  Uiso   1.00
C111   C     0.16320   0.88468   0.47201   0.00000  Uiso   1.00
C112   C     0.28145   0.89867   0.47528   0.00000  Uiso   1.00
C113   C     0.88205   0.75565   0.50108   0.00000  Uiso   1.00
C114   C     0.83188   0.82831   0.50780   0.00000  Uiso   1.00
C115   C     0.79862   0.81654   0.52743   0.00000  Uiso   1.00
H116   H     0.96768   0.54025   0.51281   0.00000  Uiso   1.00
H117   H     0.82058   0.34337   0.49208   0.00000  Uiso   1.00
H118   H     0.20920   0.65550   0.50703   0.00000  Uiso   1.00
H119   H     0.87793   0.59914   0.54280   0.00000  Uiso   1.00
H120   H     0.65030   0.16105   0.46360   0.00000  Uiso   1.00
H121   H     0.46974   0.81922   0.49512   0.00000  Uiso   1.00
H122   H     0.77120   0.70037   0.57057   0.00000  Uiso   1.00
H123   H     0.91203   0.81732   0.47048   0.00000  Uiso   1.00
H124   H     0.76186   0.63563   0.44743   0.00000  Uiso   1.00
H125   H     0.15049   0.94776   0.46238   0.00000  Uiso   1.00
H126   H     0.81922   0.89140   0.49815   0.00000  Uiso   1.00
H127   H     0.60265   0.39826   0.42736   0.00000  Uiso   1.00
H128   H     0.42209   0.05643   0.45888   0.00000  Uiso   1.00
H129   H     0.72355   0.93758   0.53433   0.00000  Uiso   1.00
O130   O     0.52873   0.15515   0.43107   0.00000  Uiso   1.00
O131   O     0.60380   0.01865   0.47244   0.00000  Uiso   1.00
O132   O     0.68733   0.86271   0.57142   0.00000  Uiso   1.00
N133   N     0.65967   0.24181   0.45823   0.00000  Uiso   1.00
N134   N     0.42580   0.85714   0.48771   0.00000  Uiso   1.00
N135   N     0.77275   0.74605   0.55824   0.00000  Uiso   1.00
N136   N     0.63403   0.36945   0.43873   0.00000  Uiso   1.00
N137   N     0.40016   0.98478   0.46821   0.00000  Uiso   1.00
N138   N     0.74711   0.87370   0.53874   0.00000  Uiso   1.00
C139   C     0.60372   0.64880   0.66978   0.00000  Uiso   1.00
C140   C     0.53517   0.66790   0.65265   0.00000  Uiso   1.00
C141   C     0.40644   0.59857   0.64910   0.00000  Uiso   1.00
C142   C     0.36205   0.63064   0.63264   0.00000  Uiso   1.00
C143   C     0.24322   0.64536   0.60793   0.00000  Uiso   1.00
C144   C     0.70475   0.62633   0.66077   0.00000  Uiso   1.00
C145   C     0.71860   0.52205   0.66405   0.00000  Uiso   1.00
C146   C     0.81699   0.51914   0.65443   0.00000  Uiso   1.00
C147   C     0.96148   0.46936   0.64234   0.00000  Uiso   1.00
C148   C     0.67412   0.77569   0.68020   0.00000  Uiso   1.00
C149   C     0.66224   0.79700   0.69984   0.00000  Uiso   1.00
C150   C     0.73486   0.91984   0.70658   0.00000  Uiso   1.00
C151   C     0.83179   0.10197   0.72467   0.00000  Uiso   1.00
C152   C     0.75383   0.82906   0.64685   0.00000  Uiso   1.00
C153   C     0.61671   0.76581   0.64019   0.00000  Uiso   1.00
C154   C     0.57251   0.79800   0.62373   0.00000  Uiso   1.00
C155   C     0.44373   0.72873   0.62016   0.00000  Uiso   1.00
C156   C     0.78628   0.72423   0.64831   0.00000  Uiso   1.00
C157   C     0.88468   0.72148   0.63868   0.00000  Uiso   1.00
C158   C     0.89867   0.61722   0.64195   0.00000  Uiso   1.00
C159   C     0.75565   0.87360   0.66775   0.00000  Uiso   1.00
C160   C     0.82831   0.99643   0.67446   0.00000  Uiso   1.00
C161   C     0.81654   0.01792   0.69410   0.00000  Uiso   1.00
H162   H     0.54025   0.57257   0.67947   0.00000  Uiso   1.00
H163   H     0.34337   0.52279   0.65874   0.00000  Uiso   1.00
H164   H     0.65550   0.44630   0.67369   0.00000  Uiso   1.00
H165   H     0.59914   0.72121   0.70947   0.00000  Uiso   1.00
H166   H     0.16105   0.51075   0.63026   0.00000  Uiso   1.00
H167   H     0.81922   0.34948   0.66179   0.00000  Uiso   1.00
H168   H     0.70037   0.92917   0.73723   0.00000  Uiso   1.00
H169   H     0.81732   0.90529   0.63715   0.00000  Uiso   1.00
H170   H     0.63563   0.87377   0.61409   0.00000  Uiso   1.00
H171   H     0.94776   0.79727   0.62904   0.00000  Uiso   1.00
H172   H     0.89140   0.07217   0.66482   0.00000  Uiso   1.00
H173   H     0.39826   0.79561   0.59402   0.00000  Uiso   1.00
H174   H     0.05643   0.63434   0.62555   0.00000  Uiso   1.00
H175   H     0.93758   0.21403   0.70099   0.00000  Uiso   1.00
O176   O     0.15515   0.62642   0.59774   0.00000  Uiso   1.00
O177   O     0.01865   0.41485   0.63910   0.00000  Uiso   1.00
O178   O     0.86271   0.17539   0.73808   0.00000  Uiso   1.00
N179   N     0.24181   0.58214   0.62490   0.00000  Uiso   1.00
N180   N     0.85714   0.43135   0.65437   0.00000  Uiso   1.00
N181   N     0.74605   0.97330   0.72491   0.00000  Uiso   1.00
N182   N     0.36945   0.73542   0.60540   0.00000  Uiso   1.00
N183   N     0.98478   0.58463   0.63487   0.00000  Uiso   1.00
N184   N     0.87370   0.12659   0.70541   0.00000  Uiso   1.00
C185   C     0.35120   0.95492   0.33644   0.00000  Uiso   1.00
C186   C     0.33210   0.86727   0.31931   0.00000  Uiso   1.00
C187   C     0.40143   0.80787   0.31577   0.00000  Uiso   1.00
C188   C     0.36936   0.73142   0.29931   0.00000  Uiso   1.00
C189   C     0.35464   0.59786   0.27460   0.00000  Uiso   1.00
C190   C     0.37367   0.07842   0.32743   0.00000  Uiso   1.00
C191   C     0.47795   0.19656   0.33072   0.00000  Uiso   1.00
C192   C     0.48086   0.29785   0.32110   0.00000  Uiso   1.00
C193   C     0.53064   0.49212   0.30900   0.00000  Uiso   1.00
C194   C     0.22431   0.89843   0.34687   0.00000  Uiso   1.00
C195   C     0.20300   0.86524   0.36650   0.00000  Uiso   1.00
C196   C     0.08016   0.81502   0.37325   0.00000  Uiso   1.00
C197   C     0.89803   0.72982   0.39133   0.00000  Uiso   1.00
C198   C     0.17094   0.92478   0.31351   0.00000  Uiso   1.00
C199   C     0.23419   0.85090   0.30686   0.00000  Uiso   1.00
C200   C     0.20200   0.77451   0.29040   0.00000  Uiso   1.00
C201   C     0.27127   0.71501   0.28683   0.00000  Uiso   1.00
C202   C     0.27577   0.06205   0.31498   0.00000  Uiso   1.00
C203   C     0.27852   0.16320   0.30535   0.00000  Uiso   1.00
C204   C     0.38278   0.28145   0.30862   0.00000  Uiso   1.00
C205   C     0.12640   0.88205   0.33441   0.00000  Uiso   1.00
C206   C     0.00357   0.83188   0.34113   0.00000  Uiso   1.00
C207   C     0.98208   0.79862   0.36077   0.00000  Uiso   1.00
H208   H     0.42743   0.96768   0.34614   0.00000  Uiso   1.00
H209   H     0.47721   0.82058   0.32541   0.00000  Uiso   1.00
H210   H     0.55370   0.20920   0.34036   0.00000  Uiso   1.00
H211   H     0.27879   0.87793   0.37614   0.00000  Uiso   1.00
H212   H     0.48925   0.65030   0.29693   0.00000  Uiso   1.00
H213   H     0.65052   0.46974   0.32846   0.00000  Uiso   1.00
H214   H     0.07083   0.77120   0.40390   0.00000  Uiso   1.00
H215   H     0.09471   0.91203   0.30381   0.00000  Uiso   1.00
H216   H     0.12623   0.76186   0.28076   0.00000  Uiso   1.00
H217   H     0.20273   0.15049   0.29571   0.00000  Uiso   1.00
H218   H     0.92783   0.81922   0.33149   0.00000  Uiso   1.00
H219   H     0.20439   0.60265   0.26069   0.00000  Uiso   1.00
H220   H     0.36566   0.42209   0.29222   0.00000  Uiso   1.00
H221   H     0.78597   0.72355   0.36766   0.00000  Uiso   1.00
O222   O     0.37358   0.52873   0.26440   0.00000  Uiso   1.00
O223   O     0.58515   0.60380   0.30577   0.00000  Uiso   1.00
O224   O     0.82461   0.68733   0.40475   0.00000  Uiso   1.00
N225   N     0.41786   0.65967   0.29157   0.00000  Uiso   1.00
N226   N     0.56865   0.42580   0.32104   0.00000  Uiso   1.00
N227   N     0.02670   0.77275   0.39158   0.00000  Uiso   1.00
N228   N     0.26458   0.63403   0.27207   0.00000  Uiso   1.00
N229   N     0.41537   0.40016   0.30154   0.00000  Uiso   1.00
N230   N     0.87341   0.74711   0.37207   0.00000  Uiso   1.00
C231   C     0.04508   0.39628   0.00311   0.00000  Uiso   1.00
C232   C     0.13273   0.46483   0.98598   0.00000  Uiso   1.00
C233   C     0.19213   0.59356   0.98244   0.00000  Uiso   1.00
C234   C     0.26858   0.63795   0.96597   0.00000  Uiso   1.00
C235   C     0.40214   0.75678   0.94126   0.00000  Uiso   1.00
C236   C     0.92158   0.29525   0.99410   0.00000  Uiso   1.00
C237   C     0.80344   0.28140   0.99739   0.00000  Uiso   1.00
C238   C     0.70215   0.18301   0.98776   0.00000  Uiso   1.00
C239   C     0.50788   0.03852   0.97567   0.00000  Uiso   1.00
C240   C     0.10157   0.32588   0.01354   0.00000  Uiso   1.00
C241   C     0.13476   0.33776   0.03317   0.00000  Uiso   1.00
C242   C     0.18498   0.26514   0.03991   0.00000  Uiso   1.00
C243   C     0.27018   0.16821   0.05800   0.00000  Uiso   1.00
C244   C     0.07522   0.24617   0.98018   0.00000  Uiso   1.00
C245   C     0.14910   0.38329   0.97352   0.00000  Uiso   1.00
C246   C     0.22549   0.42749   0.95706   0.00000  Uiso   1.00
C247   C     0.28499   0.55627   0.95350   0.00000  Uiso   1.00
C248   C     0.93795   0.21372   0.98164   0.00000  Uiso   1.00
C249   C     0.83680   0.11532   0.97201   0.00000  Uiso   1.00
C250   C     0.71855   0.10133   0.97528   0.00000  Uiso   1.00
C251   C     0.11795   0.24435   0.00108   0.00000  Uiso   1.00
C252   C     0.16812   0.17169   0.00780   0.00000  Uiso   1.00
C253   C     0.20138   0.18346   0.02743   0.00000  Uiso   1.00
H254   H     0.03232   0.45975   0.01281   0.00000  Uiso   1.00
H255   H     0.17942   0.65663   0.99208   0.00000  Uiso   1.00
H256   H     0.79080   0.34450   0.00703   0.00000  Uiso   1.00
H257   H     0.12207   0.40086   0.04280   0.00000  Uiso   1.00
H258   H     0.34970   0.83895   0.96360   0.00000  Uiso   1.00
H259   H     0.53026   0.18078   0.99512   0.00000  Uiso   1.00
H260   H     0.22880   0.29963   0.07057   0.00000  Uiso   1.00
H261   H     0.08797   0.18268   0.97048   0.00000  Uiso   1.00
H262   H     0.23814   0.36437   0.94743   0.00000  Uiso   1.00
H263   H     0.84951   0.05224   0.96238   0.00000  Uiso   1.00
H264   H     0.18078   0.10860   0.99815   0.00000  Uiso   1.00
H265   H     0.39735   0.60174   0.92736   0.00000  Uiso   1.00
H266   H     0.57791   0.94357   0.95888   0.00000  Uiso   1.00
H267   H     0.27645   0.06242   0.03433   0.00000  Uiso   1.00
O268   O     0.47127   0.84485   0.93107   0.00000  Uiso   1.00
O269   O     0.39620   0.98135   0.97244   0.00000  Uiso   1.00
O270   O     0.31267   0.13729   0.07142   0.00000  Uiso   1.00
N271   N     0.34033   0.75819   0.95823   0.00000  Uiso   1.00
N272   N     0.57420   0.14286   0.98771   0.00000  Uiso   1.00
N273   N     0.22725   0.25395   0.05824   0.00000  Uiso   1.00
N274   N     0.36597   0.63055   0.93873   0.00000  Uiso   1.00
N275   N     0.59984   0.01522   0.96821   0.00000  Uiso   1.00
N276   N     0.25289   0.12630   0.03874   0.00000  Uiso   1.00
C277   C     0.35120   0.39628   0.49689   0.00000  Uiso   1.00
C278   C     0.33210   0.46483   0.51402   0.00000  Uiso   1.00
C279   C     0.40143   0.59356   0.51756   0.00000  Uiso   1.00
C280   C     0.36936   0.63795   0.53403   0.00000  Uiso   1.00
C281   C     0.35464   0.75678   0.55874   0.00000  Uiso   1.00
C282   C     0.37367   0.29525   0.50590   0.00000  Uiso   1.00
C283   C     0.47795   0.28140   0.50261   0.00000  Uiso   1.00
C284   C     0.48086   0.18301   0.51224   0.00000  Uiso   1.00
C285   C     0.53064   0.03852   0.52433   0.00000  Uiso   1.00
C286   C     0.22431   0.32588   0.48646   0.00000  Uiso   1.00
C287   C     0.20300   0.33776   0.46683   0.00000  Uiso   1.00
C288   C     0.08016   0.26514   0.46009   0.00000  Uiso   1.00
C289   C     0.89803   0.16821   0.44200   0.00000  Uiso   1.00
C290   C     0.17094   0.24617   0.51982   0.00000  Uiso   1.00
C291   C     0.23419   0.38329   0.52648   0.00000  Uiso   1.00
C292   C     0.20200   0.42749   0.54294   0.00000  Uiso   1.00
C293   C     0.27127   0.55627   0.54650   0.00000  Uiso   1.00
C294   C     0.27577   0.21372   0.51836   0.00000  Uiso   1.00
C295   C     0.27852   0.11532   0.52799   0.00000  Uiso   1.00
C296   C     0.38278   0.10133   0.52472   0.00000  Uiso   1.00
C297   C     0.12640   0.24435   0.49892   0.00000  Uiso   1.00
C298   C     0.00357   0.17169   0.49220   0.00000  Uiso   1.00
C299   C     0.98208   0.18346   0.47257   0.00000  Uiso   1.00
H300   H     0.42743   0.45975   0.48719   0.00000  Uiso   1.00
H301   H     0.47721   0.65663   0.50792   0.00000  Uiso   1.00
H302   H     0.55370   0.34450   0.49297   0.00000  Uiso   1.00
H303   H     0.27879   0.40086   0.45720   0.00000  Uiso   1.00
H304   H     0.48925   0.83895   0.53640   0.00000  Uiso   1.00
H305   H     0.65052   0.18078   0.50488   0.00000  Uiso   1.00
H306   H     0.07083   0.29963   0.42943   0.00000  Uiso   1.00
H307   H     0.09471   0.18268   0.52952   0.00000  Uiso   1.00
H308   H     0.12623   0.36437   0.55257   0.00000  Uiso   1.00
H309   H     0.20273   0.05224   0.53762   0.00000  Uiso   1.00
H310   H     0.92783   0.10860   0.50185   0.00000  Uiso   1.00
H311   H     0.20439   0.60174   0.57264   0.00000  Uiso   1.00
H312   H     0.36566   0.94357   0.54112   0.00000  Uiso   1.00
H313   H     0.78597   0.06242   0.46567   0.00000  Uiso   1.00
O314   O     0.37358   0.84485   0.56893   0.00000  Uiso   1.00
O315   O     0.58515   0.98135   0.52756   0.00000  Uiso   1.00
O316   O     0.82461   0.13729   0.42858   0.00000  Uiso   1.00
N317   N     0.41786   0.75819   0.54177   0.00000  Uiso   1.00
N318   N     0.56865   0.14286   0.51229   0.00000  Uiso   1.00
N319   N     0.02670   0.25395   0.44176   0.00000  Uiso   1.00
N320   N     0.26458   0.63055   0.56127   0.00000  Uiso   1.00
N321   N     0.41537   0.01522   0.53179   0.00000  Uiso   1.00
N322   N     0.87341   0.12630   0.46126   0.00000  Uiso   1.00
C323   C     0.04508   0.64880   0.83022   0.00000  Uiso   1.00
C324   C     0.13273   0.66790   0.84735   0.00000  Uiso   1.00
C325   C     0.19213   0.59857   0.85090   0.00000  Uiso   1.00
C326   C     0.26858   0.63064   0.86736   0.00000  Uiso   1.00
C327   C     0.40214   0.64536   0.89207   0.00000  Uiso   1.00
C328   C     0.92158   0.62633   0.83923   0.00000  Uiso   1.00
C329   C     0.80344   0.52205   0.83595   0.00000  Uiso   1.00
C330   C     0.70215   0.51914   0.84557   0.00000  Uiso   1.00
C331   C     0.50788   0.46936   0.85766   0.00000  Uiso   1.00
C332   C     0.10157   0.77569   0.81980   0.00000  Uiso   1.00
C333   C     0.13476   0.79700   0.80016   0.00000  Uiso   1.00
C334   C     0.18498   0.91984   0.79342   0.00000  Uiso   1.00
C335   C     0.27018   0.10197   0.77533   0.00000  Uiso   1.00
C336   C     0.07522   0.82906   0.85315   0.00000  Uiso   1.00
C337   C     0.14910   0.76581   0.85981   0.00000  Uiso   1.00
C338   C     0.22549   0.79800   0.87627   0.00000  Uiso   1.00
C339   C     0.28499   0.72873   0.87984   0.00000  Uiso   1.00
C340   C     0.93795   0.72423   0.85169   0.00000  Uiso   1.00
C341   C     0.83680   0.72148   0.86132   0.00000  Uiso   1.00
C342   C     0.71855   0.61722   0.85805   0.00000  Uiso   1.00
C343   C     0.11795   0.87360   0.83225   0.00000  Uiso   1.00
C344   C     0.16812   0.99643   0.82554   0.00000  Uiso   1.00
C345   C     0.20138   0.01792   0.80590   0.00000  Uiso   1.00
H346   H     0.03232   0.57257   0.82053   0.00000  Uiso   1.00
H347   H     0.17942   0.52279   0.84126   0.00000  Uiso   1.00
H348   H     0.79080   0.44630   0.82631   0.00000  Uiso   1.00
H349   H     0.12207   0.72121   0.79053   0.00000  Uiso   1.00
H350   H     0.34970   0.51075   0.86974   0.00000  Uiso   1.00
H351   H     0.53026   0.34948   0.83821   0.00000  Uiso   1.00
H352   H     0.22880   0.92917   0.76277   0.00000  Uiso   1.00
H353   H     0.08797   0.90529   0.86285   0.00000  Uiso   1.00
H354   H     0.23814   0.87377   0.88591   0.00000  Uiso   1.00
H355   H     0.84951   0.79727   0.87096   0.00000  Uiso   1.00
H356   H     0.18078   0.07217   0.83518   0.00000  Uiso   1.00
H357   H     0.39735   0.79561   0.90598   0.00000  Uiso   1.00
H358   H     0.57791   0.63434   0.87445   0.00000  Uiso   1.00
H359   H     0.27645   0.21403   0.79901   0.00000  Uiso   1.00
O360   O     0.47127   0.62642   0.90226   0.00000  Uiso   1.00
O361   O     0.39620   0.41485   0.86090   0.00000  Uiso   1.00
O362   O     0.31267   0.17539   0.76192   0.00000  Uiso   1.00
N363   N     0.34033   0.58214   0.87510   0.00000  Uiso   1.00
N364   N     0.57420   0.43135   0.84563   0.00000  Uiso   1.00
N365   N     0.22725   0.97330   0.77509   0.00000  Uiso   1.00
N366   N     0.36597   0.73542   0.89460   0.00000  Uiso   1.00
N367   N     0.59984   0.58463   0.86513   0.00000  Uiso   1.00
N368   N     0.25289   0.12659   0.79459   0.00000  Uiso   1.00
C369   C     0.60372   0.95492   0.16356   0.00000  Uiso   1.00
C370   C     0.53517   0.86727   0.18069   0.00000  Uiso   1.00
C371   C     0.40644   0.80787   0.18423   0.00000  Uiso   1.00
C372   C     0.36205   0.73142   0.20069   0.00000  Uiso   1.00
C373   C     0.24322   0.59786   0.22540   0.00000  Uiso   1.00
C374   C     0.70475   0.07842   0.17257   0.00000  Uiso   1.00
C375   C     0.71860   0.19656   0.16928   0.00000  Uiso   1.00
C376   C     0.81699   0.29785   0.17890   0.00000  Uiso   1.00
C377   C     0.96148   0.49212   0.19100   0.00000  Uiso   1.00
C378   C     0.67412   0.89843   0.15313   0.00000  Uiso   1.00
C379   C     0.66224   0.86524   0.13350   0.00000  Uiso   1.00
C380   C     0.73486   0.81502   0.12675   0.00000  Uiso   1.00
C381   C     0.83179   0.72982   0.10867   0.00000  Uiso   1.00
C382   C     0.75383   0.92478   0.18649   0.00000  Uiso   1.00
C383   C     0.61671   0.85090   0.19314   0.00000  Uiso   1.00
C384   C     0.57251   0.77451   0.20960   0.00000  Uiso   1.00
C385   C     0.44373   0.71501   0.21317   0.00000  Uiso   1.00
C386   C     0.78628   0.06205   0.18502   0.00000  Uiso   1.00
C387   C     0.88468   0.16320   0.19465   0.00000  Uiso   1.00
C388   C     0.89867   0.28145   0.19138   0.00000  Uiso   1.00
C389   C     0.75565   0.88205   0.16559   0.00000  Uiso   1.00
C390   C     0.82831   0.83188   0.15887   0.00000  Uiso   1.00
C391   C     0.81654   0.79862   0.13923   0.00000  Uiso   1.00
H392   H     0.54025   0.96768   0.15386   0.00000  Uiso   1.00
H393   H     0.34337   0.82058   0.17459   0.00000  Uiso   1.00
H394   H     0.65550   0.20920   0.15964   0.00000  Uiso   1.00
H395   H     0.59914   0.87793   0.12386   0.00000  Uiso   1.00
H396   H     0.16105   0.65030   0.20307   0.00000  Uiso   1.00
H397   H     0.81922   0.46974   0.17154   0.00000  Uiso   1.00
H398   H     0.70037   0.77120   0.09610   0.00000  Uiso   1.00
H399   H     0.81732   0.91203   0.19619   0.00000  Uiso   1.00
H400   H     0.63563   0.76186   0.21924   0.00000  Uiso   1.00
H401   H     0.94776   0.15049   0.20429   0.00000  Uiso   1.00
H402   H     0.89140   0.81922   0.16851   0.00000  Uiso   1.00
H403   H     0.39826   0.60265   0.23931   0.00000  Uiso   1.00
H404   H     0.05643   0.42209   0.20778   0.00000  Uiso   1.00
H405   H     0.93758   0.72355   0.13234   0.00000  Uiso   1.00
O406   O     0.15515   0.52873   0.23560   0.00000  Uiso   1.00
O407   O     0.01865   0.60380   0.19423   0.00000  Uiso   1.00
O408   O     0.86271   0.68733   0.09525   0.00000  Uiso   1.00
N409   N     0.24181   0.65967   0.20843   0.00000  Uiso   1.00
N410   N     0.85714   0.42580   0.17896   0.00000  Uiso   1.00
N411   N     0.74605   0.77275   0.10842   0.00000  Uiso   1.00
N412   N     0.36945   0.63403   0.22793   0.00000  Uiso   1.00
N413   N     0.98478   0.40016   0.19846   0.00000  Uiso   1.00
N414   N     0.87370   0.74711   0.12793   0.00000  Uiso   1.00
C415   C     0.64880   0.60372   0.99689   0.00000  Uiso   1.00
C416   C     0.66790   0.53517   0.01402   0.00000  Uiso   1.00
C417   C     0.59857   0.40644   0.01756   0.00000  Uiso   1.00
C418   C     0.63064   0.36205   0.03403   0.00000  Uiso   1.00
C419   C     0.64536   0.24322   0.05874   0.00000  Uiso   1.00
C420   C     0.62633   0.70475   0.00590   0.00000  Uiso   1.00
C421   C     0.52205   0.71860   0.00261   0.00000  Uiso   1.00
C422   C     0.51914   0.81699   0.01224   0.00000  Uiso   1.00
C423   C     0.46936   0.96148   0.02433   0.00000  Uiso   1.00
C424   C     0.77569   0.67412   0.98646   0.00000  Uiso   1.00
C425   C     0.79700   0.66224   0.96683   0.00000  Uiso   1.00
C426   C     0.91984   0.73486   0.96009   0.00000  Uiso   1.00
C427   C     0.10197   0.83179   0.94200   0.00000  Uiso   1.00
C428   C     0.82906   0.75383   0.01982   0.00000  Uiso   1.00
C429   C     0.76581   0.61671   0.02648   0.00000  Uiso   1.00
C430   C     0.79800   0.57251   0.04294   0.00000  Uiso   1.00
C431   C     0.72873   0.44373   0.04650   0.00000  Uiso   1.00
C432   C     0.72423   0.78628   0.01836   0.00000  Uiso   1.00
C433   C     0.72148   0.88468   0.02799   0.00000  Uiso   1.00
C434   C     0.61722   0.89867   0.02472   0.00000  Uiso   1.00
C435   C     0.87360   0.75565   0.99892   0.00000  Uiso   1.00
C436   C     0.99643   0.82831   0.99220   0.00000  Uiso   1.00
C437   C     0.01792   0.81654   0.97257   0.00000  Uiso   1.00
H438   H     0.57257   0.54025   0.98719   0.00000  Uiso   1.00
H439   H     0.52279   0.34337   0.00792   0.00000  Uiso   1.00
H440   H     0.44630   0.65550   0.99297   0.00000  Uiso   1.00
H441   H     0.72121   0.59914   0.95720   0.00000  Uiso   1.00
H442   H     0.51075   0.16105   0.03640   0.00000  Uiso   1.00
H443   H     0.34948   0.81922   0.00488   0.00000  Uiso   1.00
H444   H     0.92917   0.70037   0.92943   0.00000  Uiso   1.00
H445   H     0.90529   0.81732   0.02952   0.00000  Uiso   1.00
H446   H     0.87377   0.63563   0.05257   0.00000  Uiso   1.00
H447   H     0.79727   0.94776   0.03762   0.00000  Uiso   1.00
H448   H     0.07217   0.89140   0.00185   0.00000  Uiso   1.00
H449   H     0.79561   0.39826   0.07264   0.00000  Uiso   1.00
H450   H     0.63434   0.05643   0.04112   0.00000  Uiso   1.00
H451   H     0.21403   0.93758   0.96567   0.00000  Uiso   1.00
O452   O     0.62642   0.15515   0.06893   0.00000  Uiso   1.00
O453   O     0.41485   0.01865   0.02756   0.00000  Uiso   1.00
O454   O     0.17539   0.86271   0.92858   0.00000  Uiso   1.00
N455   N     0.58214   0.24181   0.04177   0.00000  Uiso   1.00
N456   N     0.43135   0.85714   0.01229   0.00000  Uiso   1.00
N457   N     0.97330   0.74605   0.94176   0.00000  Uiso   1.00
N458   N     0.73542   0.36945   0.06127   0.00000  Uiso   1.00
N459   N     0.58463   0.98478   0.03179   0.00000  Uiso   1.00
N460   N     0.12659   0.87370   0.96126   0.00000  Uiso   1.00
C461   C     0.95492   0.35120   0.33022   0.00000  Uiso   1.00
C462   C     0.86727   0.33210   0.34735   0.00000  Uiso   1.00
C463   C     0.80787   0.40143   0.35090   0.00000  Uiso   1.00
C464   C     0.73142   0.36936   0.36736   0.00000  Uiso   1.00
C465   C     0.59786   0.35464   0.39207   0.00000  Uiso   1.00
C466   C     0.07842   0.37367   0.33923   0.00000  Uiso   1.00
C467   C     0.19656   0.47795   0.33595   0.00000  Uiso   1.00
C468   C     0.29785   0.48086   0.34557   0.00000  Uiso   1.00
C469   C     0.49212   0.53064   0.35766   0.00000  Uiso   1.00
C470   C     0.89843   0.22431   0.31980   0.00000  Uiso   1.00
C471   C     0.86524   0.20300   0.30016   0.00000  Uiso   1.00
C472   C     0.81502   0.08016   0.29342   0.00000  Uiso   1.00
C473   C     0.72982   0.89803   0.27533   0.00000  Uiso   1.00
C474   C     0.92478   0.17094   0.35315   0.00000  Uiso   1.00
C475   C     0.85090   0.23419   0.35981   0.00000  Uiso   1.00
C476   C     0.77451   0.20200   0.37627   0.00000  Uiso   1.00
C477   C     0.71501   0.27127   0.37984   0.00000  Uiso   1.00
C478   C     0.06205   0.27577   0.35169   0.00000  Uiso   1.00
C479   C     0.16320   0.27852   0.36132   0.00000  Uiso   1.00
C480   C     0.28145   0.38278   0.35805   0.00000  Uiso   1.00
C481   C     0.88205   0.12640   0.33225   0.00000  Uiso   1.00
C482   C     0.83188   0.00357   0.32554   0.00000  Uiso   1.00
C483   C     0.79862   0.98208   0.30590   0.00000  Uiso   1.00
H484   H     0.96768   0.42743   0.32053   0.00000  Uiso   1.00
H485   H     0.82058   0.47721   0.34126   0.00000  Uiso   1.00
H486   H     0.20920   0.55370   0.32631   0.00000  Uiso   1.00
H487   H     0.87793   0.27879   0.29053   0.00000  Uiso   1.00
H488   H     0.65030   0.48925   0.36974   0.00000  Uiso   1.00
H489   H     0.46974   0.65052   0.33821   0.00000  Uiso   1.00
H490   H     0.77120   0.07083   0.26277   0.00000  Uiso   1.00
H491   H     0.91203   0.09471   0.36285   0.00000  Uiso   1.00
H492   H     0.76186   0.12623   0.38591   0.00000  Uiso   1.00
H493   H     0.15049   0.20273   0.37096   0.00000  Uiso   1.00
H494   H     0.81922   0.92783   0.33518   0.00000  Uiso   1.00
H495   H     0.60265   0.20439   0.40598   0.00000  Uiso   1.00
H496   H     0.42209   0.36566   0.37445   0.00000  Uiso   1.00
H497   H     0.72355   0.78597   0.29901   0.00000  Uiso   1.00
O498   O     0.52873   0.37358   0.40226   0.00000  Uiso   1.00
O499   O     0.60380   0.58515   0.36090   0.00000  Uiso   1.00
O500   O     0.68733   0.82461   0.26192   0.00000  Uiso   1.00
N501   N     0.65967   0.41786   0.37510   0.00000  Uiso   1.00
N502   N     0.42580   0.56865   0.34563   0.00000  Uiso   1.00
N503   N     0.77275   0.02670   0.27509   0.00000  Uiso   1.00
N504   N     0.63403   0.26458   0.39460   0.00000  Uiso   1.00
N505   N     0.40016   0.41537   0.36513   0.00000  Uiso   1.00
N506   N     0.74711   0.87341   0.29459   0.00000  Uiso   1.00
C507   C     0.39628   0.04508   0.66356   0.00000  Uiso   1.00
C508   C     0.46483   0.13273   0.68069   0.00000  Uiso   1.00
C509   C     0.59356   0.19213   0.68423   0.00000  Uiso   1.00
C510   C     0.63795   0.26858   0.70069   0.00000  Uiso   1.00
C511   C     0.75678   0.40214   0.72540   0.00000  Uiso   1.00
C512   C     0.29525   0.92158   0.67257   0.00000  Uiso   1.00
C513   C     0.28140   0.80344   0.66928   0.00000  Uiso   1.00
C514   C     0.18301   0.70215   0.67890   0.00000  Uiso   1.00
C515   C     0.03852   0.50788   0.69100   0.00000  Uiso   1.00
C516   C     0.32588   0.10157   0.65313   0.00000  Uiso   1.00
C517   C     0.33776   0.13476   0.63350   0.00000  Uiso   1.00
C518   C     0.26514   0.18498   0.62675   0.00000  Uiso   1.00
C519   C     0.16821   0.27018   0.60867   0.00000  Uiso   1.00
C520   C     0.24617   0.07522   0.68649   0.00000  Uiso   1.00
C521   C     0.38329   0.14910   0.69314   0.00000  Uiso   1.00
C522   C     0.42749   0.22549   0.70960   0.00000  Uiso   1.00
C523   C     0.55627   0.28499   0.71317   0.00000  Uiso   1.00
C524   C     0.21372   0.93795   0.68502   0.00000  Uiso   1.00
C525   C     0.11532   0.83680   0.69465   0.00000  Uiso   1.00
C526   C     0.10133   0.71855   0.69138   0.00000  Uiso   1.00
C527   C     0.24435   0.11795   0.66559   0.00000  Uiso   1.00
C528   C     0.17169   0.16812   0.65887   0.00000  Uiso   1.00
C529   C     0.18346   0.20138   0.63923   0.00000  Uiso   1.00
H530   H     0.45975   0.03232   0.65386   0.00000  Uiso   1.00
H531   H     0.65663   0.17942   0.67459   0.00000  Uiso   1.00
H532   H     0.34450   0.79080   0.65964   0.00000  Uiso   1.00
H533   H     0.40086   0.12207   0.62386   0.00000  Uiso   1.00
H534   H     0.83895   0.34970   0.70307   0.00000  Uiso   1.00
H535   H     0.18078   0.53026   0.67154   0.00000  Uiso   1.00
H536   H     0.29963   0.22880   0.59610   0.00000  Uiso   1.00
H537   H     0.18268   0.08797   0.69619   0.00000  Uiso   1.00
H538   H     0.36437   0.23814   0.71924   0.00000  Uiso   1.00
H539   H     0.05224   0.84951   0.70429   0.00000  Uiso   1.00
H540   H     0.10860   0.18078   0.66851   0.00000  Uiso   1.00
H541   H     0.60174   0.39735   0.73931   0.00000  Uiso   1.00
H542   H     0.94357   0.57791   0.70778   0.00000  Uiso   1.00
H543   H     0.06242   0.27645   0.63234   0.00000  Uiso   1.00
O544   O     0.84485   0.47127   0.73560   0.00000  Uiso   1.00
O545   O     0.98135   0.39620   0.69423   0.00000  Uiso   1.00
O546   O     0.13729   0.31267   0.59525   0.00000  Uiso   1.00
N547   N     0.75819   0.34033   0.70843   0.00000  Uiso   1.00
N548   N     0.14286   0.57420   0.67896   0.00000  Uiso   1.00
N549   N     0.25395   0.22725   0.60842   0.00000  Uiso   1.00
N550   N     0.63055   0.36597   0.72793   0.00000  Uiso   1.00
N551   N     0.01522   0.59984   0.69846   0.00000  Uiso   1.00
N552   N     0.12630   0.25289   0.62793   0.00000  Uiso   1.00
