data_job_03585
_audit_creation_date              2018-12-19
_audit_creation_method            'Materials Studio'
_symmetry_space_group_name_H-M    'P1'
_symmetry_Int_Tables_number       1
_symmetry_cell_setting            triclinic
loop_
_symmetry_equiv_pos_as_xyz
  x,y,z
_cell_length_a                    11.4939
_cell_length_b                    23.7589
_cell_length_c                    17.1953
_cell_angle_alpha                 90.0000
_cell_angle_beta                  133.9907
_cell_angle_gamma                 90.0000
loop_
_atom_site_label
_atom_site_type_symbol
_atom_site_fract_x
_atom_site_fract_y
_atom_site_fract_z
_atom_site_U_iso_or_equiv
_atom_site_adp_type
_atom_site_occupancy
C1     C     0.84691   0.13178   0.82032   0.00000  Uiso   1.00
C2     C     0.78477   0.18934   0.76605   0.00000  Uiso   1.00
C3     C     0.79161   0.23839   0.81294   0.00000  Uiso   1.00
C4     C     0.72819   0.28672   0.74991   0.00000  Uiso   1.00
C5     C     0.64194   0.37621   0.68176   0.00000  Uiso   1.00
C6     C     0.70340   0.09175   0.74722   0.00000  Uiso   1.00
C7     C     0.64185   0.05873   0.77829   0.00000  Uiso   1.00
C8     C     0.50994   0.02491   0.69940   0.00000  Uiso   1.00
C9     C     0.29744   0.96285   0.60204   0.00000  Uiso   1.00
C10    C     0.96702   0.11331   0.81382   0.00000  Uiso   1.00
C11    C     0.12712   0.09841   0.90088   0.00000  Uiso   1.00
C12    C     0.21716   0.08273   0.87806   0.00000  Uiso   1.00
C13    C     0.41397   0.05415   0.88411   0.00000  Uiso   1.00
C14    C     0.72211   0.13041   0.62499   0.00000  Uiso   1.00
C15    C     0.71698   0.18860   0.65995   0.00000  Uiso   1.00
C16    C     0.65354   0.23687   0.59683   0.00000  Uiso   1.00
C17    C     0.66029   0.28598   0.64362   0.00000  Uiso   1.00
C18    C     0.63561   0.09101   0.64113   0.00000  Uiso   1.00
C19    C     0.50377   0.05722   0.56218   0.00000  Uiso   1.00
C20    C     0.44203   0.02416   0.59311   0.00000  Uiso   1.00
C21    C     0.89924   0.11257   0.70773   0.00000  Uiso   1.00
C22    C     0.98904   0.09690   0.68477   0.00000  Uiso   1.00
C23    C     0.14925   0.08198   0.77177   0.00000  Uiso   1.00
H24    H     0.89968   0.13236   0.90292   0.00000  Uiso   1.00
H25    H     0.84407   0.23895   0.89505   0.00000  Uiso   1.00
H26    H     0.69434   0.05931   0.86040   0.00000  Uiso   1.00
H27    H     0.17953   0.09899   0.98297   0.00000  Uiso   1.00
H28    H     0.75247   0.35678   0.83952   0.00000  Uiso   1.00
H29    H     0.43679   0.97801   0.76647   0.00000  Uiso   1.00
H30    H     0.45992   0.06167   0.02494   0.00000  Uiso   1.00
H31    H     0.66933   0.12983   0.54238   0.00000  Uiso   1.00
H32    H     0.60108   0.23629   0.51473   0.00000  Uiso   1.00
H33    H     0.45135   0.05665   0.48008   0.00000  Uiso   1.00
H34    H     0.93654   0.09633   0.60265   0.00000  Uiso   1.00
H35    H     0.55525   0.35462   0.53084   0.00000  Uiso   1.00
H36    H     0.23957   0.97584   0.45779   0.00000  Uiso   1.00
H37    H     0.26270   0.05951   0.71626   0.00000  Uiso   1.00
O38    O     0.61307   0.42577   0.67348   0.00000  Uiso   1.00
O39    O     0.19894   0.92882   0.57766   0.00000  Uiso   1.00
O40    O     0.54126   0.03860   0.91676   0.00000  Uiso   1.00
N41    N     0.71545   0.34167   0.77067   0.00000  Uiso   1.00
N42    N     0.42029   0.98754   0.70238   0.00000  Uiso   1.00
N43    N     0.37682   0.06575   0.94402   0.00000  Uiso   1.00
N44    N     0.60933   0.34051   0.60457   0.00000  Uiso   1.00
N45    N     0.31417   0.98638   0.53628   0.00000  Uiso   1.00
N46    N     0.27070   0.06459   0.77792   0.00000  Uiso   1.00
C47    C     0.15309   0.63178   0.67968   0.00000  Uiso   1.00
C48    C     0.21523   0.68934   0.73395   0.00000  Uiso   1.00
C49    C     0.20839   0.73839   0.68706   0.00000  Uiso   1.00
C50    C     0.27181   0.78672   0.75009   0.00000  Uiso   1.00
C51    C     0.35806   0.87621   0.81824   0.00000  Uiso   1.00
C52    C     0.29660   0.59175   0.75278   0.00000  Uiso   1.00
C53    C     0.35815   0.55873   0.72171   0.00000  Uiso   1.00
C54    C     0.49006   0.52491   0.80060   0.00000  Uiso   1.00
C55    C     0.70256   0.46285   0.89796   0.00000  Uiso   1.00
C56    C     0.03298   0.61331   0.68618   0.00000  Uiso   1.00
C57    C     0.87288   0.59841   0.59912   0.00000  Uiso   1.00
C58    C     0.78284   0.58273   0.62194   0.00000  Uiso   1.00
C59    C     0.58603   0.55415   0.61589   0.00000  Uiso   1.00
C60    C     0.27789   0.63041   0.87501   0.00000  Uiso   1.00
C61    C     0.28302   0.68860   0.84005   0.00000  Uiso   1.00
C62    C     0.34646   0.73687   0.90317   0.00000  Uiso   1.00
C63    C     0.33971   0.78598   0.85638   0.00000  Uiso   1.00
C64    C     0.36439   0.59101   0.85887   0.00000  Uiso   1.00
C65    C     0.49623   0.55722   0.93782   0.00000  Uiso   1.00
C66    C     0.55797   0.52416   0.90689   0.00000  Uiso   1.00
C67    C     0.10076   0.61257   0.79227   0.00000  Uiso   1.00
C68    C     0.01096   0.59690   0.81523   0.00000  Uiso   1.00
C69    C     0.85075   0.58198   0.72823   0.00000  Uiso   1.00
H70    H     0.10032   0.63236   0.59708   0.00000  Uiso   1.00
H71    H     0.15593   0.73895   0.60495   0.00000  Uiso   1.00
H72    H     0.30566   0.55931   0.63960   0.00000  Uiso   1.00
H73    H     0.82047   0.59899   0.51703   0.00000  Uiso   1.00
H74    H     0.24753   0.85678   0.66048   0.00000  Uiso   1.00
H75    H     0.56321   0.47801   0.73353   0.00000  Uiso   1.00
H76    H     0.54008   0.56167   0.47506   0.00000  Uiso   1.00
H77    H     0.33067   0.62983   0.95762   0.00000  Uiso   1.00
H78    H     0.39892   0.73629   0.98527   0.00000  Uiso   1.00
H79    H     0.54865   0.55665   0.01992   0.00000  Uiso   1.00
H80    H     0.06346   0.59633   0.89735   0.00000  Uiso   1.00
H81    H     0.44475   0.85462   0.96916   0.00000  Uiso   1.00
H82    H     0.76043   0.47584   0.04221   0.00000  Uiso   1.00
H83    H     0.73730   0.55951   0.78374   0.00000  Uiso   1.00
O84    O     0.38693   0.92577   0.82652   0.00000  Uiso   1.00
O85    O     0.80106   0.42882   0.92234   0.00000  Uiso   1.00
O86    O     0.45874   0.53860   0.58324   0.00000  Uiso   1.00
N87    N     0.28455   0.84167   0.72933   0.00000  Uiso   1.00
N88    N     0.57971   0.48754   0.79762   0.00000  Uiso   1.00
N89    N     0.62318   0.56575   0.55598   0.00000  Uiso   1.00
N90    N     0.39067   0.84051   0.89543   0.00000  Uiso   1.00
N91    N     0.68583   0.48638   0.96372   0.00000  Uiso   1.00
N92    N     0.72930   0.56459   0.72208   0.00000  Uiso   1.00
C93    C     0.15309   0.86822   0.17968   0.00000  Uiso   1.00
C94    C     0.21523   0.81066   0.23395   0.00000  Uiso   1.00
C95    C     0.20839   0.76161   0.18706   0.00000  Uiso   1.00
C96    C     0.27181   0.71328   0.25009   0.00000  Uiso   1.00
C97    C     0.35806   0.62379   0.31824   0.00000  Uiso   1.00
C98    C     0.29660   0.90825   0.25278   0.00000  Uiso   1.00
C99    C     0.35815   0.94127   0.22171   0.00000  Uiso   1.00
C100   C     0.49006   0.97509   0.30060   0.00000  Uiso   1.00
C101   C     0.70256   0.03715   0.39796   0.00000  Uiso   1.00
C102   C     0.03298   0.88669   0.18618   0.00000  Uiso   1.00
C103   C     0.87288   0.90159   0.09912   0.00000  Uiso   1.00
C104   C     0.78284   0.91727   0.12194   0.00000  Uiso   1.00
C105   C     0.58603   0.94585   0.11589   0.00000  Uiso   1.00
C106   C     0.27789   0.86959   0.37501   0.00000  Uiso   1.00
C107   C     0.28302   0.81140   0.34005   0.00000  Uiso   1.00
C108   C     0.34646   0.76313   0.40317   0.00000  Uiso   1.00
C109   C     0.33971   0.71402   0.35638   0.00000  Uiso   1.00
C110   C     0.36439   0.90899   0.35887   0.00000  Uiso   1.00
C111   C     0.49623   0.94278   0.43782   0.00000  Uiso   1.00
C112   C     0.55797   0.97584   0.40689   0.00000  Uiso   1.00
C113   C     0.10076   0.88743   0.29227   0.00000  Uiso   1.00
C114   C     0.01096   0.90310   0.31523   0.00000  Uiso   1.00
C115   C     0.85075   0.91802   0.22823   0.00000  Uiso   1.00
H116   H     0.10032   0.86764   0.09708   0.00000  Uiso   1.00
H117   H     0.15593   0.76105   0.10495   0.00000  Uiso   1.00
H118   H     0.30566   0.94069   0.13960   0.00000  Uiso   1.00
H119   H     0.82047   0.90101   0.01703   0.00000  Uiso   1.00
H120   H     0.24753   0.64322   0.16048   0.00000  Uiso   1.00
H121   H     0.56321   0.02199   0.23353   0.00000  Uiso   1.00
H122   H     0.54008   0.93833   0.97506   0.00000  Uiso   1.00
H123   H     0.33067   0.87017   0.45762   0.00000  Uiso   1.00
H124   H     0.39892   0.76371   0.48527   0.00000  Uiso   1.00
H125   H     0.54865   0.94335   0.51992   0.00000  Uiso   1.00
H126   H     0.06346   0.90367   0.39735   0.00000  Uiso   1.00
H127   H     0.44475   0.64538   0.46916   0.00000  Uiso   1.00
H128   H     0.76043   0.02416   0.54221   0.00000  Uiso   1.00
H129   H     0.73730   0.94049   0.28374   0.00000  Uiso   1.00
O130   O     0.38693   0.57423   0.32652   0.00000  Uiso   1.00
O131   O     0.80106   0.07118   0.42234   0.00000  Uiso   1.00
O132   O     0.45874   0.96140   0.08324   0.00000  Uiso   1.00
N133   N     0.28455   0.65833   0.22933   0.00000  Uiso   1.00
N134   N     0.57971   0.01246   0.29762   0.00000  Uiso   1.00
N135   N     0.62318   0.93425   0.05598   0.00000  Uiso   1.00
N136   N     0.39067   0.65949   0.39543   0.00000  Uiso   1.00
N137   N     0.68583   0.01362   0.46372   0.00000  Uiso   1.00
N138   N     0.72930   0.93541   0.22208   0.00000  Uiso   1.00
C139   C     0.84691   0.36822   0.32032   0.00000  Uiso   1.00
C140   C     0.78477   0.31066   0.26605   0.00000  Uiso   1.00
C141   C     0.79161   0.26161   0.31294   0.00000  Uiso   1.00
C142   C     0.72819   0.21328   0.24991   0.00000  Uiso   1.00
C143   C     0.64194   0.12379   0.18176   0.00000  Uiso   1.00
C144   C     0.70340   0.40825   0.24722   0.00000  Uiso   1.00
C145   C     0.64185   0.44127   0.27829   0.00000  Uiso   1.00
C146   C     0.50994   0.47509   0.19940   0.00000  Uiso   1.00
C147   C     0.29744   0.53715   0.10204   0.00000  Uiso   1.00
C148   C     0.96702   0.38669   0.31382   0.00000  Uiso   1.00
C149   C     0.12712   0.40159   0.40088   0.00000  Uiso   1.00
C150   C     0.21716   0.41727   0.37806   0.00000  Uiso   1.00
C151   C     0.41397   0.44585   0.38411   0.00000  Uiso   1.00
C152   C     0.72211   0.36959   0.12499   0.00000  Uiso   1.00
C153   C     0.71698   0.31140   0.15995   0.00000  Uiso   1.00
C154   C     0.65354   0.26313   0.09683   0.00000  Uiso   1.00
C155   C     0.66029   0.21402   0.14362   0.00000  Uiso   1.00
C156   C     0.63561   0.40899   0.14113   0.00000  Uiso   1.00
C157   C     0.50377   0.44278   0.06218   0.00000  Uiso   1.00
C158   C     0.44203   0.47584   0.09311   0.00000  Uiso   1.00
C159   C     0.89924   0.38743   0.20773   0.00000  Uiso   1.00
C160   C     0.98904   0.40310   0.18477   0.00000  Uiso   1.00
C161   C     0.14925   0.41802   0.27177   0.00000  Uiso   1.00
H162   H     0.89968   0.36764   0.40292   0.00000  Uiso   1.00
H163   H     0.84407   0.26105   0.39505   0.00000  Uiso   1.00
H164   H     0.69434   0.44069   0.36040   0.00000  Uiso   1.00
H165   H     0.17953   0.40101   0.48297   0.00000  Uiso   1.00
H166   H     0.75247   0.14322   0.33952   0.00000  Uiso   1.00
H167   H     0.43679   0.52199   0.26647   0.00000  Uiso   1.00
H168   H     0.45992   0.43833   0.52494   0.00000  Uiso   1.00
H169   H     0.66933   0.37017   0.04238   0.00000  Uiso   1.00
H170   H     0.60108   0.26371   0.01473   0.00000  Uiso   1.00
H171   H     0.45135   0.44335   0.98008   0.00000  Uiso   1.00
H172   H     0.93654   0.40367   0.10265   0.00000  Uiso   1.00
H173   H     0.55525   0.14538   0.03084   0.00000  Uiso   1.00
H174   H     0.23957   0.52416   0.95779   0.00000  Uiso   1.00
H175   H     0.26270   0.44049   0.21626   0.00000  Uiso   1.00
O176   O     0.61307   0.07423   0.17348   0.00000  Uiso   1.00
O177   O     0.19894   0.57118   0.07766   0.00000  Uiso   1.00
O178   O     0.54126   0.46140   0.41676   0.00000  Uiso   1.00
N179   N     0.71545   0.15833   0.27067   0.00000  Uiso   1.00
N180   N     0.42029   0.51246   0.20238   0.00000  Uiso   1.00
N181   N     0.37682   0.43425   0.44402   0.00000  Uiso   1.00
N182   N     0.60933   0.15949   0.10457   0.00000  Uiso   1.00
N183   N     0.31417   0.51362   0.03628   0.00000  Uiso   1.00
N184   N     0.27070   0.43541   0.27792   0.00000  Uiso   1.00
