data_job_06803
_audit_creation_date              2018-12-19
_audit_creation_method            'Materials Studio'
_symmetry_space_group_name_H-M    'P1'
_symmetry_Int_Tables_number       1
_symmetry_cell_setting            triclinic
loop_
_symmetry_equiv_pos_as_xyz
  x,y,z
_cell_length_a                    17.7071
_cell_length_b                    18.4284
_cell_length_c                    22.9972
_cell_angle_alpha                 89.8373
_cell_angle_beta                  74.7713
_cell_angle_gamma                 85.9151
loop_
_atom_site_label
_atom_site_type_symbol
_atom_site_fract_x
_atom_site_fract_y
_atom_site_fract_z
_atom_site_U_iso_or_equiv
_atom_site_adp_type
_atom_site_occupancy
C1     C     0.49837   0.34663   0.61016   0.00000  Uiso   1.00
C2     C     0.55479   0.32880   0.64903   0.00000  Uiso   1.00
C3     C     0.60833   0.37459   0.66045   0.00000  Uiso   1.00
C4     C     0.65470   0.34819   0.69714   0.00000  Uiso   1.00
C5     C     0.74340   0.33111   0.75375   0.00000  Uiso   1.00
C6     C     0.51506   0.28670   0.56193   0.00000  Uiso   1.00
C7     C     0.53519   0.29710   0.50012   0.00000  Uiso   1.00
C8     C     0.54810   0.23525   0.46350   0.00000  Uiso   1.00
C9     C     0.57506   0.15280   0.38490   0.00000  Uiso   1.00
C10    C     0.41645   0.33643   0.65027   0.00000  Uiso   1.00
C11    C     0.35364   0.38864   0.66272   0.00000  Uiso   1.00
C12    C     0.28352   0.36866   0.70046   0.00000  Uiso   1.00
C13    C     0.15736   0.36343   0.75902   0.00000  Uiso   1.00
C14    C     0.48550   0.21831   0.65502   0.00000  Uiso   1.00
C15    C     0.54780   0.25910   0.67339   0.00000  Uiso   1.00
C16    C     0.59410   0.23262   0.71008   0.00000  Uiso   1.00
C17    C     0.64770   0.27837   0.72155   0.00000  Uiso   1.00
C18    C     0.50808   0.21700   0.58630   0.00000  Uiso   1.00
C19    C     0.52095   0.15513   0.54976   0.00000  Uiso   1.00
C20    C     0.54110   0.16542   0.48791   0.00000  Uiso   1.00
C21    C     0.40946   0.26674   0.67464   0.00000  Uiso   1.00
C22    C     0.33941   0.24667   0.71236   0.00000  Uiso   1.00
C23    C     0.27652   0.29883   0.72487   0.00000  Uiso   1.00
H24    H     0.50381   0.40089   0.59119   0.00000  Uiso   1.00
H25    H     0.61373   0.42853   0.64157   0.00000  Uiso   1.00
H26    H     0.54059   0.35104   0.48128   0.00000  Uiso   1.00
H27    H     0.35908   0.44257   0.64386   0.00000  Uiso   1.00
H28    H     0.73253   0.42843   0.70817   0.00000  Uiso   1.00
H29    H     0.57828   0.26504   0.37018   0.00000  Uiso   1.00
H30    H     0.19552   0.45805   0.71300   0.00000  Uiso   1.00
H31    H     0.48006   0.16404   0.67399   0.00000  Uiso   1.00
H32    H     0.58868   0.17868   0.72893   0.00000  Uiso   1.00
H33    H     0.51554   0.10120   0.56863   0.00000  Uiso   1.00
H34    H     0.33403   0.19273   0.73121   0.00000  Uiso   1.00
H35    H     0.71220   0.22564   0.77906   0.00000  Uiso   1.00
H36    H     0.55794   0.06226   0.44107   0.00000  Uiso   1.00
H37    H     0.17519   0.25527   0.78390   0.00000  Uiso   1.00
O38    O     0.79426   0.34093   0.77824   0.00000  Uiso   1.00
O39    O     0.59187   0.12658   0.33481   0.00000  Uiso   1.00
O40    O     0.08971   0.37981   0.78459   0.00000  Uiso   1.00
N41    N     0.71283   0.37870   0.71732   0.00000  Uiso   1.00
N42    N     0.56862   0.22594   0.40132   0.00000  Uiso   1.00
N43    N     0.21078   0.40638   0.72182   0.00000  Uiso   1.00
N44    N     0.70189   0.26958   0.75547   0.00000  Uiso   1.00
N45    N     0.55768   0.11683   0.43947   0.00000  Uiso   1.00
N46    N     0.19984   0.29727   0.75997   0.00000  Uiso   1.00
C47    C     0.70132   0.44505   0.45027   0.00000  Uiso   1.00
C48    C     0.76277   0.40026   0.47349   0.00000  Uiso   1.00
C49    C     0.74755   0.35542   0.52318   0.00000  Uiso   1.00
C50    C     0.81182   0.31906   0.53709   0.00000  Uiso   1.00
C51    C     0.89557   0.24829   0.57843   0.00000  Uiso   1.00
C52    C     0.72354   0.52358   0.44908   0.00000  Uiso   1.00
C53    C     0.67533   0.58244   0.47825   0.00000  Uiso   1.00
C54    C     0.70659   0.64990   0.47160   0.00000  Uiso   1.00
C55    C     0.72941   0.77060   0.47501   0.00000  Uiso   1.00
C56    C     0.71441   0.42171   0.38459   0.00000  Uiso   1.00
C57    C     0.65853   0.39492   0.35953   0.00000  Uiso   1.00
C58    C     0.68209   0.37664   0.29858   0.00000  Uiso   1.00
C59    C     0.69074   0.33916   0.20186   0.00000  Uiso   1.00
C60    C     0.84252   0.46022   0.38659   0.00000  Uiso   1.00
C61    C     0.83946   0.40850   0.43891   0.00000  Uiso   1.00
C62    C     0.90377   0.37220   0.45274   0.00000  Uiso   1.00
C63    C     0.88866   0.32731   0.50244   0.00000  Uiso   1.00
C64    C     0.80023   0.53182   0.41450   0.00000  Uiso   1.00
C65    C     0.83156   0.59922   0.40780   0.00000  Uiso   1.00
C66    C     0.78342   0.65816   0.43695   0.00000  Uiso   1.00
C67    C     0.79111   0.42995   0.35001   0.00000  Uiso   1.00
C68    C     0.81475   0.41170   0.28908   0.00000  Uiso   1.00
C69    C     0.75892   0.38489   0.26393   0.00000  Uiso   1.00
H70    H     0.64161   0.43864   0.47719   0.00000  Uiso   1.00
H71    H     0.68819   0.34906   0.54994   0.00000  Uiso   1.00
H72    H     0.61598   0.57604   0.50500   0.00000  Uiso   1.00
H73    H     0.59918   0.38856   0.38630   0.00000  Uiso   1.00
H74    H     0.77366   0.25340   0.61535   0.00000  Uiso   1.00
H75    H     0.62140   0.73201   0.52059   0.00000  Uiso   1.00
H76    H     0.58597   0.33666   0.27029   0.00000  Uiso   1.00
H77    H     0.90223   0.46664   0.35967   0.00000  Uiso   1.00
H78    H     0.96312   0.37859   0.42596   0.00000  Uiso   1.00
H79    H     0.89091   0.60557   0.38103   0.00000  Uiso   1.00
H80    H     0.87411   0.41809   0.26233   0.00000  Uiso   1.00
H81    H     0.99680   0.27737   0.51473   0.00000  Uiso   1.00
H82    H     0.84454   0.75598   0.41997   0.00000  Uiso   1.00
H83    H     0.80911   0.36063   0.16967   0.00000  Uiso   1.00
O84    O     0.92058   0.20698   0.61079   0.00000  Uiso   1.00
O85    O     0.72082   0.83490   0.48645   0.00000  Uiso   1.00
O86    O     0.67433   0.31620   0.15807   0.00000  Uiso   1.00
N87    N     0.81782   0.27111   0.58257   0.00000  Uiso   1.00
N88    N     0.67547   0.71858   0.49398   0.00000  Uiso   1.00
N89    N     0.64234   0.34898   0.25996   0.00000  Uiso   1.00
N90    N     0.93789   0.28401   0.52842   0.00000  Uiso   1.00
N91    N     0.79554   0.73148   0.43983   0.00000  Uiso   1.00
N92    N     0.76241   0.36188   0.20582   0.00000  Uiso   1.00
C93    C     0.60807   0.60113   0.68765   0.00000  Uiso   1.00
C94    C     0.69306   0.57013   0.67528   0.00000  Uiso   1.00
C95    C     0.74185   0.54953   0.61917   0.00000  Uiso   1.00
C96    C     0.81764   0.52239   0.61733   0.00000  Uiso   1.00
C97    C     0.94563   0.47518   0.59015   0.00000  Uiso   1.00
C98    C     0.55992   0.55135   0.73380   0.00000  Uiso   1.00
C99    C     0.49676   0.51497   0.72689   0.00000  Uiso   1.00
C100   C     0.46047   0.47203   0.77430   0.00000  Uiso   1.00
C101   C     0.38172   0.39569   0.83799   0.00000  Uiso   1.00
C102   C     0.60402   0.67398   0.72001   0.00000  Uiso   1.00
C103   C     0.57793   0.74072   0.70153   0.00000  Uiso   1.00
C104   C     0.57875   0.80102   0.73735   0.00000  Uiso   1.00
C105   C     0.56849   0.91510   0.77963   0.00000  Uiso   1.00
C106   C     0.65591   0.58956   0.78416   0.00000  Uiso   1.00
C107   C     0.71904   0.56384   0.72770   0.00000  Uiso   1.00
C108   C     0.79478   0.53673   0.72594   0.00000  Uiso   1.00
C109   C     0.84367   0.51610   0.66984   0.00000  Uiso   1.00
C110   C     0.58590   0.54506   0.78621   0.00000  Uiso   1.00
C111   C     0.54969   0.50217   0.83365   0.00000  Uiso   1.00
C112   C     0.48650   0.46573   0.82682   0.00000  Uiso   1.00
C113   C     0.63001   0.66770   0.77243   0.00000  Uiso   1.00
C114   C     0.63086   0.72791   0.80829   0.00000  Uiso   1.00
C115   C     0.60478   0.79473   0.78986   0.00000  Uiso   1.00
H116   H     0.58784   0.60602   0.64685   0.00000  Uiso   1.00
H117   H     0.72171   0.55440   0.57862   0.00000  Uiso   1.00
H118   H     0.47666   0.51985   0.68632   0.00000  Uiso   1.00
H119   H     0.55782   0.74556   0.66096   0.00000  Uiso   1.00
H120   H     0.88159   0.49437   0.52610   0.00000  Uiso   1.00
H121   H     0.36486   0.42154   0.75319   0.00000  Uiso   1.00
H122   H     0.53601   0.89749   0.69972   0.00000  Uiso   1.00
H123   H     0.67614   0.58467   0.82497   0.00000  Uiso   1.00
H124   H     0.81487   0.53187   0.76651   0.00000  Uiso   1.00
H125   H     0.56981   0.49732   0.87421   0.00000  Uiso   1.00
H126   H     0.65098   0.72303   0.84885   0.00000  Uiso   1.00
H127   H     0.95720   0.47608   0.67860   0.00000  Uiso   1.00
H128   H     0.44047   0.40325   0.90570   0.00000  Uiso   1.00
H129   H     0.61162   0.87921   0.85222   0.00000  Uiso   1.00
O130   O     0.00905   0.45086   0.56068   0.00000  Uiso   1.00
O131   O     0.33112   0.35532   0.85863   0.00000  Uiso   1.00
O132   O     0.55566   0.97976   0.78847   0.00000  Uiso   1.00
N133   N     0.88035   0.49732   0.57001   0.00000  Uiso   1.00
N134   N     0.39725   0.42922   0.78233   0.00000  Uiso   1.00
N135   N     0.55724   0.87420   0.73234   0.00000  Uiso   1.00
N136   N     0.92104   0.48748   0.65207   0.00000  Uiso   1.00
N137   N     0.43793   0.41938   0.86439   0.00000  Uiso   1.00
N138   N     0.59792   0.86436   0.81440   0.00000  Uiso   1.00
C139   C     0.23412   0.90534   0.97812   0.00000  Uiso   1.00
C140   C     0.26774   0.83238   0.99532   0.00000  Uiso   1.00
C141   C     0.23147   0.78967   0.04287   0.00000  Uiso   1.00
C142   C     0.27187   0.72475   0.05115   0.00000  Uiso   1.00
C143   C     0.31280   0.61469   0.08361   0.00000  Uiso   1.00
C144   C     0.23294   0.89706   0.91241   0.00000  Uiso   1.00
C145   C     0.16742   0.90874   0.89026   0.00000  Uiso   1.00
C146   C     0.17853   0.89827   0.82873   0.00000  Uiso   1.00
C147   C     0.16545   0.88869   0.73247   0.00000  Uiso   1.00
C148   C     0.29502   0.95961   0.97874   0.00000  Uiso   1.00
C149   C     0.28170   0.02390   0.01233   0.00000  Uiso   1.00
C150   C     0.34508   0.06610   0.00664   0.00000  Uiso   1.00
C151   C     0.42839   0.15363   0.01336   0.00000  Uiso   1.00
C152   C     0.37034   0.86598   0.90824   0.00000  Uiso   1.00
C153   C     0.34173   0.81100   0.95737   0.00000  Uiso   1.00
C154   C     0.38219   0.74612   0.96557   0.00000  Uiso   1.00
C155   C     0.34599   0.70333   0.01313   0.00000  Uiso   1.00
C156   C     0.30693   0.87568   0.87446   0.00000  Uiso   1.00
C157   C     0.31814   0.86519   0.81295   0.00000  Uiso   1.00
C158   C     0.25265   0.87686   0.79071   0.00000  Uiso   1.00
C159   C     0.36902   0.93823   0.94078   0.00000  Uiso   1.00
C160   C     0.43242   0.98035   0.93503   0.00000  Uiso   1.00
C161   C     0.41920   0.04469   0.96862   0.00000  Uiso   1.00
H162   H     0.17651   0.92199   0.00766   0.00000  Uiso   1.00
H163   H     0.17421   0.80623   0.07223   0.00000  Uiso   1.00
H164   H     0.11017   0.92530   0.91964   0.00000  Uiso   1.00
H165   H     0.22444   0.04043   0.04170   0.00000  Uiso   1.00
H166   H     0.20427   0.66846   0.12707   0.00000  Uiso   1.00
H167   H     0.06925   0.91953   0.80531   0.00000  Uiso   1.00
H168   H     0.31021   0.16231   0.06270   0.00000  Uiso   1.00
H169   H     0.42795   0.84934   0.87869   0.00000  Uiso   1.00
H170   H     0.43945   0.72959   0.93619   0.00000  Uiso   1.00
H171   H     0.37540   0.84865   0.78360   0.00000  Uiso   1.00
H172   H     0.48967   0.96379   0.90566   0.00000  Uiso   1.00
H173   H     0.41955   0.60625   0.01665   0.00000  Uiso   1.00
H174   H     0.28453   0.85733   0.69489   0.00000  Uiso   1.00
H175   H     0.52548   0.10011   0.95228   0.00000  Uiso   1.00
O176   O     0.31493   0.55989   0.11200   0.00000  Uiso   1.00
O177   O     0.13779   0.88929   0.68987   0.00000  Uiso   1.00
O178   O     0.45391   0.20781   0.02756   0.00000  Uiso   1.00
N179   N     0.25337   0.67026   0.09320   0.00000  Uiso   1.00
N180   N     0.12713   0.90498   0.79238   0.00000  Uiso   1.00
N181   N     0.35239   0.13197   0.03300   0.00000  Uiso   1.00
N182   N     0.36921   0.63679   0.03379   0.00000  Uiso   1.00
N183   N     0.24297   0.87151   0.73296   0.00000  Uiso   1.00
N184   N     0.46823   0.09850   0.97359   0.00000  Uiso   1.00
C185   C     0.00627   0.75924   0.90539   0.00000  Uiso   1.00
C186   C     0.05353   0.69177   0.91875   0.00000  Uiso   1.00
C187   C     0.13022   0.68930   0.92343   0.00000  Uiso   1.00
C188   C     0.16307   0.62232   0.93592   0.00000  Uiso   1.00
C189   C     0.24288   0.52703   0.95556   0.00000  Uiso   1.00
C190   C     0.93193   0.76730   0.95724   0.00000  Uiso   1.00
C191   C     0.90639   0.82834   0.99429   0.00000  Uiso   1.00
C192   C     0.83688   0.82495   0.03918   0.00000  Uiso   1.00
C193   C     0.72789   0.84694   0.11855   0.00000  Uiso   1.00
C194   C     0.97987   0.74016   0.84966   0.00000  Uiso   1.00
C195   C     0.99460   0.77839   0.79625   0.00000  Uiso   1.00
C196   C     0.96543   0.75216   0.75057   0.00000  Uiso   1.00
C197   C     0.93086   0.73201   0.66290   0.00000  Uiso   1.00
C198   C     0.92823   0.64469   0.91924   0.00000  Uiso   1.00
C199   C     0.01113   0.62955   0.92627   0.00000  Uiso   1.00
C200   C     0.04388   0.56256   0.93876   0.00000  Uiso   1.00
C201   C     0.12061   0.55999   0.94346   0.00000  Uiso   1.00
C202   C     0.88955   0.70508   0.96477   0.00000  Uiso   1.00
C203   C     0.82005   0.70161   0.00961   0.00000  Uiso   1.00
C204   C     0.79441   0.76262   0.04672   0.00000  Uiso   1.00
C205   C     0.93748   0.67794   0.85718   0.00000  Uiso   1.00
C206   C     0.90827   0.65165   0.81158   0.00000  Uiso   1.00
C207   C     0.92296   0.68983   0.75811   0.00000  Uiso   1.00
H208   H     0.03927   0.80768   0.89953   0.00000  Uiso   1.00
H209   H     0.16300   0.73746   0.91761   0.00000  Uiso   1.00
H210   H     0.93921   0.87648   0.98845   0.00000  Uiso   1.00
H211   H     0.02741   0.82654   0.79045   0.00000  Uiso   1.00
H212   H     0.28148   0.63217   0.94100   0.00000  Uiso   1.00
H213   H     0.80958   0.92532   0.09035   0.00000  Uiso   1.00
H214   H     0.99557   0.82000   0.67282   0.00000  Uiso   1.00
H215   H     0.89522   0.59625   0.92509   0.00000  Uiso   1.00
H216   H     0.01106   0.51442   0.94458   0.00000  Uiso   1.00
H217   H     0.78726   0.65345   0.01542   0.00000  Uiso   1.00
H218   H     0.87547   0.60350   0.81741   0.00000  Uiso   1.00
H219   H     0.15816   0.45115   0.96289   0.00000  Uiso   1.00
H220   H     0.68625   0.74430   0.11224   0.00000  Uiso   1.00
H221   H     0.87225   0.63898   0.69471   0.00000  Uiso   1.00
O222   O     0.29861   0.49165   0.96432   0.00000  Uiso   1.00
O223   O     0.67949   0.87625   0.16026   0.00000  Uiso   1.00
O224   O     0.92351   0.73808   0.61246   0.00000  Uiso   1.00
N225   N     0.23657   0.60079   0.94347   0.00000  Uiso   1.00
N226   N     0.79537   0.87486   0.08311   0.00000  Uiso   1.00
N227   N     0.96924   0.77641   0.69276   0.00000  Uiso   1.00
N228   N     0.17021   0.50339   0.95524   0.00000  Uiso   1.00
N229   N     0.72901   0.77746   0.09489   0.00000  Uiso   1.00
N230   N     0.90288   0.67901   0.70453   0.00000  Uiso   1.00
C231   C     0.95311   0.90933   0.16952   0.00000  Uiso   1.00
C232   C     0.98870   0.83115   0.16636   0.00000  Uiso   1.00
C233   C     0.99441   0.78143   0.11992   0.00000  Uiso   1.00
C234   C     0.02894   0.71261   0.12546   0.00000  Uiso   1.00
C235   C     0.08002   0.59402   0.11290   0.00000  Uiso   1.00
C236   C     0.01685   0.95720   0.17695   0.00000  Uiso   1.00
C237   C     0.04622   0.01346   0.13942   0.00000  Uiso   1.00
C238   C     0.10443   0.05076   0.15388   0.00000  Uiso   1.00
C239   C     0.19918   0.12790   0.15778   0.00000  Uiso   1.00
C240   C     0.88883   0.91649   0.22858   0.00000  Uiso   1.00
C241   C     0.81055   0.93855   0.23447   0.00000  Uiso   1.00
C242   C     0.76097   0.94159   0.29241   0.00000  Uiso   1.00
C243   C     0.65693   0.95552   0.37648   0.00000  Uiso   1.00
C244   C     0.00426   0.87554   0.26193   0.00000  Uiso   1.00
C245   C     0.01649   0.81280   0.21655   0.00000  Uiso   1.00
C246   C     0.05101   0.74404   0.22216   0.00000  Uiso   1.00
C247   C     0.05677   0.69422   0.17574   0.00000  Uiso   1.00
C248   C     0.04464   0.93885   0.22714   0.00000  Uiso   1.00
C249   C     0.10281   0.97608   0.24166   0.00000  Uiso   1.00
C250   C     0.13227   0.03238   0.20416   0.00000  Uiso   1.00
C251   C     0.91661   0.89814   0.27877   0.00000  Uiso   1.00
C252   C     0.86714   0.90116   0.33671   0.00000  Uiso   1.00
C253   C     0.78880   0.92320   0.34269   0.00000  Uiso   1.00
H254   H     0.93148   0.92363   0.13044   0.00000  Uiso   1.00
H255   H     0.97291   0.79565   0.08108   0.00000  Uiso   1.00
H256   H     0.02471   0.02766   0.10058   0.00000  Uiso   1.00
H257   H     0.78907   0.95274   0.19562   0.00000  Uiso   1.00
H258   H     0.03113   0.64569   0.04848   0.00000  Uiso   1.00
H259   H     0.14032   0.13489   0.08961   0.00000  Uiso   1.00
H260   H     0.64343   0.97693   0.29002   0.00000  Uiso   1.00
H261   H     0.02589   0.86126   0.30101   0.00000  Uiso   1.00
H262   H     0.07250   0.72986   0.26101   0.00000  Uiso   1.00
H263   H     0.12430   0.96186   0.28051   0.00000  Uiso   1.00
H264   H     0.88866   0.88695   0.37554   0.00000  Uiso   1.00
H265   H     0.11196   0.59229   0.19452   0.00000  Uiso   1.00
H266   H     0.22115   0.08150   0.23565   0.00000  Uiso   1.00
H267   H     0.72426   0.92353   0.43605   0.00000  Uiso   1.00
O268   O     0.10053   0.53368   0.09210   0.00000  Uiso   1.00
O269   O     0.24377   0.17551   0.14607   0.00000  Uiso   1.00
O270   O     0.59187   0.96826   0.40899   0.00000  Uiso   1.00
N271   N     0.04374   0.65115   0.08835   0.00000  Uiso   1.00
N272   N     0.14584   0.10852   0.12679   0.00000  Uiso   1.00
N273   N     0.68129   0.96086   0.31416   0.00000  Uiso   1.00
N274   N     0.08723   0.62241   0.16693   0.00000  Uiso   1.00
N275   N     0.18933   0.07978   0.20537   0.00000  Uiso   1.00
N276   N     0.72479   0.93212   0.39274   0.00000  Uiso   1.00
C277   C     0.50163   0.65337   0.38984   0.00000  Uiso   1.00
C278   C     0.44521   0.67120   0.35097   0.00000  Uiso   1.00
C279   C     0.39167   0.62541   0.33955   0.00000  Uiso   1.00
C280   C     0.34530   0.65181   0.30286   0.00000  Uiso   1.00
C281   C     0.25660   0.66889   0.24625   0.00000  Uiso   1.00
C282   C     0.48494   0.71330   0.43807   0.00000  Uiso   1.00
C283   C     0.46481   0.70290   0.49988   0.00000  Uiso   1.00
C284   C     0.45190   0.76475   0.53650   0.00000  Uiso   1.00
C285   C     0.42494   0.84720   0.61510   0.00000  Uiso   1.00
C286   C     0.58355   0.66357   0.34973   0.00000  Uiso   1.00
C287   C     0.64636   0.61136   0.33728   0.00000  Uiso   1.00
C288   C     0.71648   0.63134   0.29954   0.00000  Uiso   1.00
C289   C     0.84264   0.63657   0.24098   0.00000  Uiso   1.00
C290   C     0.51450   0.78169   0.34498   0.00000  Uiso   1.00
C291   C     0.45220   0.74090   0.32661   0.00000  Uiso   1.00
C292   C     0.40590   0.76738   0.28992   0.00000  Uiso   1.00
C293   C     0.35230   0.72163   0.27845   0.00000  Uiso   1.00
C294   C     0.49192   0.78300   0.41370   0.00000  Uiso   1.00
C295   C     0.47905   0.84487   0.45024   0.00000  Uiso   1.00
C296   C     0.45890   0.83458   0.51209   0.00000  Uiso   1.00
C297   C     0.59054   0.73326   0.32536   0.00000  Uiso   1.00
C298   C     0.66059   0.75333   0.28764   0.00000  Uiso   1.00
C299   C     0.72348   0.70117   0.27513   0.00000  Uiso   1.00
H300   H     0.49619   0.59911   0.40881   0.00000  Uiso   1.00
H301   H     0.38627   0.57147   0.35843   0.00000  Uiso   1.00
H302   H     0.45941   0.64896   0.51872   0.00000  Uiso   1.00
H303   H     0.64092   0.55743   0.35614   0.00000  Uiso   1.00
H304   H     0.26747   0.57157   0.29183   0.00000  Uiso   1.00
H305   H     0.42172   0.73496   0.62982   0.00000  Uiso   1.00
H306   H     0.80448   0.54195   0.28700   0.00000  Uiso   1.00
H307   H     0.51994   0.83596   0.32601   0.00000  Uiso   1.00
H308   H     0.41132   0.82132   0.27107   0.00000  Uiso   1.00
H309   H     0.48446   0.89880   0.43137   0.00000  Uiso   1.00
H310   H     0.66597   0.80727   0.26879   0.00000  Uiso   1.00
H311   H     0.28780   0.77436   0.22094   0.00000  Uiso   1.00
H312   H     0.44206   0.93774   0.55893   0.00000  Uiso   1.00
H313   H     0.82481   0.74473   0.21610   0.00000  Uiso   1.00
O314   O     0.20574   0.65907   0.22176   0.00000  Uiso   1.00
O315   O     0.40813   0.87342   0.66519   0.00000  Uiso   1.00
O316   O     0.91029   0.62019   0.21541   0.00000  Uiso   1.00
N317   N     0.28717   0.62130   0.28268   0.00000  Uiso   1.00
N318   N     0.43138   0.77406   0.59868   0.00000  Uiso   1.00
N319   N     0.78922   0.59362   0.27818   0.00000  Uiso   1.00
N320   N     0.29811   0.73042   0.24453   0.00000  Uiso   1.00
N321   N     0.44232   0.88317   0.56053   0.00000  Uiso   1.00
N322   N     0.80016   0.70273   0.24003   0.00000  Uiso   1.00
C323   C     0.29868   0.55495   0.54973   0.00000  Uiso   1.00
C324   C     0.23723   0.59974   0.52651   0.00000  Uiso   1.00
C325   C     0.25245   0.64458   0.47682   0.00000  Uiso   1.00
C326   C     0.18818   0.68094   0.46291   0.00000  Uiso   1.00
C327   C     0.10443   0.75171   0.42157   0.00000  Uiso   1.00
C328   C     0.27646   0.47642   0.55092   0.00000  Uiso   1.00
C329   C     0.32467   0.41756   0.52175   0.00000  Uiso   1.00
C330   C     0.29341   0.35010   0.52840   0.00000  Uiso   1.00
C331   C     0.27059   0.22940   0.52499   0.00000  Uiso   1.00
C332   C     0.28559   0.57829   0.61541   0.00000  Uiso   1.00
C333   C     0.34147   0.60508   0.64047   0.00000  Uiso   1.00
C334   C     0.31791   0.62336   0.70142   0.00000  Uiso   1.00
C335   C     0.30926   0.66084   0.79814   0.00000  Uiso   1.00
C336   C     0.15748   0.53978   0.61341   0.00000  Uiso   1.00
C337   C     0.16054   0.59150   0.56109   0.00000  Uiso   1.00
C338   C     0.09623   0.62780   0.54726   0.00000  Uiso   1.00
C339   C     0.11134   0.67269   0.49756   0.00000  Uiso   1.00
C340   C     0.19977   0.46818   0.58550   0.00000  Uiso   1.00
C341   C     0.16844   0.40078   0.59220   0.00000  Uiso   1.00
C342   C     0.21658   0.34184   0.56305   0.00000  Uiso   1.00
C343   C     0.20889   0.57005   0.64999   0.00000  Uiso   1.00
C344   C     0.18525   0.58830   0.71092   0.00000  Uiso   1.00
C345   C     0.24108   0.61511   0.73607   0.00000  Uiso   1.00
H346   H     0.35839   0.56136   0.52281   0.00000  Uiso   1.00
H347   H     0.31181   0.65094   0.45006   0.00000  Uiso   1.00
H348   H     0.38402   0.42396   0.49500   0.00000  Uiso   1.00
H349   H     0.40082   0.61144   0.61370   0.00000  Uiso   1.00
H350   H     0.22634   0.74660   0.38465   0.00000  Uiso   1.00
H351   H     0.37860   0.26799   0.47941   0.00000  Uiso   1.00
H352   H     0.41403   0.66334   0.72971   0.00000  Uiso   1.00
H353   H     0.09777   0.53336   0.64033   0.00000  Uiso   1.00
H354   H     0.03688   0.62141   0.57404   0.00000  Uiso   1.00
H355   H     0.10909   0.39443   0.61897   0.00000  Uiso   1.00
H356   H     0.12589   0.58191   0.73767   0.00000  Uiso   1.00
H357   H     0.00320   0.72263   0.48527   0.00000  Uiso   1.00
H358   H     0.15546   0.24402   0.58003   0.00000  Uiso   1.00
H359   H     0.19089   0.63937   0.83033   0.00000  Uiso   1.00
O360   O     0.07942   0.79302   0.38921   0.00000  Uiso   1.00
O361   O     0.27918   0.16510   0.51355   0.00000  Uiso   1.00
O362   O     0.32567   0.68380   0.84193   0.00000  Uiso   1.00
N363   N     0.18218   0.72889   0.41743   0.00000  Uiso   1.00
N364   N     0.32453   0.28142   0.50602   0.00000  Uiso   1.00
N365   N     0.35766   0.65102   0.74004   0.00000  Uiso   1.00
N366   N     0.06211   0.71599   0.47158   0.00000  Uiso   1.00
N367   N     0.20446   0.26852   0.56017   0.00000  Uiso   1.00
N368   N     0.23759   0.63812   0.79418   0.00000  Uiso   1.00
C369   C     0.39193   0.39887   0.31235   0.00000  Uiso   1.00
C370   C     0.30694   0.42987   0.32472   0.00000  Uiso   1.00
C371   C     0.25815   0.45047   0.38083   0.00000  Uiso   1.00
C372   C     0.18236   0.47761   0.38267   0.00000  Uiso   1.00
C373   C     0.05437   0.52482   0.40985   0.00000  Uiso   1.00
C374   C     0.44008   0.44865   0.26620   0.00000  Uiso   1.00
C375   C     0.50324   0.48503   0.27311   0.00000  Uiso   1.00
C376   C     0.53953   0.52797   0.22570   0.00000  Uiso   1.00
C377   C     0.61828   0.60431   0.16201   0.00000  Uiso   1.00
C378   C     0.39598   0.32602   0.27999   0.00000  Uiso   1.00
C379   C     0.42207   0.25928   0.29847   0.00000  Uiso   1.00
C380   C     0.42125   0.19898   0.26265   0.00000  Uiso   1.00
C381   C     0.43151   0.08490   0.22037   0.00000  Uiso   1.00
C382   C     0.34409   0.41044   0.21584   0.00000  Uiso   1.00
C383   C     0.28096   0.43616   0.27230   0.00000  Uiso   1.00
C384   C     0.20522   0.46327   0.27406   0.00000  Uiso   1.00
C385   C     0.15633   0.48390   0.33016   0.00000  Uiso   1.00
C386   C     0.41410   0.45494   0.21379   0.00000  Uiso   1.00
C387   C     0.45031   0.49783   0.16635   0.00000  Uiso   1.00
C388   C     0.51350   0.53427   0.17318   0.00000  Uiso   1.00
C389   C     0.36999   0.33230   0.22757   0.00000  Uiso   1.00
C390   C     0.36914   0.27209   0.19171   0.00000  Uiso   1.00
C391   C     0.39522   0.20527   0.21014   0.00000  Uiso   1.00
H392   H     0.41216   0.39398   0.35315   0.00000  Uiso   1.00
H393   H     0.27829   0.44560   0.42138   0.00000  Uiso   1.00
H394   H     0.52334   0.48015   0.31368   0.00000  Uiso   1.00
H395   H     0.44218   0.25444   0.33904   0.00000  Uiso   1.00
H396   H     0.11841   0.50563   0.47390   0.00000  Uiso   1.00
H397   H     0.63514   0.57846   0.24681   0.00000  Uiso   1.00
H398   H     0.46399   0.10251   0.30028   0.00000  Uiso   1.00
H399   H     0.32386   0.41533   0.17503   0.00000  Uiso   1.00
H400   H     0.18513   0.46813   0.23349   0.00000  Uiso   1.00
H401   H     0.43019   0.50268   0.12579   0.00000  Uiso   1.00
H402   H     0.34902   0.27697   0.15115   0.00000  Uiso   1.00
H403   H     0.04280   0.52392   0.32140   0.00000  Uiso   1.00
H404   H     0.55953   0.59675   0.09430   0.00000  Uiso   1.00
H405   H     0.38838   0.12079   0.14778   0.00000  Uiso   1.00
O406   O     0.99095   0.54914   0.43932   0.00000  Uiso   1.00
O407   O     0.66888   0.64468   0.14137   0.00000  Uiso   1.00
O408   O     0.44434   0.02024   0.21153   0.00000  Uiso   1.00
N409   N     0.11965   0.50268   0.42999   0.00000  Uiso   1.00
N410   N     0.60275   0.57078   0.21767   0.00000  Uiso   1.00
N411   N     0.44276   0.12580   0.26766   0.00000  Uiso   1.00
N412   N     0.07896   0.51252   0.34793   0.00000  Uiso   1.00
N413   N     0.56207   0.58062   0.13561   0.00000  Uiso   1.00
N414   N     0.40208   0.13564   0.18560   0.00000  Uiso   1.00
C415   C     0.76588   0.09466   0.02188   0.00000  Uiso   1.00
C416   C     0.73226   0.16762   0.00468   0.00000  Uiso   1.00
C417   C     0.76853   0.21033   0.95713   0.00000  Uiso   1.00
C418   C     0.72813   0.27525   0.94885   0.00000  Uiso   1.00
C419   C     0.68720   0.38531   0.91639   0.00000  Uiso   1.00
C420   C     0.76706   0.10294   0.08759   0.00000  Uiso   1.00
C421   C     0.83258   0.09126   0.10974   0.00000  Uiso   1.00
C422   C     0.82147   0.10173   0.17127   0.00000  Uiso   1.00
C423   C     0.83455   0.11131   0.26753   0.00000  Uiso   1.00
C424   C     0.70498   0.04039   0.02126   0.00000  Uiso   1.00
C425   C     0.71830   0.97610   0.98767   0.00000  Uiso   1.00
C426   C     0.65492   0.93390   0.99336   0.00000  Uiso   1.00
C427   C     0.57161   0.84637   0.98664   0.00000  Uiso   1.00
C428   C     0.62966   0.13402   0.09176   0.00000  Uiso   1.00
C429   C     0.65827   0.18900   0.04263   0.00000  Uiso   1.00
C430   C     0.61781   0.25388   0.03443   0.00000  Uiso   1.00
C431   C     0.65401   0.29667   0.98687   0.00000  Uiso   1.00
C432   C     0.69307   0.12432   0.12554   0.00000  Uiso   1.00
C433   C     0.68186   0.13481   0.18705   0.00000  Uiso   1.00
C434   C     0.74735   0.12314   0.20929   0.00000  Uiso   1.00
C435   C     0.63098   0.06177   0.05922   0.00000  Uiso   1.00
C436   C     0.56758   0.01965   0.06497   0.00000  Uiso   1.00
C437   C     0.58080   0.95531   0.03138   0.00000  Uiso   1.00
H438   H     0.82349   0.07801   0.99234   0.00000  Uiso   1.00
H439   H     0.82579   0.19377   0.92777   0.00000  Uiso   1.00
H440   H     0.88983   0.07470   0.08036   0.00000  Uiso   1.00
H441   H     0.77556   0.95957   0.95830   0.00000  Uiso   1.00
H442   H     0.79573   0.33154   0.87293   0.00000  Uiso   1.00
H443   H     0.93075   0.08047   0.19469   0.00000  Uiso   1.00
H444   H     0.68979   0.83769   0.93730   0.00000  Uiso   1.00
H445   H     0.57205   0.15066   0.12131   0.00000  Uiso   1.00
H446   H     0.56055   0.27041   0.06381   0.00000  Uiso   1.00
H447   H     0.62460   0.15135   0.21640   0.00000  Uiso   1.00
H448   H     0.51033   0.03621   0.09434   0.00000  Uiso   1.00
H449   H     0.58045   0.39375   0.98335   0.00000  Uiso   1.00
H450   H     0.71547   0.14267   0.30511   0.00000  Uiso   1.00
H451   H     0.47452   0.89989   0.04772   0.00000  Uiso   1.00
O452   O     0.68507   0.44011   0.88800   0.00000  Uiso   1.00
O453   O     0.86221   0.11071   0.31013   0.00000  Uiso   1.00
O454   O     0.54609   0.79219   0.97244   0.00000  Uiso   1.00
N455   N     0.74663   0.32974   0.90680   0.00000  Uiso   1.00
N456   N     0.87287   0.09502   0.20762   0.00000  Uiso   1.00
N457   N     0.64761   0.86803   0.96700   0.00000  Uiso   1.00
N458   N     0.63079   0.36321   0.96621   0.00000  Uiso   1.00
N459   N     0.75703   0.12849   0.26704   0.00000  Uiso   1.00
N460   N     0.53177   0.90150   0.02641   0.00000  Uiso   1.00
C461   C     0.99373   0.24076   0.09461   0.00000  Uiso   1.00
C462   C     0.94647   0.30823   0.08125   0.00000  Uiso   1.00
C463   C     0.86978   0.31070   0.07657   0.00000  Uiso   1.00
C464   C     0.83693   0.37768   0.06408   0.00000  Uiso   1.00
C465   C     0.75712   0.47297   0.04444   0.00000  Uiso   1.00
C466   C     0.06807   0.23270   0.04276   0.00000  Uiso   1.00
C467   C     0.09361   0.17166   0.00571   0.00000  Uiso   1.00
C468   C     0.16312   0.17505   0.96082   0.00000  Uiso   1.00
C469   C     0.27211   0.15306   0.88145   0.00000  Uiso   1.00
C470   C     0.02013   0.25984   0.15034   0.00000  Uiso   1.00
C471   C     0.00540   0.22161   0.20375   0.00000  Uiso   1.00
C472   C     0.03457   0.24784   0.24943   0.00000  Uiso   1.00
C473   C     0.06914   0.26799   0.33710   0.00000  Uiso   1.00
C474   C     0.07177   0.35531   0.08076   0.00000  Uiso   1.00
C475   C     0.98887   0.37045   0.07373   0.00000  Uiso   1.00
C476   C     0.95612   0.43744   0.06124   0.00000  Uiso   1.00
C477   C     0.87939   0.44001   0.05654   0.00000  Uiso   1.00
C478   C     0.11045   0.29492   0.03523   0.00000  Uiso   1.00
C479   C     0.17995   0.29839   0.99039   0.00000  Uiso   1.00
C480   C     0.20559   0.23738   0.95328   0.00000  Uiso   1.00
C481   C     0.06252   0.32206   0.14282   0.00000  Uiso   1.00
C482   C     0.09173   0.34835   0.18842   0.00000  Uiso   1.00
C483   C     0.07704   0.31017   0.24189   0.00000  Uiso   1.00
H484   H     0.96073   0.19232   0.10047   0.00000  Uiso   1.00
H485   H     0.83700   0.26254   0.08239   0.00000  Uiso   1.00
H486   H     0.06079   0.12352   0.01155   0.00000  Uiso   1.00
H487   H     0.97259   0.17346   0.20955   0.00000  Uiso   1.00
H488   H     0.71852   0.36783   0.05900   0.00000  Uiso   1.00
H489   H     0.19042   0.07468   0.90965   0.00000  Uiso   1.00
H490   H     0.00443   0.18000   0.32718   0.00000  Uiso   1.00
H491   H     0.10478   0.40375   0.07491   0.00000  Uiso   1.00
H492   H     0.98894   0.48558   0.05542   0.00000  Uiso   1.00
H493   H     0.21274   0.34655   0.98458   0.00000  Uiso   1.00
H494   H     0.12453   0.39650   0.18259   0.00000  Uiso   1.00
H495   H     0.84184   0.54885   0.03711   0.00000  Uiso   1.00
H496   H     0.31375   0.25570   0.88776   0.00000  Uiso   1.00
H497   H     0.12775   0.36102   0.30529   0.00000  Uiso   1.00
O498   O     0.70139   0.50835   0.03568   0.00000  Uiso   1.00
O499   O     0.32051   0.12375   0.83974   0.00000  Uiso   1.00
O500   O     0.07649   0.26192   0.38754   0.00000  Uiso   1.00
N501   N     0.76343   0.39921   0.05653   0.00000  Uiso   1.00
N502   N     0.20463   0.12514   0.91689   0.00000  Uiso   1.00
N503   N     0.03076   0.22359   0.30724   0.00000  Uiso   1.00
N504   N     0.82979   0.49661   0.04476   0.00000  Uiso   1.00
N505   N     0.27099   0.22254   0.90511   0.00000  Uiso   1.00
N506   N     0.09712   0.32099   0.29547   0.00000  Uiso   1.00
C507   C     0.04689   0.09067   0.83048   0.00000  Uiso   1.00
C508   C     0.01130   0.16885   0.83364   0.00000  Uiso   1.00
C509   C     0.00559   0.21857   0.88008   0.00000  Uiso   1.00
C510   C     0.97106   0.28739   0.87454   0.00000  Uiso   1.00
C511   C     0.91998   0.40598   0.88710   0.00000  Uiso   1.00
C512   C     0.98315   0.04280   0.82305   0.00000  Uiso   1.00
C513   C     0.95378   0.98654   0.86058   0.00000  Uiso   1.00
C514   C     0.89557   0.94924   0.84612   0.00000  Uiso   1.00
C515   C     0.80082   0.87210   0.84222   0.00000  Uiso   1.00
C516   C     0.11117   0.08351   0.77142   0.00000  Uiso   1.00
C517   C     0.18945   0.06145   0.76553   0.00000  Uiso   1.00
C518   C     0.23903   0.05841   0.70759   0.00000  Uiso   1.00
C519   C     0.34307   0.04448   0.62352   0.00000  Uiso   1.00
C520   C     0.99574   0.12446   0.73807   0.00000  Uiso   1.00
C521   C     0.98351   0.18720   0.78345   0.00000  Uiso   1.00
C522   C     0.94899   0.25596   0.77784   0.00000  Uiso   1.00
C523   C     0.94323   0.30578   0.82426   0.00000  Uiso   1.00
C524   C     0.95536   0.06115   0.77286   0.00000  Uiso   1.00
C525   C     0.89719   0.02392   0.75834   0.00000  Uiso   1.00
C526   C     0.86773   0.96762   0.79584   0.00000  Uiso   1.00
C527   C     0.08339   0.10186   0.72123   0.00000  Uiso   1.00
C528   C     0.13286   0.09884   0.66329   0.00000  Uiso   1.00
C529   C     0.21120   0.07680   0.65731   0.00000  Uiso   1.00
H530   H     0.06852   0.07637   0.86956   0.00000  Uiso   1.00
H531   H     0.02709   0.20435   0.91892   0.00000  Uiso   1.00
H532   H     0.97529   0.97234   0.89942   0.00000  Uiso   1.00
H533   H     0.21093   0.04726   0.80438   0.00000  Uiso   1.00
H534   H     0.96887   0.35431   0.95152   0.00000  Uiso   1.00
H535   H     0.85968   0.86511   0.91039   0.00000  Uiso   1.00
H536   H     0.35657   0.02307   0.70998   0.00000  Uiso   1.00
H537   H     0.97411   0.13874   0.69899   0.00000  Uiso   1.00
H538   H     0.92750   0.27014   0.73899   0.00000  Uiso   1.00
H539   H     0.87570   0.03814   0.71949   0.00000  Uiso   1.00
H540   H     0.11134   0.11305   0.62446   0.00000  Uiso   1.00
H541   H     0.88804   0.40771   0.80548   0.00000  Uiso   1.00
H542   H     0.77885   0.91850   0.76435   0.00000  Uiso   1.00
H543   H     0.27574   0.07647   0.56395   0.00000  Uiso   1.00
O544   O     0.89947   0.46632   0.90790   0.00000  Uiso   1.00
O545   O     0.75623   0.82449   0.85393   0.00000  Uiso   1.00
O546   O     0.40813   0.03174   0.59101   0.00000  Uiso   1.00
N547   N     0.95626   0.34885   0.91165   0.00000  Uiso   1.00
N548   N     0.85416   0.89148   0.87321   0.00000  Uiso   1.00
N549   N     0.31871   0.03914   0.68584   0.00000  Uiso   1.00
N550   N     0.91277   0.37759   0.83307   0.00000  Uiso   1.00
N551   N     0.81067   0.92022   0.79463   0.00000  Uiso   1.00
N552   N     0.27521   0.06788   0.60726   0.00000  Uiso   1.00
