data_job_04962
_audit_creation_date              2018-12-19
_audit_creation_method            'Materials Studio'
_symmetry_space_group_name_H-M    'P1'
_symmetry_Int_Tables_number       1
_symmetry_cell_setting            triclinic
loop_
_symmetry_equiv_pos_as_xyz
  x,y,z
_cell_length_a                    13.4857
_cell_length_b                    13.4857
_cell_length_c                    12.2225
_cell_angle_alpha                 90.0000
_cell_angle_beta                  90.0000
_cell_angle_gamma                 90.0000
loop_
_atom_site_label
_atom_site_type_symbol
_atom_site_fract_x
_atom_site_fract_y
_atom_site_fract_z
_atom_site_U_iso_or_equiv
_atom_site_adp_type
_atom_site_occupancy
C1     C     0.87424   0.72933   0.86437   0.00000  Uiso   1.00
C2     C     0.85298   0.71023   0.74366   0.00000  Uiso   1.00
C3     C     0.91871   0.66920   0.66894   0.00000  Uiso   1.00
C4     C     0.88515   0.65781   0.56229   0.00000  Uiso   1.00
C5     C     0.86675   0.62384   0.37951   0.00000  Uiso   1.00
C6     C     0.85497   0.83948   0.88290   0.00000  Uiso   1.00
C7     C     0.92237   0.90712   0.92527   0.00000  Uiso   1.00
C8     C     0.89048   0.00454   0.93584   0.00000  Uiso   1.00
C9     C     0.87514   0.17122   0.96931   0.00000  Uiso   1.00
C10    C     0.79382   0.67445   0.92781   0.00000  Uiso   1.00
C11    C     0.80979   0.60333   0.00797   0.00000  Uiso   1.00
C12    C     0.72641   0.56182   0.05638   0.00000  Uiso   1.00
C13    C     0.61613   0.47225   0.15959   0.00000  Uiso   1.00
C14    C     0.69776   0.78209   0.80784   0.00000  Uiso   1.00
C15    C     0.75713   0.73889   0.71295   0.00000  Uiso   1.00
C16    C     0.72346   0.72756   0.60639   0.00000  Uiso   1.00
C17    C     0.78913   0.68651   0.53152   0.00000  Uiso   1.00
C18    C     0.75912   0.86814   0.85219   0.00000  Uiso   1.00
C19    C     0.72712   0.96548   0.86271   0.00000  Uiso   1.00
C20    C     0.79445   0.03325   0.90508   0.00000  Uiso   1.00
C21    C     0.69796   0.70310   0.89710   0.00000  Uiso   1.00
C22    C     0.61454   0.66169   0.94541   0.00000  Uiso   1.00
C23    C     0.63039   0.59052   0.02562   0.00000  Uiso   1.00
H24    H     0.94886   0.70703   0.88829   0.00000  Uiso   1.00
H25    H     0.99289   0.64704   0.69274   0.00000  Uiso   1.00
H26    H     0.99654   0.88492   0.94904   0.00000  Uiso   1.00
H27    H     0.88398   0.58117   0.03172   0.00000  Uiso   1.00
H28    H     0.99944   0.59320   0.46239   0.00000  Uiso   1.00
H29    H     0.00713   0.09477   0.00284   0.00000  Uiso   1.00
H30    H     0.76978   0.45427   0.17719   0.00000  Uiso   1.00
H31    H     0.62313   0.80440   0.78393   0.00000  Uiso   1.00
H32    H     0.64928   0.74974   0.58264   0.00000  Uiso   1.00
H33    H     0.65294   0.98763   0.83894   0.00000  Uiso   1.00
H34    H     0.54038   0.68389   0.92162   0.00000  Uiso   1.00
H35    H     0.72056   0.67656   0.37303   0.00000  Uiso   1.00
H36    H     0.72825   0.17814   0.91349   0.00000  Uiso   1.00
H37    H     0.49089   0.53764   0.08783   0.00000  Uiso   1.00
O38    O     0.88309   0.59720   0.28717   0.00000  Uiso   1.00
O39    O     0.89317   0.25524   0.99625   0.00000  Uiso   1.00
O40    O     0.58177   0.41492   0.22498   0.00000  Uiso   1.00
N41    N     0.93021   0.62030   0.46898   0.00000  Uiso   1.00
N42    N     0.93740   0.08925   0.97426   0.00000  Uiso   1.00
N43    N     0.71550   0.49045   0.13728   0.00000  Uiso   1.00
N44    N     0.78014   0.66515   0.42090   0.00000  Uiso   1.00
N45    N     0.78734   0.13410   0.92617   0.00000  Uiso   1.00
N46    N     0.56544   0.53531   0.08920   0.00000  Uiso   1.00
C47    C     0.12576   0.27067   0.36437   0.00000  Uiso   1.00
C48    C     0.14702   0.28977   0.24366   0.00000  Uiso   1.00
C49    C     0.08129   0.33080   0.16894   0.00000  Uiso   1.00
C50    C     0.11485   0.34219   0.06229   0.00000  Uiso   1.00
C51    C     0.13325   0.37616   0.87951   0.00000  Uiso   1.00
C52    C     0.14503   0.16052   0.38290   0.00000  Uiso   1.00
C53    C     0.07763   0.09288   0.42527   0.00000  Uiso   1.00
C54    C     0.10952   0.99546   0.43584   0.00000  Uiso   1.00
C55    C     0.12486   0.82878   0.46931   0.00000  Uiso   1.00
C56    C     0.20618   0.32555   0.42781   0.00000  Uiso   1.00
C57    C     0.19021   0.39667   0.50797   0.00000  Uiso   1.00
C58    C     0.27359   0.43818   0.55638   0.00000  Uiso   1.00
C59    C     0.38387   0.52775   0.65959   0.00000  Uiso   1.00
C60    C     0.30224   0.21791   0.30784   0.00000  Uiso   1.00
C61    C     0.24287   0.26111   0.21295   0.00000  Uiso   1.00
C62    C     0.27654   0.27244   0.10639   0.00000  Uiso   1.00
C63    C     0.21087   0.31349   0.03152   0.00000  Uiso   1.00
C64    C     0.24088   0.13186   0.35219   0.00000  Uiso   1.00
C65    C     0.27288   0.03452   0.36271   0.00000  Uiso   1.00
C66    C     0.20555   0.96675   0.40508   0.00000  Uiso   1.00
C67    C     0.30204   0.29690   0.39710   0.00000  Uiso   1.00
C68    C     0.38546   0.33831   0.44541   0.00000  Uiso   1.00
C69    C     0.36961   0.40948   0.52562   0.00000  Uiso   1.00
H70    H     0.05114   0.29297   0.38829   0.00000  Uiso   1.00
H71    H     0.00711   0.35296   0.19274   0.00000  Uiso   1.00
H72    H     0.00346   0.11508   0.44904   0.00000  Uiso   1.00
H73    H     0.11602   0.41883   0.53172   0.00000  Uiso   1.00
H74    H     0.00056   0.40680   0.96239   0.00000  Uiso   1.00
H75    H     0.99287   0.90523   0.50284   0.00000  Uiso   1.00
H76    H     0.23022   0.54573   0.67719   0.00000  Uiso   1.00
H77    H     0.37687   0.19560   0.28393   0.00000  Uiso   1.00
H78    H     0.35072   0.25026   0.08264   0.00000  Uiso   1.00
H79    H     0.34706   0.01237   0.33894   0.00000  Uiso   1.00
H80    H     0.45962   0.31611   0.42162   0.00000  Uiso   1.00
H81    H     0.27944   0.32344   0.87303   0.00000  Uiso   1.00
H82    H     0.27175   0.82186   0.41349   0.00000  Uiso   1.00
H83    H     0.50911   0.46236   0.58783   0.00000  Uiso   1.00
O84    O     0.11691   0.40280   0.78717   0.00000  Uiso   1.00
O85    O     0.10683   0.74476   0.49625   0.00000  Uiso   1.00
O86    O     0.41823   0.58508   0.72498   0.00000  Uiso   1.00
N87    N     0.06979   0.37970   0.96898   0.00000  Uiso   1.00
N88    N     0.06260   0.91075   0.47426   0.00000  Uiso   1.00
N89    N     0.28450   0.50955   0.63728   0.00000  Uiso   1.00
N90    N     0.21986   0.33485   0.92090   0.00000  Uiso   1.00
N91    N     0.21266   0.86590   0.42617   0.00000  Uiso   1.00
N92    N     0.43456   0.46469   0.58920   0.00000  Uiso   1.00
C93    C     0.27067   0.87424   0.11437   0.00000  Uiso   1.00
C94    C     0.28977   0.85298   0.99366   0.00000  Uiso   1.00
C95    C     0.33080   0.91871   0.91894   0.00000  Uiso   1.00
C96    C     0.34219   0.88515   0.81229   0.00000  Uiso   1.00
C97    C     0.37616   0.86675   0.62951   0.00000  Uiso   1.00
C98    C     0.16052   0.85497   0.13290   0.00000  Uiso   1.00
C99    C     0.09288   0.92237   0.17527   0.00000  Uiso   1.00
C100   C     0.99546   0.89048   0.18584   0.00000  Uiso   1.00
C101   C     0.82878   0.87514   0.21931   0.00000  Uiso   1.00
C102   C     0.32555   0.79382   0.17781   0.00000  Uiso   1.00
C103   C     0.39667   0.80979   0.25797   0.00000  Uiso   1.00
C104   C     0.43818   0.72641   0.30638   0.00000  Uiso   1.00
C105   C     0.52775   0.61613   0.40959   0.00000  Uiso   1.00
C106   C     0.21791   0.69776   0.05784   0.00000  Uiso   1.00
C107   C     0.26111   0.75713   0.96295   0.00000  Uiso   1.00
C108   C     0.27244   0.72346   0.85639   0.00000  Uiso   1.00
C109   C     0.31349   0.78913   0.78152   0.00000  Uiso   1.00
C110   C     0.13186   0.75912   0.10219   0.00000  Uiso   1.00
C111   C     0.03452   0.72712   0.11271   0.00000  Uiso   1.00
C112   C     0.96675   0.79445   0.15508   0.00000  Uiso   1.00
C113   C     0.29690   0.69796   0.14710   0.00000  Uiso   1.00
C114   C     0.33831   0.61454   0.19541   0.00000  Uiso   1.00
C115   C     0.40948   0.63039   0.27562   0.00000  Uiso   1.00
H116   H     0.29297   0.94886   0.13829   0.00000  Uiso   1.00
H117   H     0.35296   0.99289   0.94274   0.00000  Uiso   1.00
H118   H     0.11508   0.99654   0.19904   0.00000  Uiso   1.00
H119   H     0.41883   0.88398   0.28172   0.00000  Uiso   1.00
H120   H     0.40680   0.99944   0.71239   0.00000  Uiso   1.00
H121   H     0.90523   0.00713   0.25284   0.00000  Uiso   1.00
H122   H     0.54573   0.76978   0.42719   0.00000  Uiso   1.00
H123   H     0.19560   0.62313   0.03393   0.00000  Uiso   1.00
H124   H     0.25026   0.64928   0.83264   0.00000  Uiso   1.00
H125   H     0.01237   0.65294   0.08894   0.00000  Uiso   1.00
H126   H     0.31611   0.54038   0.17162   0.00000  Uiso   1.00
H127   H     0.32344   0.72056   0.62303   0.00000  Uiso   1.00
H128   H     0.82186   0.72825   0.16349   0.00000  Uiso   1.00
H129   H     0.46236   0.49089   0.33783   0.00000  Uiso   1.00
O130   O     0.40280   0.88309   0.53717   0.00000  Uiso   1.00
O131   O     0.74476   0.89317   0.24625   0.00000  Uiso   1.00
O132   O     0.58508   0.58177   0.47498   0.00000  Uiso   1.00
N133   N     0.37970   0.93021   0.71898   0.00000  Uiso   1.00
N134   N     0.91075   0.93740   0.22426   0.00000  Uiso   1.00
N135   N     0.50955   0.71550   0.38728   0.00000  Uiso   1.00
N136   N     0.33485   0.78014   0.67090   0.00000  Uiso   1.00
N137   N     0.86590   0.78734   0.17617   0.00000  Uiso   1.00
N138   N     0.46469   0.56544   0.33920   0.00000  Uiso   1.00
C139   C     0.72933   0.12576   0.61437   0.00000  Uiso   1.00
C140   C     0.71023   0.14702   0.49366   0.00000  Uiso   1.00
C141   C     0.66920   0.08129   0.41894   0.00000  Uiso   1.00
C142   C     0.65781   0.11485   0.31229   0.00000  Uiso   1.00
C143   C     0.62384   0.13325   0.12951   0.00000  Uiso   1.00
C144   C     0.83948   0.14503   0.63290   0.00000  Uiso   1.00
C145   C     0.90712   0.07763   0.67527   0.00000  Uiso   1.00
C146   C     0.00454   0.10952   0.68584   0.00000  Uiso   1.00
C147   C     0.17122   0.12486   0.71931   0.00000  Uiso   1.00
C148   C     0.67445   0.20618   0.67781   0.00000  Uiso   1.00
C149   C     0.60333   0.19021   0.75797   0.00000  Uiso   1.00
C150   C     0.56182   0.27359   0.80638   0.00000  Uiso   1.00
C151   C     0.47225   0.38387   0.90959   0.00000  Uiso   1.00
C152   C     0.78209   0.30224   0.55784   0.00000  Uiso   1.00
C153   C     0.73889   0.24287   0.46295   0.00000  Uiso   1.00
C154   C     0.72756   0.27654   0.35639   0.00000  Uiso   1.00
C155   C     0.68651   0.21087   0.28152   0.00000  Uiso   1.00
C156   C     0.86814   0.24088   0.60219   0.00000  Uiso   1.00
C157   C     0.96548   0.27288   0.61271   0.00000  Uiso   1.00
C158   C     0.03325   0.20555   0.65508   0.00000  Uiso   1.00
C159   C     0.70310   0.30204   0.64710   0.00000  Uiso   1.00
C160   C     0.66169   0.38546   0.69541   0.00000  Uiso   1.00
C161   C     0.59052   0.36961   0.77562   0.00000  Uiso   1.00
H162   H     0.70703   0.05114   0.63829   0.00000  Uiso   1.00
H163   H     0.64704   0.00711   0.44274   0.00000  Uiso   1.00
H164   H     0.88492   0.00346   0.69904   0.00000  Uiso   1.00
H165   H     0.58117   0.11602   0.78172   0.00000  Uiso   1.00
H166   H     0.59320   0.00056   0.21239   0.00000  Uiso   1.00
H167   H     0.09477   0.99287   0.75284   0.00000  Uiso   1.00
H168   H     0.45427   0.23022   0.92719   0.00000  Uiso   1.00
H169   H     0.80440   0.37687   0.53393   0.00000  Uiso   1.00
H170   H     0.74974   0.35072   0.33264   0.00000  Uiso   1.00
H171   H     0.98763   0.34706   0.58894   0.00000  Uiso   1.00
H172   H     0.68389   0.45962   0.67162   0.00000  Uiso   1.00
H173   H     0.67656   0.27944   0.12303   0.00000  Uiso   1.00
H174   H     0.17814   0.27175   0.66349   0.00000  Uiso   1.00
H175   H     0.53764   0.50911   0.83783   0.00000  Uiso   1.00
O176   O     0.59720   0.11691   0.03717   0.00000  Uiso   1.00
O177   O     0.25524   0.10683   0.74625   0.00000  Uiso   1.00
O178   O     0.41492   0.41823   0.97498   0.00000  Uiso   1.00
N179   N     0.62030   0.06979   0.21898   0.00000  Uiso   1.00
N180   N     0.08925   0.06260   0.72426   0.00000  Uiso   1.00
N181   N     0.49045   0.28450   0.88728   0.00000  Uiso   1.00
N182   N     0.66515   0.21986   0.17090   0.00000  Uiso   1.00
N183   N     0.13410   0.21266   0.67617   0.00000  Uiso   1.00
N184   N     0.53531   0.43456   0.83920   0.00000  Uiso   1.00
