data_job_01758
_audit_creation_date              2018-12-19
_audit_creation_method            'Materials Studio'
_symmetry_space_group_name_H-M    'P1'
_symmetry_Int_Tables_number       1
_symmetry_cell_setting            triclinic
loop_
_symmetry_equiv_pos_as_xyz
  x,y,z
_cell_length_a                    18.8444
_cell_length_b                    20.4083
_cell_length_c                    7.0661
_cell_angle_alpha                 90.0000
_cell_angle_beta                  90.0000
_cell_angle_gamma                 90.0000
loop_
_atom_site_label
_atom_site_type_symbol
_atom_site_fract_x
_atom_site_fract_y
_atom_site_fract_z
_atom_site_U_iso_or_equiv
_atom_site_adp_type
_atom_site_occupancy
C1     C     0.06320   0.72682   0.37155   0.00000  Uiso   1.00
C2     C     0.00480   0.75505   0.24639   0.00000  Uiso   1.00
C3     C     0.94338   0.78550   0.30974   0.00000  Uiso   1.00
C4     C     0.89651   0.80800   0.17277   0.00000  Uiso   1.00
C5     C     0.80366   0.85298   0.00784   0.00000  Uiso   1.00
C6     C     0.07091   0.65516   0.31391   0.00000  Uiso   1.00
C7     C     0.06509   0.60163   0.43405   0.00000  Uiso   1.00
C8     C     0.07389   0.54004   0.35391   0.00000  Uiso   1.00
C9     C     0.08373   0.42995   0.29384   0.00000  Uiso   1.00
C10    C     0.13170   0.76051   0.31045   0.00000  Uiso   1.00
C11    C     0.17700   0.79554   0.42767   0.00000  Uiso   1.00
C12    C     0.23699   0.82264   0.34462   0.00000  Uiso   1.00
C13    C     0.34121   0.87611   0.27917   0.00000  Uiso   1.00
C14    C     0.08918   0.71263   0.01565   0.00000  Uiso   1.00
C15    C     0.01891   0.74734   0.05308   0.00000  Uiso   1.00
C16    C     0.97212   0.76980   0.91598   0.00000  Uiso   1.00
C17    C     0.91065   0.80028   0.97911   0.00000  Uiso   1.00
C18    C     0.08502   0.64745   0.12061   0.00000  Uiso   1.00
C19    C     0.09383   0.58593   0.04028   0.00000  Uiso   1.00
C20    C     0.08802   0.53232   0.16026   0.00000  Uiso   1.00
C21    C     0.14581   0.75281   0.11713   0.00000  Uiso   1.00
C22    C     0.20574   0.77985   0.03390   0.00000  Uiso   1.00
C23    C     0.25112   0.81492   0.15096   0.00000  Uiso   1.00
H24    H     0.05222   0.73281   0.52205   0.00000  Uiso   1.00
H25    H     0.93248   0.79144   0.45935   0.00000  Uiso   1.00
H26    H     0.05418   0.60761   0.58364   0.00000  Uiso   1.00
H27    H     0.16607   0.80149   0.57725   0.00000  Uiso   1.00
H28    H     0.80594   0.85303   0.30459   0.00000  Uiso   1.00
H29    H     0.06257   0.46540   0.56667   0.00000  Uiso   1.00
H30    H     0.29851   0.87425   0.55321   0.00000  Uiso   1.00
H31    H     0.10016   0.70663   0.86514   0.00000  Uiso   1.00
H32    H     0.98305   0.76383   0.76639   0.00000  Uiso   1.00
H33    H     0.10475   0.57999   0.89069   0.00000  Uiso   1.00
H34    H     0.21664   0.77388   0.88430   0.00000  Uiso   1.00
H35    H     0.84698   0.83062   0.74216   0.00000  Uiso   1.00
H36    H     0.10362   0.44298   0.00424   0.00000  Uiso   1.00
H37    H     0.33955   0.85183   0.99078   0.00000  Uiso   1.00
O38    O     0.74855   0.87991   0.97027   0.00000  Uiso   1.00
O39    O     0.08525   0.37135   0.31412   0.00000  Uiso   1.00
O40    O     0.39479   0.90775   0.29646   0.00000  Uiso   1.00
N41    N     0.83168   0.83992   0.18577   0.00000  Uiso   1.00
N42    N     0.07160   0.47751   0.43080   0.00000  Uiso   1.00
N43    N     0.29219   0.85973   0.41822   0.00000  Uiso   1.00
N44    N     0.85376   0.82786   0.88313   0.00000  Uiso   1.00
N45    N     0.09369   0.46544   0.12816   0.00000  Uiso   1.00
N46    N     0.31428   0.84766   0.11559   0.00000  Uiso   1.00
C47    C     0.93680   0.27318   0.87155   0.00000  Uiso   1.00
C48    C     0.99520   0.24495   0.74639   0.00000  Uiso   1.00
C49    C     0.05662   0.21450   0.80974   0.00000  Uiso   1.00
C50    C     0.10349   0.19200   0.67277   0.00000  Uiso   1.00
C51    C     0.19634   0.14702   0.50784   0.00000  Uiso   1.00
C52    C     0.92909   0.34484   0.81391   0.00000  Uiso   1.00
C53    C     0.93491   0.39837   0.93405   0.00000  Uiso   1.00
C54    C     0.92611   0.45996   0.85391   0.00000  Uiso   1.00
C55    C     0.91627   0.57005   0.79384   0.00000  Uiso   1.00
C56    C     0.86830   0.23949   0.81045   0.00000  Uiso   1.00
C57    C     0.82300   0.20446   0.92767   0.00000  Uiso   1.00
C58    C     0.76301   0.17736   0.84462   0.00000  Uiso   1.00
C59    C     0.65879   0.12389   0.77917   0.00000  Uiso   1.00
C60    C     0.91082   0.28737   0.51565   0.00000  Uiso   1.00
C61    C     0.98109   0.25266   0.55308   0.00000  Uiso   1.00
C62    C     0.02788   0.23020   0.41598   0.00000  Uiso   1.00
C63    C     0.08935   0.19972   0.47911   0.00000  Uiso   1.00
C64    C     0.91498   0.35255   0.62061   0.00000  Uiso   1.00
C65    C     0.90617   0.41407   0.54028   0.00000  Uiso   1.00
C66    C     0.91198   0.46768   0.66026   0.00000  Uiso   1.00
C67    C     0.85419   0.24719   0.61713   0.00000  Uiso   1.00
C68    C     0.79426   0.22015   0.53390   0.00000  Uiso   1.00
C69    C     0.74888   0.18508   0.65096   0.00000  Uiso   1.00
H70    H     0.94778   0.26719   0.02205   0.00000  Uiso   1.00
H71    H     0.06752   0.20856   0.95935   0.00000  Uiso   1.00
H72    H     0.94582   0.39239   0.08364   0.00000  Uiso   1.00
H73    H     0.83393   0.19851   0.07725   0.00000  Uiso   1.00
H74    H     0.19406   0.14697   0.80459   0.00000  Uiso   1.00
H75    H     0.93743   0.53460   0.06667   0.00000  Uiso   1.00
H76    H     0.70149   0.12575   0.05321   0.00000  Uiso   1.00
H77    H     0.89984   0.29337   0.36514   0.00000  Uiso   1.00
H78    H     0.01695   0.23617   0.26639   0.00000  Uiso   1.00
H79    H     0.89525   0.42001   0.39069   0.00000  Uiso   1.00
H80    H     0.78336   0.22612   0.38430   0.00000  Uiso   1.00
H81    H     0.15302   0.16938   0.24216   0.00000  Uiso   1.00
H82    H     0.89638   0.55702   0.50424   0.00000  Uiso   1.00
H83    H     0.66045   0.14817   0.49078   0.00000  Uiso   1.00
O84    O     0.25145   0.12009   0.47027   0.00000  Uiso   1.00
O85    O     0.91475   0.62865   0.81412   0.00000  Uiso   1.00
O86    O     0.60521   0.09225   0.79646   0.00000  Uiso   1.00
N87    N     0.16832   0.16008   0.68577   0.00000  Uiso   1.00
N88    N     0.92840   0.52249   0.93080   0.00000  Uiso   1.00
N89    N     0.70781   0.14027   0.91822   0.00000  Uiso   1.00
N90    N     0.14624   0.17214   0.38313   0.00000  Uiso   1.00
N91    N     0.90631   0.53456   0.62816   0.00000  Uiso   1.00
N92    N     0.68572   0.15234   0.61559   0.00000  Uiso   1.00
C93    C     0.56320   0.77318   0.37155   0.00000  Uiso   1.00
C94    C     0.50480   0.74495   0.24639   0.00000  Uiso   1.00
C95    C     0.44338   0.71450   0.30974   0.00000  Uiso   1.00
C96    C     0.39651   0.69200   0.17277   0.00000  Uiso   1.00
C97    C     0.30366   0.64702   0.00784   0.00000  Uiso   1.00
C98    C     0.57091   0.84484   0.31391   0.00000  Uiso   1.00
C99    C     0.56509   0.89837   0.43405   0.00000  Uiso   1.00
C100   C     0.57389   0.95996   0.35391   0.00000  Uiso   1.00
C101   C     0.58373   0.07005   0.29384   0.00000  Uiso   1.00
C102   C     0.63170   0.73949   0.31045   0.00000  Uiso   1.00
C103   C     0.67700   0.70446   0.42767   0.00000  Uiso   1.00
C104   C     0.73699   0.67736   0.34462   0.00000  Uiso   1.00
C105   C     0.84121   0.62389   0.27917   0.00000  Uiso   1.00
C106   C     0.58918   0.78737   0.01565   0.00000  Uiso   1.00
C107   C     0.51891   0.75266   0.05308   0.00000  Uiso   1.00
C108   C     0.47212   0.73020   0.91598   0.00000  Uiso   1.00
C109   C     0.41065   0.69972   0.97911   0.00000  Uiso   1.00
C110   C     0.58502   0.85255   0.12061   0.00000  Uiso   1.00
C111   C     0.59383   0.91407   0.04028   0.00000  Uiso   1.00
C112   C     0.58802   0.96768   0.16026   0.00000  Uiso   1.00
C113   C     0.64581   0.74719   0.11713   0.00000  Uiso   1.00
C114   C     0.70574   0.72015   0.03390   0.00000  Uiso   1.00
C115   C     0.75112   0.68508   0.15096   0.00000  Uiso   1.00
H116   H     0.55222   0.76719   0.52205   0.00000  Uiso   1.00
H117   H     0.43248   0.70856   0.45935   0.00000  Uiso   1.00
H118   H     0.55418   0.89239   0.58364   0.00000  Uiso   1.00
H119   H     0.66607   0.69851   0.57725   0.00000  Uiso   1.00
H120   H     0.30594   0.64697   0.30459   0.00000  Uiso   1.00
H121   H     0.56257   0.03460   0.56667   0.00000  Uiso   1.00
H122   H     0.79851   0.62575   0.55321   0.00000  Uiso   1.00
H123   H     0.60016   0.79337   0.86514   0.00000  Uiso   1.00
H124   H     0.48305   0.73617   0.76639   0.00000  Uiso   1.00
H125   H     0.60475   0.92001   0.89069   0.00000  Uiso   1.00
H126   H     0.71664   0.72612   0.88430   0.00000  Uiso   1.00
H127   H     0.34698   0.66938   0.74216   0.00000  Uiso   1.00
H128   H     0.60362   0.05702   0.00424   0.00000  Uiso   1.00
H129   H     0.83955   0.64817   0.99078   0.00000  Uiso   1.00
O130   O     0.24855   0.62009   0.97027   0.00000  Uiso   1.00
O131   O     0.58525   0.12865   0.31412   0.00000  Uiso   1.00
O132   O     0.89479   0.59225   0.29646   0.00000  Uiso   1.00
N133   N     0.33168   0.66008   0.18577   0.00000  Uiso   1.00
N134   N     0.57160   0.02249   0.43080   0.00000  Uiso   1.00
N135   N     0.79219   0.64027   0.41822   0.00000  Uiso   1.00
N136   N     0.35376   0.67214   0.88313   0.00000  Uiso   1.00
N137   N     0.59369   0.03456   0.12816   0.00000  Uiso   1.00
N138   N     0.81428   0.65234   0.11559   0.00000  Uiso   1.00
C139   C     0.43680   0.22682   0.87155   0.00000  Uiso   1.00
C140   C     0.49520   0.25505   0.74639   0.00000  Uiso   1.00
C141   C     0.55662   0.28550   0.80974   0.00000  Uiso   1.00
C142   C     0.60349   0.30800   0.67277   0.00000  Uiso   1.00
C143   C     0.69634   0.35298   0.50784   0.00000  Uiso   1.00
C144   C     0.42909   0.15516   0.81391   0.00000  Uiso   1.00
C145   C     0.43491   0.10163   0.93405   0.00000  Uiso   1.00
C146   C     0.42611   0.04004   0.85391   0.00000  Uiso   1.00
C147   C     0.41627   0.92995   0.79384   0.00000  Uiso   1.00
C148   C     0.36830   0.26051   0.81045   0.00000  Uiso   1.00
C149   C     0.32300   0.29554   0.92767   0.00000  Uiso   1.00
C150   C     0.26301   0.32264   0.84462   0.00000  Uiso   1.00
C151   C     0.15879   0.37611   0.77917   0.00000  Uiso   1.00
C152   C     0.41082   0.21263   0.51565   0.00000  Uiso   1.00
C153   C     0.48109   0.24734   0.55308   0.00000  Uiso   1.00
C154   C     0.52788   0.26980   0.41598   0.00000  Uiso   1.00
C155   C     0.58935   0.30028   0.47911   0.00000  Uiso   1.00
C156   C     0.41498   0.14745   0.62061   0.00000  Uiso   1.00
C157   C     0.40617   0.08593   0.54028   0.00000  Uiso   1.00
C158   C     0.41198   0.03232   0.66026   0.00000  Uiso   1.00
C159   C     0.35419   0.25281   0.61713   0.00000  Uiso   1.00
C160   C     0.29426   0.27985   0.53390   0.00000  Uiso   1.00
C161   C     0.24888   0.31492   0.65096   0.00000  Uiso   1.00
H162   H     0.44778   0.23281   0.02205   0.00000  Uiso   1.00
H163   H     0.56752   0.29144   0.95935   0.00000  Uiso   1.00
H164   H     0.44582   0.10761   0.08364   0.00000  Uiso   1.00
H165   H     0.33393   0.30149   0.07725   0.00000  Uiso   1.00
H166   H     0.69406   0.35303   0.80459   0.00000  Uiso   1.00
H167   H     0.43743   0.96540   0.06667   0.00000  Uiso   1.00
H168   H     0.20149   0.37425   0.05321   0.00000  Uiso   1.00
H169   H     0.39984   0.20663   0.36514   0.00000  Uiso   1.00
H170   H     0.51695   0.26383   0.26639   0.00000  Uiso   1.00
H171   H     0.39525   0.07999   0.39069   0.00000  Uiso   1.00
H172   H     0.28336   0.27388   0.38430   0.00000  Uiso   1.00
H173   H     0.65302   0.33062   0.24216   0.00000  Uiso   1.00
H174   H     0.39638   0.94298   0.50424   0.00000  Uiso   1.00
H175   H     0.16045   0.35183   0.49078   0.00000  Uiso   1.00
O176   O     0.75145   0.37991   0.47027   0.00000  Uiso   1.00
O177   O     0.41475   0.87135   0.81412   0.00000  Uiso   1.00
O178   O     0.10521   0.40775   0.79646   0.00000  Uiso   1.00
N179   N     0.66832   0.33992   0.68577   0.00000  Uiso   1.00
N180   N     0.42840   0.97751   0.93080   0.00000  Uiso   1.00
N181   N     0.20781   0.35973   0.91822   0.00000  Uiso   1.00
N182   N     0.64624   0.32786   0.38313   0.00000  Uiso   1.00
N183   N     0.40631   0.96544   0.62816   0.00000  Uiso   1.00
N184   N     0.18572   0.34766   0.61559   0.00000  Uiso   1.00
